data_I
_chemical_name_common  '/home/zhangsd/repos/MofS-CGCNN/ML/data/TSD/clean_cifs/RANWAH_clean'
_cell_length_a 39.20060
_cell_length_b 39.20060
_cell_length_c 39.20060
_cell_angle_alpha 90.00000
_cell_angle_beta  90.00000
_cell_angle_gamma 90.00000
_space_group_name_H-M_alt      'P 1'


loop_
_space_group_symop_operation_xyz
  'x, y, z' 

loop_
_atom_site_label
_atom_site_fract_x
_atom_site_fract_y
_atom_site_fract_z
_atom_site_type_symbol
Mn         0.0  0.18386  0.27163    Mn
Mn         0.0  0.18386  0.72837    Mn
Mn         0.0  0.22837  0.18386    Mn
Mn         0.0  0.22837  0.81614    Mn
Mn         0.0  0.27163  0.31614    Mn
Mn         0.0  0.27163  0.68386    Mn
Mn         0.0  0.31614  0.22837    Mn
Mn         0.0  0.31614  0.77163    Mn
Mn         0.0  0.68386  0.22837    Mn
Mn         0.0  0.68386  0.77163    Mn
Mn         0.0  0.72837  0.31614    Mn
Mn         0.0  0.72837  0.68386    Mn
Mn         0.0  0.77163  0.18386    Mn
Mn         0.0  0.77163  0.81614    Mn
Mn         0.0  0.81614  0.27163    Mn
Mn         0.0  0.81614  0.72837    Mn
O      0.03515   0.2052   0.2183     O
O      0.03515   0.2052   0.7817     O
O      0.03515   0.2183   0.2948     O
O      0.03515   0.2183   0.7052     O
O      0.03515   0.2817   0.2052     O
O      0.03515   0.2817   0.7948     O
O      0.03515   0.2948   0.2817     O
O      0.03515   0.2948   0.7183     O
O      0.03515   0.7052   0.2817     O
O      0.03515   0.7052   0.7183     O
O      0.03515   0.7183   0.2052     O
O      0.03515   0.7183   0.7948     O
O      0.03515   0.7817   0.2948     O
O      0.03515   0.7817   0.7052     O
O      0.03515   0.7948   0.2183     O
O      0.03515   0.7948   0.7817     O
O      0.04092  0.15596  0.24589     O
O      0.04092  0.15596  0.75411     O
O      0.04092  0.24589  0.34404     O
O      0.04092  0.24589  0.65596     O
O      0.04092  0.25411  0.15596     O
O      0.04092  0.25411  0.84404     O
O      0.04092  0.34404  0.25411     O
O      0.04092  0.34404  0.74589     O
O      0.04092  0.65596  0.25411     O
O      0.04092  0.65596  0.74589     O
O      0.04092  0.74589  0.15596     O
O      0.04092  0.74589  0.84404     O
O      0.04092  0.75411  0.34404     O
O      0.04092  0.75411  0.65596     O
O      0.04092  0.84404  0.24589     O
O      0.04092  0.84404  0.75411     O
C      0.04892  0.17652  0.22254     C
C      0.04892  0.17652  0.77746     C
C      0.04892  0.22254  0.32348     C
C      0.04892  0.22254  0.67652     C
C      0.04892  0.27746  0.17652     C
C      0.04892  0.27746  0.82348     C
C      0.04892  0.32348  0.27746     C
C      0.04892  0.32348  0.72254     C
C      0.04892  0.67652  0.27746     C
C      0.04892  0.67652  0.72254     C
C      0.04892  0.72254  0.17652     C
C      0.04892  0.72254  0.82348     C
C      0.04892  0.77746  0.32348     C
C      0.04892  0.77746  0.67652     C
C      0.04892  0.82348  0.22254     C
C      0.04892  0.82348  0.77746     C
C      0.07756  0.16652  0.19992     C
C      0.07756  0.16652  0.80008     C
C      0.07756  0.19992  0.33348     C
C      0.07756  0.19992  0.66652     C
C      0.07756  0.30008  0.16652     C
C      0.07756  0.30008  0.83348     C
C      0.07756  0.33348  0.30008     C
C      0.07756  0.33348  0.69992     C
C      0.07756  0.66652  0.30008     C
C      0.07756  0.66652  0.69992     C
C      0.07756  0.69992  0.16652     C
C      0.07756  0.69992  0.83348     C
C      0.07756  0.80008  0.33348     C
C      0.07756  0.80008  0.66652     C
C      0.07756  0.83348  0.19992     C
C      0.07756  0.83348  0.80008     C
H       0.0791   0.1618   0.2941     H
H       0.0791   0.1618   0.7059     H
H       0.0791   0.2059   0.1618     H
H       0.0791   0.2059   0.8382     H
H       0.0791   0.2941   0.3382     H
H       0.0791   0.2941   0.6618     H
H       0.0791   0.3382   0.2059     H
H       0.0791   0.3382   0.7941     H
H       0.0791   0.6618   0.2059     H
H       0.0791   0.6618   0.7941     H
H       0.0791   0.7059   0.3382     H
H       0.0791   0.7059   0.6618     H
H       0.0791   0.7941   0.1618     H
H       0.0791   0.7941   0.8382     H
H       0.0791   0.8382   0.2941     H
H       0.0791   0.8382   0.7059     H
C      0.08877  0.17043  0.31455     C
C      0.08877  0.17043  0.68545     C
C      0.08877  0.18545  0.17043     C
C      0.08877  0.18545  0.82957     C
C      0.08877  0.31455  0.32957     C
C      0.08877  0.31455  0.67043     C
C      0.08877  0.32957  0.18545     C
C      0.08877  0.32957  0.81455     C
C      0.08877  0.67043  0.18545     C
C      0.08877  0.67043  0.81455     C
C      0.08877  0.68545  0.32957     C
C      0.08877  0.68545  0.67043     C
C      0.08877  0.81455  0.17043     C
C      0.08877  0.81455  0.82957     C
C      0.08877  0.82957  0.31455     C
C      0.08877  0.82957  0.68545     C
S      0.10091   0.1299  0.20936     S
S      0.10091   0.1299  0.79064     S
S      0.10091  0.20936   0.3701     S
S      0.10091  0.20936   0.6299     S
S      0.10091  0.29064   0.1299     S
S      0.10091  0.29064   0.8701     S
S      0.10091   0.3701  0.29064     S
S      0.10091   0.3701  0.70936     S
S      0.10091   0.6299  0.29064     S
S      0.10091   0.6299  0.70936     S
S      0.10091  0.70936   0.1299     S
S      0.10091  0.70936   0.8701     S
S      0.10091  0.79064   0.3701     S
S      0.10091  0.79064   0.6299     S
S      0.10091   0.8701  0.20936     S
S      0.10091   0.8701  0.79064     S
C      0.11814  0.15646   0.3333     C
C      0.11814  0.15646   0.6667     C
C      0.11814   0.1667  0.15646     C
C      0.11814   0.1667  0.84354     C
C      0.11814   0.3333  0.34354     C
C      0.11814   0.3333  0.65646     C
C      0.11814  0.34354   0.1667     C
C      0.11814  0.34354   0.8333     C
C      0.11814  0.65646   0.1667     C
C      0.11814  0.65646   0.8333     C
C      0.11814   0.6667  0.34354     C
C      0.11814   0.6667  0.65646     C
C      0.11814   0.8333  0.15646     C
C      0.11814   0.8333  0.84354     C
C      0.11814  0.84354   0.3333     C
C      0.11814  0.84354   0.6667     C
C      0.12744   0.1377  0.17547     C
C      0.12744   0.1377  0.82453     C
C      0.12744  0.17547   0.3623     C
C      0.12744  0.17547   0.6377     C
C      0.12744  0.32453   0.1377     C
C      0.12744  0.32453   0.8623     C
C      0.12744   0.3623  0.32453     C
C      0.12744   0.3623  0.67547     C
C      0.12744   0.6377  0.32453     C
C      0.12744   0.6377  0.67547     C
C      0.12744  0.67547   0.1377     C
C      0.12744  0.67547   0.8623     C
C      0.12744  0.82453   0.3623     C
C      0.12744  0.82453   0.6377     C
C      0.12744   0.8623  0.17547     C
C      0.12744   0.8623  0.82453     C
S       0.1299  0.10091  0.29064     S
S       0.1299  0.10091  0.70936     S
S       0.1299  0.20936  0.10091     S
S       0.1299  0.20936  0.89909     S
S       0.1299  0.29064  0.39909     S
S       0.1299  0.29064  0.60091     S
S       0.1299  0.39909  0.20936     S
S       0.1299  0.39909  0.79064     S
S       0.1299  0.60091  0.20936     S
S       0.1299  0.60091  0.79064     S
S       0.1299  0.70936  0.39909     S
S       0.1299  0.70936  0.60091     S
S       0.1299  0.79064  0.10091     S
S       0.1299  0.79064  0.89909     S
S       0.1299  0.89909  0.29064     S
S       0.1299  0.89909  0.70936     S
C       0.1377  0.12744  0.32453     C
C       0.1377  0.12744  0.67547     C
C       0.1377  0.17547  0.12744     C
C       0.1377  0.17547  0.87256     C
C       0.1377  0.32453  0.37256     C
C       0.1377  0.32453  0.62744     C
C       0.1377  0.37256  0.17547     C
C       0.1377  0.37256  0.82453     C
C       0.1377  0.62744  0.17547     C
C       0.1377  0.62744  0.82453     C
C       0.1377  0.67547  0.37256     C
C       0.1377  0.67547  0.62744     C
C       0.1377  0.82453  0.12744     C
C       0.1377  0.82453  0.87256     C
C       0.1377  0.87256  0.32453     C
C       0.1377  0.87256  0.67547     C
O      0.15596  0.04092  0.25411     O
O      0.15596  0.04092  0.74589     O
O      0.15596  0.24589  0.04092     O
O      0.15596  0.24589  0.95908     O
O      0.15596  0.25411  0.45908     O
O      0.15596  0.25411  0.54092     O
O      0.15596  0.45908  0.24589     O
O      0.15596  0.45908  0.75411     O
O      0.15596  0.54092  0.24589     O
O      0.15596  0.54092  0.75411     O
O      0.15596  0.74589  0.45908     O
O      0.15596  0.74589  0.54092     O
O      0.15596  0.75411  0.04092     O
O      0.15596  0.75411  0.95908     O
O      0.15596  0.95908  0.25411     O
O      0.15596  0.95908  0.74589     O
C      0.15646  0.11814   0.1667     C
C      0.15646  0.11814   0.8333     C
C      0.15646   0.1667  0.38186     C
C      0.15646   0.1667  0.61814     C
C      0.15646   0.3333  0.11814     C
C      0.15646   0.3333  0.88186     C
C      0.15646  0.38186   0.3333     C
C      0.15646  0.38186   0.6667     C
C      0.15646  0.61814   0.3333     C
C      0.15646  0.61814   0.6667     C
C      0.15646   0.6667  0.11814     C
C      0.15646   0.6667  0.88186     C
C      0.15646   0.8333  0.38186     C
C      0.15646   0.8333  0.61814     C
C      0.15646  0.88186   0.1667     C
C      0.15646  0.88186   0.8333     C
H       0.1618   0.0791   0.2059     H
H       0.1618   0.0791   0.7941     H
H       0.1618   0.2059   0.4209     H
H       0.1618   0.2059   0.5791     H
H       0.1618   0.2941   0.0791     H
H       0.1618   0.2941   0.9209     H
H       0.1618   0.4209   0.2941     H
H       0.1618   0.4209   0.7059     H
H       0.1618   0.5791   0.2941     H
H       0.1618   0.5791   0.7059     H
H       0.1618   0.7059   0.0791     H
H       0.1618   0.7059   0.9209     H
H       0.1618   0.7941   0.4209     H
H       0.1618   0.7941   0.5791     H
H       0.1618   0.9209   0.2059     H
H       0.1618   0.9209   0.7941     H
C      0.16652  0.07756  0.30008     C
C      0.16652  0.07756  0.69992     C
C      0.16652  0.19992  0.07756     C
C      0.16652  0.19992  0.92244     C
C      0.16652  0.30008  0.42244     C
C      0.16652  0.30008  0.57756     C
C      0.16652  0.42244  0.19992     C
C      0.16652  0.42244  0.80008     C
C      0.16652  0.57756  0.19992     C
C      0.16652  0.57756  0.80008     C
C      0.16652  0.69992  0.42244     C
C      0.16652  0.69992  0.57756     C
C      0.16652  0.80008  0.07756     C
C      0.16652  0.80008  0.92244     C
C      0.16652  0.92244  0.30008     C
C      0.16652  0.92244  0.69992     C
C       0.1667  0.11814  0.34354     C
C       0.1667  0.11814  0.65646     C
C       0.1667  0.15646  0.11814     C
C       0.1667  0.15646  0.88186     C
C       0.1667  0.34354  0.38186     C
C       0.1667  0.34354  0.61814     C
C       0.1667  0.38186  0.15646     C
C       0.1667  0.38186  0.84354     C
C       0.1667  0.61814  0.15646     C
C       0.1667  0.61814  0.84354     C
C       0.1667  0.65646  0.38186     C
C       0.1667  0.65646  0.61814     C
C       0.1667  0.84354  0.11814     C
C       0.1667  0.84354  0.88186     C
C       0.1667  0.88186  0.34354     C
C       0.1667  0.88186  0.65646     C
C      0.17043  0.08877  0.18545     C
C      0.17043  0.08877  0.81455     C
C      0.17043  0.18545  0.41123     C
C      0.17043  0.18545  0.58877     C
C      0.17043  0.31455  0.08877     C
C      0.17043  0.31455  0.91123     C
C      0.17043  0.41123  0.31455     C
C      0.17043  0.41123  0.68545     C
C      0.17043  0.58877  0.31455     C
C      0.17043  0.58877  0.68545     C
C      0.17043  0.68545  0.08877     C
C      0.17043  0.68545  0.91123     C
C      0.17043  0.81455  0.41123     C
C      0.17043  0.81455  0.58877     C
C      0.17043  0.91123  0.18545     C
C      0.17043  0.91123  0.81455     C
C      0.17547  0.12744   0.1377     C
C      0.17547  0.12744   0.8623     C
C      0.17547   0.1377  0.37256     C
C      0.17547   0.1377  0.62744     C
C      0.17547   0.3623  0.12744     C
C      0.17547   0.3623  0.87256     C
C      0.17547  0.37256   0.3623     C
C      0.17547  0.37256   0.6377     C
C      0.17547  0.62744   0.3623     C
C      0.17547  0.62744   0.6377     C
C      0.17547   0.6377  0.12744     C
C      0.17547   0.6377  0.87256     C
C      0.17547   0.8623  0.37256     C
C      0.17547   0.8623  0.62744     C
C      0.17547  0.87256   0.1377     C
C      0.17547  0.87256   0.8623     C
C      0.17652  0.04892  0.27746     C
C      0.17652  0.04892  0.72254     C
C      0.17652  0.22254  0.04892     C
C      0.17652  0.22254  0.95108     C
C      0.17652  0.27746  0.45108     C
C      0.17652  0.27746  0.54892     C
C      0.17652  0.45108  0.22254     C
C      0.17652  0.45108  0.77746     C
C      0.17652  0.54892  0.22254     C
C      0.17652  0.54892  0.77746     C
C      0.17652  0.72254  0.45108     C
C      0.17652  0.72254  0.54892     C
C      0.17652  0.77746  0.04892     C
C      0.17652  0.77746  0.95108     C
C      0.17652  0.95108  0.27746     C
C      0.17652  0.95108  0.72254     C
Mn     0.18386      0.0  0.22837    Mn
Mn     0.18386      0.0  0.77163    Mn
Mn     0.18386  0.22837      0.5    Mn
Mn     0.18386  0.27163      0.0    Mn
Mn     0.18386      0.5  0.27163    Mn
Mn     0.18386      0.5  0.72837    Mn
Mn     0.18386  0.72837      0.0    Mn
Mn     0.18386  0.77163      0.5    Mn
C      0.18545  0.08877  0.32957     C
C      0.18545  0.08877  0.67043     C
C      0.18545  0.17043  0.08877     C
C      0.18545  0.17043  0.91123     C
C      0.18545  0.32957  0.41123     C
C      0.18545  0.32957  0.58877     C
C      0.18545  0.41123  0.17043     C
C      0.18545  0.41123  0.82957     C
C      0.18545  0.58877  0.17043     C
C      0.18545  0.58877  0.82957     C
C      0.18545  0.67043  0.41123     C
C      0.18545  0.67043  0.58877     C
C      0.18545  0.82957  0.08877     C
C      0.18545  0.82957  0.91123     C
C      0.18545  0.91123  0.32957     C
C      0.18545  0.91123  0.67043     C
C      0.19992  0.07756  0.16652     C
C      0.19992  0.07756  0.83348     C
C      0.19992  0.16652  0.42244     C
C      0.19992  0.16652  0.57756     C
C      0.19992  0.33348  0.07756     C
C      0.19992  0.33348  0.92244     C
C      0.19992  0.42244  0.33348     C
C      0.19992  0.42244  0.66652     C
C      0.19992  0.57756  0.33348     C
C      0.19992  0.57756  0.66652     C
C      0.19992  0.66652  0.07756     C
C      0.19992  0.66652  0.92244     C
C      0.19992  0.83348  0.42244     C
C      0.19992  0.83348  0.57756     C
C      0.19992  0.92244  0.16652     C
C      0.19992  0.92244  0.83348     C
O       0.2052  0.03515   0.2817     O
O       0.2052  0.03515   0.7183     O
O       0.2052   0.2183  0.03515     O
O       0.2052   0.2183  0.96485     O
O       0.2052   0.2817  0.46485     O
O       0.2052   0.2817  0.53515     O
O       0.2052  0.46485   0.2183     O
O       0.2052  0.46485   0.7817     O
O       0.2052  0.53515   0.2183     O
O       0.2052  0.53515   0.7817     O
O       0.2052   0.7183  0.46485     O
O       0.2052   0.7183  0.53515     O
O       0.2052   0.7817  0.03515     O
O       0.2052   0.7817  0.96485     O
O       0.2052  0.96485   0.2817     O
O       0.2052  0.96485   0.7183     O
H       0.2059   0.0791   0.3382     H
H       0.2059   0.0791   0.6618     H
H       0.2059   0.1618   0.0791     H
H       0.2059   0.1618   0.9209     H
H       0.2059   0.3382   0.4209     H
H       0.2059   0.3382   0.5791     H
H       0.2059   0.4209   0.1618     H
H       0.2059   0.4209   0.8382     H
H       0.2059   0.5791   0.1618     H
H       0.2059   0.5791   0.8382     H
H       0.2059   0.6618   0.4209     H
H       0.2059   0.6618   0.5791     H
H       0.2059   0.8382   0.0791     H
H       0.2059   0.8382   0.9209     H
H       0.2059   0.9209   0.3382     H
H       0.2059   0.9209   0.6618     H
S      0.20936  0.10091   0.1299     S
S      0.20936  0.10091   0.8701     S
S      0.20936   0.1299  0.39909     S
S      0.20936   0.1299  0.60091     S
S      0.20936   0.3701  0.10091     S
S      0.20936   0.3701  0.89909     S
S      0.20936  0.39909   0.3701     S
S      0.20936  0.39909   0.6299     S
S      0.20936  0.60091   0.3701     S
S      0.20936  0.60091   0.6299     S
S      0.20936   0.6299  0.10091     S
S      0.20936   0.6299  0.89909     S
S      0.20936   0.8701  0.39909     S
S      0.20936   0.8701  0.60091     S
S      0.20936  0.89909   0.1299     S
S      0.20936  0.89909   0.8701     S
O       0.2183  0.03515   0.2052     O
O       0.2183  0.03515   0.7948     O
O       0.2183   0.2052  0.46485     O
O       0.2183   0.2052  0.53515     O
O       0.2183   0.2948  0.03515     O
O       0.2183   0.2948  0.96485     O
O       0.2183  0.46485   0.2948     O
O       0.2183  0.46485   0.7052     O
O       0.2183  0.53515   0.2948     O
O       0.2183  0.53515   0.7052     O
O       0.2183   0.7052  0.03515     O
O       0.2183   0.7052  0.96485     O
O       0.2183   0.7948  0.46485     O
O       0.2183   0.7948  0.53515     O
O       0.2183  0.96485   0.2052     O
O       0.2183  0.96485   0.7948     O
C      0.22254  0.04892  0.17652     C
C      0.22254  0.04892  0.82348     C
C      0.22254  0.17652  0.45108     C
C      0.22254  0.17652  0.54892     C
C      0.22254  0.32348  0.04892     C
C      0.22254  0.32348  0.95108     C
C      0.22254  0.45108  0.32348     C
C      0.22254  0.45108  0.67652     C
C      0.22254  0.54892  0.32348     C
C      0.22254  0.54892  0.67652     C
C      0.22254  0.67652  0.04892     C
C      0.22254  0.67652  0.95108     C
C      0.22254  0.82348  0.45108     C
C      0.22254  0.82348  0.54892     C
C      0.22254  0.95108  0.17652     C
C      0.22254  0.95108  0.82348     C
Mn     0.22837      0.0  0.31614    Mn
Mn     0.22837      0.0  0.68386    Mn
Mn     0.22837  0.18386      0.0    Mn
Mn     0.22837  0.31614      0.5    Mn
Mn     0.22837      0.5  0.18386    Mn
Mn     0.22837      0.5  0.81614    Mn
Mn     0.22837  0.68386      0.5    Mn
Mn     0.22837  0.81614      0.0    Mn
O      0.24589  0.04092  0.15596     O
O      0.24589  0.04092  0.84404     O
O      0.24589  0.15596  0.45908     O
O      0.24589  0.15596  0.54092     O
O      0.24589  0.34404  0.04092     O
O      0.24589  0.34404  0.95908     O
O      0.24589  0.45908  0.34404     O
O      0.24589  0.45908  0.65596     O
O      0.24589  0.54092  0.34404     O
O      0.24589  0.54092  0.65596     O
O      0.24589  0.65596  0.04092     O
O      0.24589  0.65596  0.95908     O
O      0.24589  0.84404  0.45908     O
O      0.24589  0.84404  0.54092     O
O      0.24589  0.95908  0.15596     O
O      0.24589  0.95908  0.84404     O
O      0.25411  0.04092  0.34404     O
O      0.25411  0.04092  0.65596     O
O      0.25411  0.15596  0.04092     O
O      0.25411  0.15596  0.95908     O
O      0.25411  0.34404  0.45908     O
O      0.25411  0.34404  0.54092     O
O      0.25411  0.45908  0.15596     O
O      0.25411  0.45908  0.84404     O
O      0.25411  0.54092  0.15596     O
O      0.25411  0.54092  0.84404     O
O      0.25411  0.65596  0.45908     O
O      0.25411  0.65596  0.54092     O
O      0.25411  0.84404  0.04092     O
O      0.25411  0.84404  0.95908     O
O      0.25411  0.95908  0.34404     O
O      0.25411  0.95908  0.65596     O
Mn     0.27163      0.0  0.18386    Mn
Mn     0.27163      0.0  0.81614    Mn
Mn     0.27163  0.18386      0.5    Mn
Mn     0.27163  0.31614      0.0    Mn
Mn     0.27163      0.5  0.31614    Mn
Mn     0.27163      0.5  0.68386    Mn
Mn     0.27163  0.68386      0.0    Mn
Mn     0.27163  0.81614      0.5    Mn
C      0.27746  0.04892  0.32348     C
C      0.27746  0.04892  0.67652     C
C      0.27746  0.17652  0.04892     C
C      0.27746  0.17652  0.95108     C
C      0.27746  0.32348  0.45108     C
C      0.27746  0.32348  0.54892     C
C      0.27746  0.45108  0.17652     C
C      0.27746  0.45108  0.82348     C
C      0.27746  0.54892  0.17652     C
C      0.27746  0.54892  0.82348     C
C      0.27746  0.67652  0.45108     C
C      0.27746  0.67652  0.54892     C
C      0.27746  0.82348  0.04892     C
C      0.27746  0.82348  0.95108     C
C      0.27746  0.95108  0.32348     C
C      0.27746  0.95108  0.67652     C
O       0.2817  0.03515   0.2948     O
O       0.2817  0.03515   0.7052     O
O       0.2817   0.2052  0.03515     O
O       0.2817   0.2052  0.96485     O
O       0.2817   0.2948  0.46485     O
O       0.2817   0.2948  0.53515     O
O       0.2817  0.46485   0.2052     O
O       0.2817  0.46485   0.7948     O
O       0.2817  0.53515   0.2052     O
O       0.2817  0.53515   0.7948     O
O       0.2817   0.7052  0.46485     O
O       0.2817   0.7052  0.53515     O
O       0.2817   0.7948  0.03515     O
O       0.2817   0.7948  0.96485     O
O       0.2817  0.96485   0.2948     O
O       0.2817  0.96485   0.7052     O
S      0.29064  0.10091   0.3701     S
S      0.29064  0.10091   0.6299     S
S      0.29064   0.1299  0.10091     S
S      0.29064   0.1299  0.89909     S
S      0.29064   0.3701  0.39909     S
S      0.29064   0.3701  0.60091     S
S      0.29064  0.39909   0.1299     S
S      0.29064  0.39909   0.8701     S
S      0.29064  0.60091   0.1299     S
S      0.29064  0.60091   0.8701     S
S      0.29064   0.6299  0.39909     S
S      0.29064   0.6299  0.60091     S
S      0.29064   0.8701  0.10091     S
S      0.29064   0.8701  0.89909     S
S      0.29064  0.89909   0.3701     S
S      0.29064  0.89909   0.6299     S
H       0.2941   0.0791   0.1618     H
H       0.2941   0.0791   0.8382     H
H       0.2941   0.1618   0.4209     H
H       0.2941   0.1618   0.5791     H
H       0.2941   0.3382   0.0791     H
H       0.2941   0.3382   0.9209     H
H       0.2941   0.4209   0.3382     H
H       0.2941   0.4209   0.6618     H
H       0.2941   0.5791   0.3382     H
H       0.2941   0.5791   0.6618     H
H       0.2941   0.6618   0.0791     H
H       0.2941   0.6618   0.9209     H
H       0.2941   0.8382   0.4209     H
H       0.2941   0.8382   0.5791     H
H       0.2941   0.9209   0.1618     H
H       0.2941   0.9209   0.8382     H
O       0.2948  0.03515   0.2183     O
O       0.2948  0.03515   0.7817     O
O       0.2948   0.2183  0.46485     O
O       0.2948   0.2183  0.53515     O
O       0.2948   0.2817  0.03515     O
O       0.2948   0.2817  0.96485     O
O       0.2948  0.46485   0.2817     O
O       0.2948  0.46485   0.7183     O
O       0.2948  0.53515   0.2817     O
O       0.2948  0.53515   0.7183     O
O       0.2948   0.7183  0.03515     O
O       0.2948   0.7183  0.96485     O
O       0.2948   0.7817  0.46485     O
O       0.2948   0.7817  0.53515     O
O       0.2948  0.96485   0.2183     O
O       0.2948  0.96485   0.7817     O
C      0.30008  0.07756  0.33348     C
C      0.30008  0.07756  0.66652     C
C      0.30008  0.16652  0.07756     C
C      0.30008  0.16652  0.92244     C
C      0.30008  0.33348  0.42244     C
C      0.30008  0.33348  0.57756     C
C      0.30008  0.42244  0.16652     C
C      0.30008  0.42244  0.83348     C
C      0.30008  0.57756  0.16652     C
C      0.30008  0.57756  0.83348     C
C      0.30008  0.66652  0.42244     C
C      0.30008  0.66652  0.57756     C
C      0.30008  0.83348  0.07756     C
C      0.30008  0.83348  0.92244     C
C      0.30008  0.92244  0.33348     C
C      0.30008  0.92244  0.66652     C
C      0.31455  0.08877  0.17043     C
C      0.31455  0.08877  0.82957     C
C      0.31455  0.17043  0.41123     C
C      0.31455  0.17043  0.58877     C
C      0.31455  0.32957  0.08877     C
C      0.31455  0.32957  0.91123     C
C      0.31455  0.41123  0.32957     C
C      0.31455  0.41123  0.67043     C
C      0.31455  0.58877  0.32957     C
C      0.31455  0.58877  0.67043     C
C      0.31455  0.67043  0.08877     C
C      0.31455  0.67043  0.91123     C
C      0.31455  0.82957  0.41123     C
C      0.31455  0.82957  0.58877     C
C      0.31455  0.91123  0.17043     C
C      0.31455  0.91123  0.82957     C
Mn     0.31614      0.0  0.27163    Mn
Mn     0.31614      0.0  0.72837    Mn
Mn     0.31614  0.22837      0.0    Mn
Mn     0.31614  0.27163      0.5    Mn
Mn     0.31614      0.5  0.22837    Mn
Mn     0.31614      0.5  0.77163    Mn
Mn     0.31614  0.72837      0.5    Mn
Mn     0.31614  0.77163      0.0    Mn
C      0.32348  0.04892  0.22254     C
C      0.32348  0.04892  0.77746     C
C      0.32348  0.22254  0.45108     C
C      0.32348  0.22254  0.54892     C
C      0.32348  0.27746  0.04892     C
C      0.32348  0.27746  0.95108     C
C      0.32348  0.45108  0.27746     C
C      0.32348  0.45108  0.72254     C
C      0.32348  0.54892  0.27746     C
C      0.32348  0.54892  0.72254     C
C      0.32348  0.72254  0.04892     C
C      0.32348  0.72254  0.95108     C
C      0.32348  0.77746  0.45108     C
C      0.32348  0.77746  0.54892     C
C      0.32348  0.95108  0.22254     C
C      0.32348  0.95108  0.77746     C
C      0.32453  0.12744   0.3623     C
C      0.32453  0.12744   0.6377     C
C      0.32453   0.1377  0.12744     C
C      0.32453   0.1377  0.87256     C
C      0.32453   0.3623  0.37256     C
C      0.32453   0.3623  0.62744     C
C      0.32453  0.37256   0.1377     C
C      0.32453  0.37256   0.8623     C
C      0.32453  0.62744   0.1377     C
C      0.32453  0.62744   0.8623     C
C      0.32453   0.6377  0.37256     C
C      0.32453   0.6377  0.62744     C
C      0.32453   0.8623  0.12744     C
C      0.32453   0.8623  0.87256     C
C      0.32453  0.87256   0.3623     C
C      0.32453  0.87256   0.6377     C
C      0.32957  0.08877  0.31455     C
C      0.32957  0.08877  0.68545     C
C      0.32957  0.18545  0.08877     C
C      0.32957  0.18545  0.91123     C
C      0.32957  0.31455  0.41123     C
C      0.32957  0.31455  0.58877     C
C      0.32957  0.41123  0.18545     C
C      0.32957  0.41123  0.81455     C
C      0.32957  0.58877  0.18545     C
C      0.32957  0.58877  0.81455     C
C      0.32957  0.68545  0.41123     C
C      0.32957  0.68545  0.58877     C
C      0.32957  0.81455  0.08877     C
C      0.32957  0.81455  0.91123     C
C      0.32957  0.91123  0.31455     C
C      0.32957  0.91123  0.68545     C
C       0.3333  0.11814  0.15646     C
C       0.3333  0.11814  0.84354     C
C       0.3333  0.15646  0.38186     C
C       0.3333  0.15646  0.61814     C
C       0.3333  0.34354  0.11814     C
C       0.3333  0.34354  0.88186     C
C       0.3333  0.38186  0.34354     C
C       0.3333  0.38186  0.65646     C
C       0.3333  0.61814  0.34354     C
C       0.3333  0.61814  0.65646     C
C       0.3333  0.65646  0.11814     C
C       0.3333  0.65646  0.88186     C
C       0.3333  0.84354  0.38186     C
C       0.3333  0.84354  0.61814     C
C       0.3333  0.88186  0.15646     C
C       0.3333  0.88186  0.84354     C
C      0.33348  0.07756  0.19992     C
C      0.33348  0.07756  0.80008     C
C      0.33348  0.19992  0.42244     C
C      0.33348  0.19992  0.57756     C
C      0.33348  0.30008  0.07756     C
C      0.33348  0.30008  0.92244     C
C      0.33348  0.42244  0.30008     C
C      0.33348  0.42244  0.69992     C
C      0.33348  0.57756  0.30008     C
C      0.33348  0.57756  0.69992     C
C      0.33348  0.69992  0.07756     C
C      0.33348  0.69992  0.92244     C
C      0.33348  0.80008  0.42244     C
C      0.33348  0.80008  0.57756     C
C      0.33348  0.92244  0.19992     C
C      0.33348  0.92244  0.80008     C
H       0.3382   0.0791   0.2941     H
H       0.3382   0.0791   0.7059     H
H       0.3382   0.2059   0.0791     H
H       0.3382   0.2059   0.9209     H
H       0.3382   0.2941   0.4209     H
H       0.3382   0.2941   0.5791     H
H       0.3382   0.4209   0.2059     H
H       0.3382   0.4209   0.7941     H
H       0.3382   0.5791   0.2059     H
H       0.3382   0.5791   0.7941     H
H       0.3382   0.7059   0.4209     H
H       0.3382   0.7059   0.5791     H
H       0.3382   0.7941   0.0791     H
H       0.3382   0.7941   0.9209     H
H       0.3382   0.9209   0.2941     H
H       0.3382   0.9209   0.7059     H
C      0.34354  0.11814   0.3333     C
C      0.34354  0.11814   0.6667     C
C      0.34354   0.1667  0.11814     C
C      0.34354   0.1667  0.88186     C
C      0.34354   0.3333  0.38186     C
C      0.34354   0.3333  0.61814     C
C      0.34354  0.38186   0.1667     C
C      0.34354  0.38186   0.8333     C
C      0.34354  0.61814   0.1667     C
C      0.34354  0.61814   0.8333     C
C      0.34354   0.6667  0.38186     C
C      0.34354   0.6667  0.61814     C
C      0.34354   0.8333  0.11814     C
C      0.34354   0.8333  0.88186     C
C      0.34354  0.88186   0.3333     C
C      0.34354  0.88186   0.6667     C
O      0.34404  0.04092  0.24589     O
O      0.34404  0.04092  0.75411     O
O      0.34404  0.24589  0.45908     O
O      0.34404  0.24589  0.54092     O
O      0.34404  0.25411  0.04092     O
O      0.34404  0.25411  0.95908     O
O      0.34404  0.45908  0.25411     O
O      0.34404  0.45908  0.74589     O
O      0.34404  0.54092  0.25411     O
O      0.34404  0.54092  0.74589     O
O      0.34404  0.74589  0.04092     O
O      0.34404  0.74589  0.95908     O
O      0.34404  0.75411  0.45908     O
O      0.34404  0.75411  0.54092     O
O      0.34404  0.95908  0.24589     O
O      0.34404  0.95908  0.75411     O
C       0.3623  0.12744  0.17547     C
C       0.3623  0.12744  0.82453     C
C       0.3623  0.17547  0.37256     C
C       0.3623  0.17547  0.62744     C
C       0.3623  0.32453  0.12744     C
C       0.3623  0.32453  0.87256     C
C       0.3623  0.37256  0.32453     C
C       0.3623  0.37256  0.67547     C
C       0.3623  0.62744  0.32453     C
C       0.3623  0.62744  0.67547     C
C       0.3623  0.67547  0.12744     C
C       0.3623  0.67547  0.87256     C
C       0.3623  0.82453  0.37256     C
C       0.3623  0.82453  0.62744     C
C       0.3623  0.87256  0.17547     C
C       0.3623  0.87256  0.82453     C
S       0.3701  0.10091  0.20936     S
S       0.3701  0.10091  0.79064     S
S       0.3701  0.20936  0.39909     S
S       0.3701  0.20936  0.60091     S
S       0.3701  0.29064  0.10091     S
S       0.3701  0.29064  0.89909     S
S       0.3701  0.39909  0.29064     S
S       0.3701  0.39909  0.70936     S
S       0.3701  0.60091  0.29064     S
S       0.3701  0.60091  0.70936     S
S       0.3701  0.70936  0.10091     S
S       0.3701  0.70936  0.89909     S
S       0.3701  0.79064  0.39909     S
S       0.3701  0.79064  0.60091     S
S       0.3701  0.89909  0.20936     S
S       0.3701  0.89909  0.79064     S
C      0.37256   0.1377  0.32453     C
C      0.37256   0.1377  0.67547     C
C      0.37256  0.17547   0.1377     C
C      0.37256  0.17547   0.8623     C
C      0.37256  0.32453   0.3623     C
C      0.37256  0.32453   0.6377     C
C      0.37256   0.3623  0.17547     C
C      0.37256   0.3623  0.82453     C
C      0.37256   0.6377  0.17547     C
C      0.37256   0.6377  0.82453     C
C      0.37256  0.67547   0.3623     C
C      0.37256  0.67547   0.6377     C
C      0.37256  0.82453   0.1377     C
C      0.37256  0.82453   0.8623     C
C      0.37256   0.8623  0.32453     C
C      0.37256   0.8623  0.67547     C
C      0.38186  0.15646   0.1667     C
C      0.38186  0.15646   0.8333     C
C      0.38186   0.1667  0.34354     C
C      0.38186   0.1667  0.65646     C
C      0.38186   0.3333  0.15646     C
C      0.38186   0.3333  0.84354     C
C      0.38186  0.34354   0.3333     C
C      0.38186  0.34354   0.6667     C
C      0.38186  0.65646   0.3333     C
C      0.38186  0.65646   0.6667     C
C      0.38186   0.6667  0.15646     C
C      0.38186   0.6667  0.84354     C
C      0.38186   0.8333  0.34354     C
C      0.38186   0.8333  0.65646     C
C      0.38186  0.84354   0.1667     C
C      0.38186  0.84354   0.8333     C
S      0.39909   0.1299  0.29064     S
S      0.39909   0.1299  0.70936     S
S      0.39909  0.20936   0.1299     S
S      0.39909  0.20936   0.8701     S
S      0.39909  0.29064   0.3701     S
S      0.39909  0.29064   0.6299     S
S      0.39909   0.3701  0.20936     S
S      0.39909   0.3701  0.79064     S
S      0.39909   0.6299  0.20936     S
S      0.39909   0.6299  0.79064     S
S      0.39909  0.70936   0.3701     S
S      0.39909  0.70936   0.6299     S
S      0.39909  0.79064   0.1299     S
S      0.39909  0.79064   0.8701     S
S      0.39909   0.8701  0.29064     S
S      0.39909   0.8701  0.70936     S
C      0.41123  0.17043  0.18545     C
C      0.41123  0.17043  0.81455     C
C      0.41123  0.18545  0.32957     C
C      0.41123  0.18545  0.67043     C
C      0.41123  0.31455  0.17043     C
C      0.41123  0.31455  0.82957     C
C      0.41123  0.32957  0.31455     C
C      0.41123  0.32957  0.68545     C
C      0.41123  0.67043  0.31455     C
C      0.41123  0.67043  0.68545     C
C      0.41123  0.68545  0.17043     C
C      0.41123  0.68545  0.82957     C
C      0.41123  0.81455  0.32957     C
C      0.41123  0.81455  0.67043     C
C      0.41123  0.82957  0.18545     C
C      0.41123  0.82957  0.81455     C
H       0.4209   0.1618   0.2059     H
H       0.4209   0.1618   0.7941     H
H       0.4209   0.2059   0.3382     H
H       0.4209   0.2059   0.6618     H
H       0.4209   0.2941   0.1618     H
H       0.4209   0.2941   0.8382     H
H       0.4209   0.3382   0.2941     H
H       0.4209   0.3382   0.7059     H
H       0.4209   0.6618   0.2941     H
H       0.4209   0.6618   0.7059     H
H       0.4209   0.7059   0.1618     H
H       0.4209   0.7059   0.8382     H
H       0.4209   0.7941   0.3382     H
H       0.4209   0.7941   0.6618     H
H       0.4209   0.8382   0.2059     H
H       0.4209   0.8382   0.7941     H
C      0.42244  0.16652  0.30008     C
C      0.42244  0.16652  0.69992     C
C      0.42244  0.19992  0.16652     C
C      0.42244  0.19992  0.83348     C
C      0.42244  0.30008  0.33348     C
C      0.42244  0.30008  0.66652     C
C      0.42244  0.33348  0.19992     C
C      0.42244  0.33348  0.80008     C
C      0.42244  0.66652  0.19992     C
C      0.42244  0.66652  0.80008     C
C      0.42244  0.69992  0.33348     C
C      0.42244  0.69992  0.66652     C
C      0.42244  0.80008  0.16652     C
C      0.42244  0.80008  0.83348     C
C      0.42244  0.83348  0.30008     C
C      0.42244  0.83348  0.69992     C
C      0.45108  0.17652  0.27746     C
C      0.45108  0.17652  0.72254     C
C      0.45108  0.22254  0.17652     C
C      0.45108  0.22254  0.82348     C
C      0.45108  0.27746  0.32348     C
C      0.45108  0.27746  0.67652     C
C      0.45108  0.32348  0.22254     C
C      0.45108  0.32348  0.77746     C
C      0.45108  0.67652  0.22254     C
C      0.45108  0.67652  0.77746     C
C      0.45108  0.72254  0.32348     C
C      0.45108  0.72254  0.67652     C
C      0.45108  0.77746  0.17652     C
C      0.45108  0.77746  0.82348     C
C      0.45108  0.82348  0.27746     C
C      0.45108  0.82348  0.72254     C
O      0.45908  0.15596  0.25411     O
O      0.45908  0.15596  0.74589     O
O      0.45908  0.24589  0.15596     O
O      0.45908  0.24589  0.84404     O
O      0.45908  0.25411  0.34404     O
O      0.45908  0.25411  0.65596     O
O      0.45908  0.34404  0.24589     O
O      0.45908  0.34404  0.75411     O
O      0.45908  0.65596  0.24589     O
O      0.45908  0.65596  0.75411     O
O      0.45908  0.74589  0.34404     O
O      0.45908  0.74589  0.65596     O
O      0.45908  0.75411  0.15596     O
O      0.45908  0.75411  0.84404     O
O      0.45908  0.84404  0.25411     O
O      0.45908  0.84404  0.74589     O
O      0.46485   0.2052   0.2817     O
O      0.46485   0.2052   0.7183     O
O      0.46485   0.2183   0.2052     O
O      0.46485   0.2183   0.7948     O
O      0.46485   0.2817   0.2948     O
O      0.46485   0.2817   0.7052     O
O      0.46485   0.2948   0.2183     O
O      0.46485   0.2948   0.7817     O
O      0.46485   0.7052   0.2183     O
O      0.46485   0.7052   0.7817     O
O      0.46485   0.7183   0.2948     O
O      0.46485   0.7183   0.7052     O
O      0.46485   0.7817   0.2052     O
O      0.46485   0.7817   0.7948     O
O      0.46485   0.7948   0.2817     O
O      0.46485   0.7948   0.7183     O
Mn         0.5  0.18386  0.22837    Mn
Mn         0.5  0.18386  0.77163    Mn
Mn         0.5  0.22837  0.31614    Mn
Mn         0.5  0.22837  0.68386    Mn
Mn         0.5  0.27163  0.18386    Mn
Mn         0.5  0.27163  0.81614    Mn
Mn         0.5  0.31614  0.27163    Mn
Mn         0.5  0.31614  0.72837    Mn
Mn         0.5  0.68386  0.27163    Mn
Mn         0.5  0.68386  0.72837    Mn
Mn         0.5  0.72837  0.18386    Mn
Mn         0.5  0.72837  0.81614    Mn
Mn         0.5  0.77163  0.31614    Mn
Mn         0.5  0.77163  0.68386    Mn
Mn         0.5  0.81614  0.22837    Mn
Mn         0.5  0.81614  0.77163    Mn
O      0.53515   0.2052   0.2817     O
O      0.53515   0.2052   0.7183     O
O      0.53515   0.2183   0.2052     O
O      0.53515   0.2183   0.7948     O
O      0.53515   0.2817   0.2948     O
O      0.53515   0.2817   0.7052     O
O      0.53515   0.2948   0.2183     O
O      0.53515   0.2948   0.7817     O
O      0.53515   0.7052   0.2183     O
O      0.53515   0.7052   0.7817     O
O      0.53515   0.7183   0.2948     O
O      0.53515   0.7183   0.7052     O
O      0.53515   0.7817   0.2052     O
O      0.53515   0.7817   0.7948     O
O      0.53515   0.7948   0.2817     O
O      0.53515   0.7948   0.7183     O
O      0.54092  0.15596  0.25411     O
O      0.54092  0.15596  0.74589     O
O      0.54092  0.24589  0.15596     O
O      0.54092  0.24589  0.84404     O
O      0.54092  0.25411  0.34404     O
O      0.54092  0.25411  0.65596     O
O      0.54092  0.34404  0.24589     O
O      0.54092  0.34404  0.75411     O
O      0.54092  0.65596  0.24589     O
O      0.54092  0.65596  0.75411     O
O      0.54092  0.74589  0.34404     O
O      0.54092  0.74589  0.65596     O
O      0.54092  0.75411  0.15596     O
O      0.54092  0.75411  0.84404     O
O      0.54092  0.84404  0.25411     O
O      0.54092  0.84404  0.74589     O
C      0.54892  0.17652  0.27746     C
C      0.54892  0.17652  0.72254     C
C      0.54892  0.22254  0.17652     C
C      0.54892  0.22254  0.82348     C
C      0.54892  0.27746  0.32348     C
C      0.54892  0.27746  0.67652     C
C      0.54892  0.32348  0.22254     C
C      0.54892  0.32348  0.77746     C
C      0.54892  0.67652  0.22254     C
C      0.54892  0.67652  0.77746     C
C      0.54892  0.72254  0.32348     C
C      0.54892  0.72254  0.67652     C
C      0.54892  0.77746  0.17652     C
C      0.54892  0.77746  0.82348     C
C      0.54892  0.82348  0.27746     C
C      0.54892  0.82348  0.72254     C
C      0.57756  0.16652  0.30008     C
C      0.57756  0.16652  0.69992     C
C      0.57756  0.19992  0.16652     C
C      0.57756  0.19992  0.83348     C
C      0.57756  0.30008  0.33348     C
C      0.57756  0.30008  0.66652     C
C      0.57756  0.33348  0.19992     C
C      0.57756  0.33348  0.80008     C
C      0.57756  0.66652  0.19992     C
C      0.57756  0.66652  0.80008     C
C      0.57756  0.69992  0.33348     C
C      0.57756  0.69992  0.66652     C
C      0.57756  0.80008  0.16652     C
C      0.57756  0.80008  0.83348     C
C      0.57756  0.83348  0.30008     C
C      0.57756  0.83348  0.69992     C
H       0.5791   0.1618   0.2059     H
H       0.5791   0.1618   0.7941     H
H       0.5791   0.2059   0.3382     H
H       0.5791   0.2059   0.6618     H
H       0.5791   0.2941   0.1618     H
H       0.5791   0.2941   0.8382     H
H       0.5791   0.3382   0.2941     H
H       0.5791   0.3382   0.7059     H
H       0.5791   0.6618   0.2941     H
H       0.5791   0.6618   0.7059     H
H       0.5791   0.7059   0.1618     H
H       0.5791   0.7059   0.8382     H
H       0.5791   0.7941   0.3382     H
H       0.5791   0.7941   0.6618     H
H       0.5791   0.8382   0.2059     H
H       0.5791   0.8382   0.7941     H
C      0.58877  0.17043  0.18545     C
C      0.58877  0.17043  0.81455     C
C      0.58877  0.18545  0.32957     C
C      0.58877  0.18545  0.67043     C
C      0.58877  0.31455  0.17043     C
C      0.58877  0.31455  0.82957     C
C      0.58877  0.32957  0.31455     C
C      0.58877  0.32957  0.68545     C
C      0.58877  0.67043  0.31455     C
C      0.58877  0.67043  0.68545     C
C      0.58877  0.68545  0.17043     C
C      0.58877  0.68545  0.82957     C
C      0.58877  0.81455  0.32957     C
C      0.58877  0.81455  0.67043     C
C      0.58877  0.82957  0.18545     C
C      0.58877  0.82957  0.81455     C
S      0.60091   0.1299  0.29064     S
S      0.60091   0.1299  0.70936     S
S      0.60091  0.20936   0.1299     S
S      0.60091  0.20936   0.8701     S
S      0.60091  0.29064   0.3701     S
S      0.60091  0.29064   0.6299     S
S      0.60091   0.3701  0.20936     S
S      0.60091   0.3701  0.79064     S
S      0.60091   0.6299  0.20936     S
S      0.60091   0.6299  0.79064     S
S      0.60091  0.70936   0.3701     S
S      0.60091  0.70936   0.6299     S
S      0.60091  0.79064   0.1299     S
S      0.60091  0.79064   0.8701     S
S      0.60091   0.8701  0.29064     S
S      0.60091   0.8701  0.70936     S
C      0.61814  0.15646   0.1667     C
C      0.61814  0.15646   0.8333     C
C      0.61814   0.1667  0.34354     C
C      0.61814   0.1667  0.65646     C
C      0.61814   0.3333  0.15646     C
C      0.61814   0.3333  0.84354     C
C      0.61814  0.34354   0.3333     C
C      0.61814  0.34354   0.6667     C
C      0.61814  0.65646   0.3333     C
C      0.61814  0.65646   0.6667     C
C      0.61814   0.6667  0.15646     C
C      0.61814   0.6667  0.84354     C
C      0.61814   0.8333  0.34354     C
C      0.61814   0.8333  0.65646     C
C      0.61814  0.84354   0.1667     C
C      0.61814  0.84354   0.8333     C
C      0.62744   0.1377  0.32453     C
C      0.62744   0.1377  0.67547     C
C      0.62744  0.17547   0.1377     C
C      0.62744  0.17547   0.8623     C
C      0.62744  0.32453   0.3623     C
C      0.62744  0.32453   0.6377     C
C      0.62744   0.3623  0.17547     C
C      0.62744   0.3623  0.82453     C
C      0.62744   0.6377  0.17547     C
C      0.62744   0.6377  0.82453     C
C      0.62744  0.67547   0.3623     C
C      0.62744  0.67547   0.6377     C
C      0.62744  0.82453   0.1377     C
C      0.62744  0.82453   0.8623     C
C      0.62744   0.8623  0.32453     C
C      0.62744   0.8623  0.67547     C
S       0.6299  0.10091  0.20936     S
S       0.6299  0.10091  0.79064     S
S       0.6299  0.20936  0.39909     S
S       0.6299  0.20936  0.60091     S
S       0.6299  0.29064  0.10091     S
S       0.6299  0.29064  0.89909     S
S       0.6299  0.39909  0.29064     S
S       0.6299  0.39909  0.70936     S
S       0.6299  0.60091  0.29064     S
S       0.6299  0.60091  0.70936     S
S       0.6299  0.70936  0.10091     S
S       0.6299  0.70936  0.89909     S
S       0.6299  0.79064  0.39909     S
S       0.6299  0.79064  0.60091     S
S       0.6299  0.89909  0.20936     S
S       0.6299  0.89909  0.79064     S
C       0.6377  0.12744  0.17547     C
C       0.6377  0.12744  0.82453     C
C       0.6377  0.17547  0.37256     C
C       0.6377  0.17547  0.62744     C
C       0.6377  0.32453  0.12744     C
C       0.6377  0.32453  0.87256     C
C       0.6377  0.37256  0.32453     C
C       0.6377  0.37256  0.67547     C
C       0.6377  0.62744  0.32453     C
C       0.6377  0.62744  0.67547     C
C       0.6377  0.67547  0.12744     C
C       0.6377  0.67547  0.87256     C
C       0.6377  0.82453  0.37256     C
C       0.6377  0.82453  0.62744     C
C       0.6377  0.87256  0.17547     C
C       0.6377  0.87256  0.82453     C
O      0.65596  0.04092  0.24589     O
O      0.65596  0.04092  0.75411     O
O      0.65596  0.24589  0.45908     O
O      0.65596  0.24589  0.54092     O
O      0.65596  0.25411  0.04092     O
O      0.65596  0.25411  0.95908     O
O      0.65596  0.45908  0.25411     O
O      0.65596  0.45908  0.74589     O
O      0.65596  0.54092  0.25411     O
O      0.65596  0.54092  0.74589     O
O      0.65596  0.74589  0.04092     O
O      0.65596  0.74589  0.95908     O
O      0.65596  0.75411  0.45908     O
O      0.65596  0.75411  0.54092     O
O      0.65596  0.95908  0.24589     O
O      0.65596  0.95908  0.75411     O
C      0.65646  0.11814   0.3333     C
C      0.65646  0.11814   0.6667     C
C      0.65646   0.1667  0.11814     C
C      0.65646   0.1667  0.88186     C
C      0.65646   0.3333  0.38186     C
C      0.65646   0.3333  0.61814     C
C      0.65646  0.38186   0.1667     C
C      0.65646  0.38186   0.8333     C
C      0.65646  0.61814   0.1667     C
C      0.65646  0.61814   0.8333     C
C      0.65646   0.6667  0.38186     C
C      0.65646   0.6667  0.61814     C
C      0.65646   0.8333  0.11814     C
C      0.65646   0.8333  0.88186     C
C      0.65646  0.88186   0.3333     C
C      0.65646  0.88186   0.6667     C
H       0.6618   0.0791   0.2941     H
H       0.6618   0.0791   0.7059     H
H       0.6618   0.2059   0.0791     H
H       0.6618   0.2059   0.9209     H
H       0.6618   0.2941   0.4209     H
H       0.6618   0.2941   0.5791     H
H       0.6618   0.4209   0.2059     H
H       0.6618   0.4209   0.7941     H
H       0.6618   0.5791   0.2059     H
H       0.6618   0.5791   0.7941     H
H       0.6618   0.7059   0.4209     H
H       0.6618   0.7059   0.5791     H
H       0.6618   0.7941   0.0791     H
H       0.6618   0.7941   0.9209     H
H       0.6618   0.9209   0.2941     H
H       0.6618   0.9209   0.7059     H
C      0.66652  0.07756  0.19992     C
C      0.66652  0.07756  0.80008     C
C      0.66652  0.19992  0.42244     C
C      0.66652  0.19992  0.57756     C
C      0.66652  0.30008  0.07756     C
C      0.66652  0.30008  0.92244     C
C      0.66652  0.42244  0.30008     C
C      0.66652  0.42244  0.69992     C
C      0.66652  0.57756  0.30008     C
C      0.66652  0.57756  0.69992     C
C      0.66652  0.69992  0.07756     C
C      0.66652  0.69992  0.92244     C
C      0.66652  0.80008  0.42244     C
C      0.66652  0.80008  0.57756     C
C      0.66652  0.92244  0.19992     C
C      0.66652  0.92244  0.80008     C
C       0.6667  0.11814  0.15646     C
C       0.6667  0.11814  0.84354     C
C       0.6667  0.15646  0.38186     C
C       0.6667  0.15646  0.61814     C
C       0.6667  0.34354  0.11814     C
C       0.6667  0.34354  0.88186     C
C       0.6667  0.38186  0.34354     C
C       0.6667  0.38186  0.65646     C
C       0.6667  0.61814  0.34354     C
C       0.6667  0.61814  0.65646     C
C       0.6667  0.65646  0.11814     C
C       0.6667  0.65646  0.88186     C
C       0.6667  0.84354  0.38186     C
C       0.6667  0.84354  0.61814     C
C       0.6667  0.88186  0.15646     C
C       0.6667  0.88186  0.84354     C
C      0.67043  0.08877  0.31455     C
C      0.67043  0.08877  0.68545     C
C      0.67043  0.18545  0.08877     C
C      0.67043  0.18545  0.91123     C
C      0.67043  0.31455  0.41123     C
C      0.67043  0.31455  0.58877     C
C      0.67043  0.41123  0.18545     C
C      0.67043  0.41123  0.81455     C
C      0.67043  0.58877  0.18545     C
C      0.67043  0.58877  0.81455     C
C      0.67043  0.68545  0.41123     C
C      0.67043  0.68545  0.58877     C
C      0.67043  0.81455  0.08877     C
C      0.67043  0.81455  0.91123     C
C      0.67043  0.91123  0.31455     C
C      0.67043  0.91123  0.68545     C
C      0.67547  0.12744   0.3623     C
C      0.67547  0.12744   0.6377     C
C      0.67547   0.1377  0.12744     C
C      0.67547   0.1377  0.87256     C
C      0.67547   0.3623  0.37256     C
C      0.67547   0.3623  0.62744     C
C      0.67547  0.37256   0.1377     C
C      0.67547  0.37256   0.8623     C
C      0.67547  0.62744   0.1377     C
C      0.67547  0.62744   0.8623     C
C      0.67547   0.6377  0.37256     C
C      0.67547   0.6377  0.62744     C
C      0.67547   0.8623  0.12744     C
C      0.67547   0.8623  0.87256     C
C      0.67547  0.87256   0.3623     C
C      0.67547  0.87256   0.6377     C
C      0.67652  0.04892  0.22254     C
C      0.67652  0.04892  0.77746     C
C      0.67652  0.22254  0.45108     C
C      0.67652  0.22254  0.54892     C
C      0.67652  0.27746  0.04892     C
C      0.67652  0.27746  0.95108     C
C      0.67652  0.45108  0.27746     C
C      0.67652  0.45108  0.72254     C
C      0.67652  0.54892  0.27746     C
C      0.67652  0.54892  0.72254     C
C      0.67652  0.72254  0.04892     C
C      0.67652  0.72254  0.95108     C
C      0.67652  0.77746  0.45108     C
C      0.67652  0.77746  0.54892     C
C      0.67652  0.95108  0.22254     C
C      0.67652  0.95108  0.77746     C
Mn     0.68386      0.0  0.27163    Mn
Mn     0.68386      0.0  0.72837    Mn
Mn     0.68386  0.22837      0.0    Mn
Mn     0.68386  0.27163      0.5    Mn
Mn     0.68386      0.5  0.22837    Mn
Mn     0.68386      0.5  0.77163    Mn
Mn     0.68386  0.72837      0.5    Mn
Mn     0.68386  0.77163      0.0    Mn
C      0.68545  0.08877  0.17043     C
C      0.68545  0.08877  0.82957     C
C      0.68545  0.17043  0.41123     C
C      0.68545  0.17043  0.58877     C
C      0.68545  0.32957  0.08877     C
C      0.68545  0.32957  0.91123     C
C      0.68545  0.41123  0.32957     C
C      0.68545  0.41123  0.67043     C
C      0.68545  0.58877  0.32957     C
C      0.68545  0.58877  0.67043     C
C      0.68545  0.67043  0.08877     C
C      0.68545  0.67043  0.91123     C
C      0.68545  0.82957  0.41123     C
C      0.68545  0.82957  0.58877     C
C      0.68545  0.91123  0.17043     C
C      0.68545  0.91123  0.82957     C
C      0.69992  0.07756  0.33348     C
C      0.69992  0.07756  0.66652     C
C      0.69992  0.16652  0.07756     C
C      0.69992  0.16652  0.92244     C
C      0.69992  0.33348  0.42244     C
C      0.69992  0.33348  0.57756     C
C      0.69992  0.42244  0.16652     C
C      0.69992  0.42244  0.83348     C
C      0.69992  0.57756  0.16652     C
C      0.69992  0.57756  0.83348     C
C      0.69992  0.66652  0.42244     C
C      0.69992  0.66652  0.57756     C
C      0.69992  0.83348  0.07756     C
C      0.69992  0.83348  0.92244     C
C      0.69992  0.92244  0.33348     C
C      0.69992  0.92244  0.66652     C
O       0.7052  0.03515   0.2183     O
O       0.7052  0.03515   0.7817     O
O       0.7052   0.2183  0.46485     O
O       0.7052   0.2183  0.53515     O
O       0.7052   0.2817  0.03515     O
O       0.7052   0.2817  0.96485     O
O       0.7052  0.46485   0.2817     O
O       0.7052  0.46485   0.7183     O
O       0.7052  0.53515   0.2817     O
O       0.7052  0.53515   0.7183     O
O       0.7052   0.7183  0.03515     O
O       0.7052   0.7183  0.96485     O
O       0.7052   0.7817  0.46485     O
O       0.7052   0.7817  0.53515     O
O       0.7052  0.96485   0.2183     O
O       0.7052  0.96485   0.7817     O
H       0.7059   0.0791   0.1618     H
H       0.7059   0.0791   0.8382     H
H       0.7059   0.1618   0.4209     H
H       0.7059   0.1618   0.5791     H
H       0.7059   0.3382   0.0791     H
H       0.7059   0.3382   0.9209     H
H       0.7059   0.4209   0.3382     H
H       0.7059   0.4209   0.6618     H
H       0.7059   0.5791   0.3382     H
H       0.7059   0.5791   0.6618     H
H       0.7059   0.6618   0.0791     H
H       0.7059   0.6618   0.9209     H
H       0.7059   0.8382   0.4209     H
H       0.7059   0.8382   0.5791     H
H       0.7059   0.9209   0.1618     H
H       0.7059   0.9209   0.8382     H
S      0.70936  0.10091   0.3701     S
S      0.70936  0.10091   0.6299     S
S      0.70936   0.1299  0.10091     S
S      0.70936   0.1299  0.89909     S
S      0.70936   0.3701  0.39909     S
S      0.70936   0.3701  0.60091     S
S      0.70936  0.39909   0.1299     S
S      0.70936  0.39909   0.8701     S
S      0.70936  0.60091   0.1299     S
S      0.70936  0.60091   0.8701     S
S      0.70936   0.6299  0.39909     S
S      0.70936   0.6299  0.60091     S
S      0.70936   0.8701  0.10091     S
S      0.70936   0.8701  0.89909     S
S      0.70936  0.89909   0.3701     S
S      0.70936  0.89909   0.6299     S
O       0.7183  0.03515   0.2948     O
O       0.7183  0.03515   0.7052     O
O       0.7183   0.2052  0.03515     O
O       0.7183   0.2052  0.96485     O
O       0.7183   0.2948  0.46485     O
O       0.7183   0.2948  0.53515     O
O       0.7183  0.46485   0.2052     O
O       0.7183  0.46485   0.7948     O
O       0.7183  0.53515   0.2052     O
O       0.7183  0.53515   0.7948     O
O       0.7183   0.7052  0.46485     O
O       0.7183   0.7052  0.53515     O
O       0.7183   0.7948  0.03515     O
O       0.7183   0.7948  0.96485     O
O       0.7183  0.96485   0.2948     O
O       0.7183  0.96485   0.7052     O
C      0.72254  0.04892  0.32348     C
C      0.72254  0.04892  0.67652     C
C      0.72254  0.17652  0.04892     C
C      0.72254  0.17652  0.95108     C
C      0.72254  0.32348  0.45108     C
C      0.72254  0.32348  0.54892     C
C      0.72254  0.45108  0.17652     C
C      0.72254  0.45108  0.82348     C
C      0.72254  0.54892  0.17652     C
C      0.72254  0.54892  0.82348     C
C      0.72254  0.67652  0.45108     C
C      0.72254  0.67652  0.54892     C
C      0.72254  0.82348  0.04892     C
C      0.72254  0.82348  0.95108     C
C      0.72254  0.95108  0.32348     C
C      0.72254  0.95108  0.67652     C
Mn     0.72837      0.0  0.18386    Mn
Mn     0.72837      0.0  0.81614    Mn
Mn     0.72837  0.18386      0.5    Mn
Mn     0.72837  0.31614      0.0    Mn
Mn     0.72837      0.5  0.31614    Mn
Mn     0.72837      0.5  0.68386    Mn
Mn     0.72837  0.68386      0.0    Mn
Mn     0.72837  0.81614      0.5    Mn
O      0.74589  0.04092  0.34404     O
O      0.74589  0.04092  0.65596     O
O      0.74589  0.15596  0.04092     O
O      0.74589  0.15596  0.95908     O
O      0.74589  0.34404  0.45908     O
O      0.74589  0.34404  0.54092     O
O      0.74589  0.45908  0.15596     O
O      0.74589  0.45908  0.84404     O
O      0.74589  0.54092  0.15596     O
O      0.74589  0.54092  0.84404     O
O      0.74589  0.65596  0.45908     O
O      0.74589  0.65596  0.54092     O
O      0.74589  0.84404  0.04092     O
O      0.74589  0.84404  0.95908     O
O      0.74589  0.95908  0.34404     O
O      0.74589  0.95908  0.65596     O
O      0.75411  0.04092  0.15596     O
O      0.75411  0.04092  0.84404     O
O      0.75411  0.15596  0.45908     O
O      0.75411  0.15596  0.54092     O
O      0.75411  0.34404  0.04092     O
O      0.75411  0.34404  0.95908     O
O      0.75411  0.45908  0.34404     O
O      0.75411  0.45908  0.65596     O
O      0.75411  0.54092  0.34404     O
O      0.75411  0.54092  0.65596     O
O      0.75411  0.65596  0.04092     O
O      0.75411  0.65596  0.95908     O
O      0.75411  0.84404  0.45908     O
O      0.75411  0.84404  0.54092     O
O      0.75411  0.95908  0.15596     O
O      0.75411  0.95908  0.84404     O
Mn     0.77163      0.0  0.31614    Mn
Mn     0.77163      0.0  0.68386    Mn
Mn     0.77163  0.18386      0.0    Mn
Mn     0.77163  0.31614      0.5    Mn
Mn     0.77163      0.5  0.18386    Mn
Mn     0.77163      0.5  0.81614    Mn
Mn     0.77163  0.68386      0.5    Mn
Mn     0.77163  0.81614      0.0    Mn
C      0.77746  0.04892  0.17652     C
C      0.77746  0.04892  0.82348     C
C      0.77746  0.17652  0.45108     C
C      0.77746  0.17652  0.54892     C
C      0.77746  0.32348  0.04892     C
C      0.77746  0.32348  0.95108     C
C      0.77746  0.45108  0.32348     C
C      0.77746  0.45108  0.67652     C
C      0.77746  0.54892  0.32348     C
C      0.77746  0.54892  0.67652     C
C      0.77746  0.67652  0.04892     C
C      0.77746  0.67652  0.95108     C
C      0.77746  0.82348  0.45108     C
C      0.77746  0.82348  0.54892     C
C      0.77746  0.95108  0.17652     C
C      0.77746  0.95108  0.82348     C
O       0.7817  0.03515   0.2052     O
O       0.7817  0.03515   0.7948     O
O       0.7817   0.2052  0.46485     O
O       0.7817   0.2052  0.53515     O
O       0.7817   0.2948  0.03515     O
O       0.7817   0.2948  0.96485     O
O       0.7817  0.46485   0.2948     O
O       0.7817  0.46485   0.7052     O
O       0.7817  0.53515   0.2948     O
O       0.7817  0.53515   0.7052     O
O       0.7817   0.7052  0.03515     O
O       0.7817   0.7052  0.96485     O
O       0.7817   0.7948  0.46485     O
O       0.7817   0.7948  0.53515     O
O       0.7817  0.96485   0.2052     O
O       0.7817  0.96485   0.7948     O
S      0.79064  0.10091   0.1299     S
S      0.79064  0.10091   0.8701     S
S      0.79064   0.1299  0.39909     S
S      0.79064   0.1299  0.60091     S
S      0.79064   0.3701  0.10091     S
S      0.79064   0.3701  0.89909     S
S      0.79064  0.39909   0.3701     S
S      0.79064  0.39909   0.6299     S
S      0.79064  0.60091   0.3701     S
S      0.79064  0.60091   0.6299     S
S      0.79064   0.6299  0.10091     S
S      0.79064   0.6299  0.89909     S
S      0.79064   0.8701  0.39909     S
S      0.79064   0.8701  0.60091     S
S      0.79064  0.89909   0.1299     S
S      0.79064  0.89909   0.8701     S
H       0.7941   0.0791   0.3382     H
H       0.7941   0.0791   0.6618     H
H       0.7941   0.1618   0.0791     H
H       0.7941   0.1618   0.9209     H
H       0.7941   0.3382   0.4209     H
H       0.7941   0.3382   0.5791     H
H       0.7941   0.4209   0.1618     H
H       0.7941   0.4209   0.8382     H
H       0.7941   0.5791   0.1618     H
H       0.7941   0.5791   0.8382     H
H       0.7941   0.6618   0.4209     H
H       0.7941   0.6618   0.5791     H
H       0.7941   0.8382   0.0791     H
H       0.7941   0.8382   0.9209     H
H       0.7941   0.9209   0.3382     H
H       0.7941   0.9209   0.6618     H
O       0.7948  0.03515   0.2817     O
O       0.7948  0.03515   0.7183     O
O       0.7948   0.2183  0.03515     O
O       0.7948   0.2183  0.96485     O
O       0.7948   0.2817  0.46485     O
O       0.7948   0.2817  0.53515     O
O       0.7948  0.46485   0.2183     O
O       0.7948  0.46485   0.7817     O
O       0.7948  0.53515   0.2183     O
O       0.7948  0.53515   0.7817     O
O       0.7948   0.7183  0.46485     O
O       0.7948   0.7183  0.53515     O
O       0.7948   0.7817  0.03515     O
O       0.7948   0.7817  0.96485     O
O       0.7948  0.96485   0.2817     O
O       0.7948  0.96485   0.7183     O
C      0.80008  0.07756  0.16652     C
C      0.80008  0.07756  0.83348     C
C      0.80008  0.16652  0.42244     C
C      0.80008  0.16652  0.57756     C
C      0.80008  0.33348  0.07756     C
C      0.80008  0.33348  0.92244     C
C      0.80008  0.42244  0.33348     C
C      0.80008  0.42244  0.66652     C
C      0.80008  0.57756  0.33348     C
C      0.80008  0.57756  0.66652     C
C      0.80008  0.66652  0.07756     C
C      0.80008  0.66652  0.92244     C
C      0.80008  0.83348  0.42244     C
C      0.80008  0.83348  0.57756     C
C      0.80008  0.92244  0.16652     C
C      0.80008  0.92244  0.83348     C
C      0.81455  0.08877  0.32957     C
C      0.81455  0.08877  0.67043     C
C      0.81455  0.17043  0.08877     C
C      0.81455  0.17043  0.91123     C
C      0.81455  0.32957  0.41123     C
C      0.81455  0.32957  0.58877     C
C      0.81455  0.41123  0.17043     C
C      0.81455  0.41123  0.82957     C
C      0.81455  0.58877  0.17043     C
C      0.81455  0.58877  0.82957     C
C      0.81455  0.67043  0.41123     C
C      0.81455  0.67043  0.58877     C
C      0.81455  0.82957  0.08877     C
C      0.81455  0.82957  0.91123     C
C      0.81455  0.91123  0.32957     C
C      0.81455  0.91123  0.67043     C
Mn     0.81614      0.0  0.22837    Mn
Mn     0.81614      0.0  0.77163    Mn
Mn     0.81614  0.22837      0.5    Mn
Mn     0.81614  0.27163      0.0    Mn
Mn     0.81614      0.5  0.27163    Mn
Mn     0.81614      0.5  0.72837    Mn
Mn     0.81614  0.72837      0.0    Mn
Mn     0.81614  0.77163      0.5    Mn
C      0.82348  0.04892  0.27746     C
C      0.82348  0.04892  0.72254     C
C      0.82348  0.22254  0.04892     C
C      0.82348  0.22254  0.95108     C
C      0.82348  0.27746  0.45108     C
C      0.82348  0.27746  0.54892     C
C      0.82348  0.45108  0.22254     C
C      0.82348  0.45108  0.77746     C
C      0.82348  0.54892  0.22254     C
C      0.82348  0.54892  0.77746     C
C      0.82348  0.72254  0.45108     C
C      0.82348  0.72254  0.54892     C
C      0.82348  0.77746  0.04892     C
C      0.82348  0.77746  0.95108     C
C      0.82348  0.95108  0.27746     C
C      0.82348  0.95108  0.72254     C
C      0.82453  0.12744   0.1377     C
C      0.82453  0.12744   0.8623     C
C      0.82453   0.1377  0.37256     C
C      0.82453   0.1377  0.62744     C
C      0.82453   0.3623  0.12744     C
C      0.82453   0.3623  0.87256     C
C      0.82453  0.37256   0.3623     C
C      0.82453  0.37256   0.6377     C
C      0.82453  0.62744   0.3623     C
C      0.82453  0.62744   0.6377     C
C      0.82453   0.6377  0.12744     C
C      0.82453   0.6377  0.87256     C
C      0.82453   0.8623  0.37256     C
C      0.82453   0.8623  0.62744     C
C      0.82453  0.87256   0.1377     C
C      0.82453  0.87256   0.8623     C
C      0.82957  0.08877  0.18545     C
C      0.82957  0.08877  0.81455     C
C      0.82957  0.18545  0.41123     C
C      0.82957  0.18545  0.58877     C
C      0.82957  0.31455  0.08877     C
C      0.82957  0.31455  0.91123     C
C      0.82957  0.41123  0.31455     C
C      0.82957  0.41123  0.68545     C
C      0.82957  0.58877  0.31455     C
C      0.82957  0.58877  0.68545     C
C      0.82957  0.68545  0.08877     C
C      0.82957  0.68545  0.91123     C
C      0.82957  0.81455  0.41123     C
C      0.82957  0.81455  0.58877     C
C      0.82957  0.91123  0.18545     C
C      0.82957  0.91123  0.81455     C
C       0.8333  0.11814  0.34354     C
C       0.8333  0.11814  0.65646     C
C       0.8333  0.15646  0.11814     C
C       0.8333  0.15646  0.88186     C
C       0.8333  0.34354  0.38186     C
C       0.8333  0.34354  0.61814     C
C       0.8333  0.38186  0.15646     C
C       0.8333  0.38186  0.84354     C
C       0.8333  0.61814  0.15646     C
C       0.8333  0.61814  0.84354     C
C       0.8333  0.65646  0.38186     C
C       0.8333  0.65646  0.61814     C
C       0.8333  0.84354  0.11814     C
C       0.8333  0.84354  0.88186     C
C       0.8333  0.88186  0.34354     C
C       0.8333  0.88186  0.65646     C
C      0.83348  0.07756  0.30008     C
C      0.83348  0.07756  0.69992     C
C      0.83348  0.19992  0.07756     C
C      0.83348  0.19992  0.92244     C
C      0.83348  0.30008  0.42244     C
C      0.83348  0.30008  0.57756     C
C      0.83348  0.42244  0.19992     C
C      0.83348  0.42244  0.80008     C
C      0.83348  0.57756  0.19992     C
C      0.83348  0.57756  0.80008     C
C      0.83348  0.69992  0.42244     C
C      0.83348  0.69992  0.57756     C
C      0.83348  0.80008  0.07756     C
C      0.83348  0.80008  0.92244     C
C      0.83348  0.92244  0.30008     C
C      0.83348  0.92244  0.69992     C
H       0.8382   0.0791   0.2059     H
H       0.8382   0.0791   0.7941     H
H       0.8382   0.2059   0.4209     H
H       0.8382   0.2059   0.5791     H
H       0.8382   0.2941   0.0791     H
H       0.8382   0.2941   0.9209     H
H       0.8382   0.4209   0.2941     H
H       0.8382   0.4209   0.7059     H
H       0.8382   0.5791   0.2941     H
H       0.8382   0.5791   0.7059     H
H       0.8382   0.7059   0.0791     H
H       0.8382   0.7059   0.9209     H
H       0.8382   0.7941   0.4209     H
H       0.8382   0.7941   0.5791     H
H       0.8382   0.9209   0.2059     H
H       0.8382   0.9209   0.7941     H
C      0.84354  0.11814   0.1667     C
C      0.84354  0.11814   0.8333     C
C      0.84354   0.1667  0.38186     C
C      0.84354   0.1667  0.61814     C
C      0.84354   0.3333  0.11814     C
C      0.84354   0.3333  0.88186     C
C      0.84354  0.38186   0.3333     C
C      0.84354  0.38186   0.6667     C
C      0.84354  0.61814   0.3333     C
C      0.84354  0.61814   0.6667     C
C      0.84354   0.6667  0.11814     C
C      0.84354   0.6667  0.88186     C
C      0.84354   0.8333  0.38186     C
C      0.84354   0.8333  0.61814     C
C      0.84354  0.88186   0.1667     C
C      0.84354  0.88186   0.8333     C
O      0.84404  0.04092  0.25411     O
O      0.84404  0.04092  0.74589     O
O      0.84404  0.24589  0.04092     O
O      0.84404  0.24589  0.95908     O
O      0.84404  0.25411  0.45908     O
O      0.84404  0.25411  0.54092     O
O      0.84404  0.45908  0.24589     O
O      0.84404  0.45908  0.75411     O
O      0.84404  0.54092  0.24589     O
O      0.84404  0.54092  0.75411     O
O      0.84404  0.74589  0.45908     O
O      0.84404  0.74589  0.54092     O
O      0.84404  0.75411  0.04092     O
O      0.84404  0.75411  0.95908     O
O      0.84404  0.95908  0.25411     O
O      0.84404  0.95908  0.74589     O
C       0.8623  0.12744  0.32453     C
C       0.8623  0.12744  0.67547     C
C       0.8623  0.17547  0.12744     C
C       0.8623  0.17547  0.87256     C
C       0.8623  0.32453  0.37256     C
C       0.8623  0.32453  0.62744     C
C       0.8623  0.37256  0.17547     C
C       0.8623  0.37256  0.82453     C
C       0.8623  0.62744  0.17547     C
C       0.8623  0.62744  0.82453     C
C       0.8623  0.67547  0.37256     C
C       0.8623  0.67547  0.62744     C
C       0.8623  0.82453  0.12744     C
C       0.8623  0.82453  0.87256     C
C       0.8623  0.87256  0.32453     C
C       0.8623  0.87256  0.67547     C
S       0.8701  0.10091  0.29064     S
S       0.8701  0.10091  0.70936     S
S       0.8701  0.20936  0.10091     S
S       0.8701  0.20936  0.89909     S
S       0.8701  0.29064  0.39909     S
S       0.8701  0.29064  0.60091     S
S       0.8701  0.39909  0.20936     S
S       0.8701  0.39909  0.79064     S
S       0.8701  0.60091  0.20936     S
S       0.8701  0.60091  0.79064     S
S       0.8701  0.70936  0.39909     S
S       0.8701  0.70936  0.60091     S
S       0.8701  0.79064  0.10091     S
S       0.8701  0.79064  0.89909     S
S       0.8701  0.89909  0.29064     S
S       0.8701  0.89909  0.70936     S
C      0.87256   0.1377  0.17547     C
C      0.87256   0.1377  0.82453     C
C      0.87256  0.17547   0.3623     C
C      0.87256  0.17547   0.6377     C
C      0.87256  0.32453   0.1377     C
C      0.87256  0.32453   0.8623     C
C      0.87256   0.3623  0.32453     C
C      0.87256   0.3623  0.67547     C
C      0.87256   0.6377  0.32453     C
C      0.87256   0.6377  0.67547     C
C      0.87256  0.67547   0.1377     C
C      0.87256  0.67547   0.8623     C
C      0.87256  0.82453   0.3623     C
C      0.87256  0.82453   0.6377     C
C      0.87256   0.8623  0.17547     C
C      0.87256   0.8623  0.82453     C
C      0.88186  0.15646   0.3333     C
C      0.88186  0.15646   0.6667     C
C      0.88186   0.1667  0.15646     C
C      0.88186   0.1667  0.84354     C
C      0.88186   0.3333  0.34354     C
C      0.88186   0.3333  0.65646     C
C      0.88186  0.34354   0.1667     C
C      0.88186  0.34354   0.8333     C
C      0.88186  0.65646   0.1667     C
C      0.88186  0.65646   0.8333     C
C      0.88186   0.6667  0.34354     C
C      0.88186   0.6667  0.65646     C
C      0.88186   0.8333  0.15646     C
C      0.88186   0.8333  0.84354     C
C      0.88186  0.84354   0.3333     C
C      0.88186  0.84354   0.6667     C
S      0.89909   0.1299  0.20936     S
S      0.89909   0.1299  0.79064     S
S      0.89909  0.20936   0.3701     S
S      0.89909  0.20936   0.6299     S
S      0.89909  0.29064   0.1299     S
S      0.89909  0.29064   0.8701     S
S      0.89909   0.3701  0.29064     S
S      0.89909   0.3701  0.70936     S
S      0.89909   0.6299  0.29064     S
S      0.89909   0.6299  0.70936     S
S      0.89909  0.70936   0.1299     S
S      0.89909  0.70936   0.8701     S
S      0.89909  0.79064   0.3701     S
S      0.89909  0.79064   0.6299     S
S      0.89909   0.8701  0.20936     S
S      0.89909   0.8701  0.79064     S
C      0.91123  0.17043  0.31455     C
C      0.91123  0.17043  0.68545     C
C      0.91123  0.18545  0.17043     C
C      0.91123  0.18545  0.82957     C
C      0.91123  0.31455  0.32957     C
C      0.91123  0.31455  0.67043     C
C      0.91123  0.32957  0.18545     C
C      0.91123  0.32957  0.81455     C
C      0.91123  0.67043  0.18545     C
C      0.91123  0.67043  0.81455     C
C      0.91123  0.68545  0.32957     C
C      0.91123  0.68545  0.67043     C
C      0.91123  0.81455  0.17043     C
C      0.91123  0.81455  0.82957     C
C      0.91123  0.82957  0.31455     C
C      0.91123  0.82957  0.68545     C
H       0.9209   0.1618   0.2941     H
H       0.9209   0.1618   0.7059     H
H       0.9209   0.2059   0.1618     H
H       0.9209   0.2059   0.8382     H
H       0.9209   0.2941   0.3382     H
H       0.9209   0.2941   0.6618     H
H       0.9209   0.3382   0.2059     H
H       0.9209   0.3382   0.7941     H
H       0.9209   0.6618   0.2059     H
H       0.9209   0.6618   0.7941     H
H       0.9209   0.7059   0.3382     H
H       0.9209   0.7059   0.6618     H
H       0.9209   0.7941   0.1618     H
H       0.9209   0.7941   0.8382     H
H       0.9209   0.8382   0.2941     H
H       0.9209   0.8382   0.7059     H
C      0.92244  0.16652  0.19992     C
C      0.92244  0.16652  0.80008     C
C      0.92244  0.19992  0.33348     C
C      0.92244  0.19992  0.66652     C
C      0.92244  0.30008  0.16652     C
C      0.92244  0.30008  0.83348     C
C      0.92244  0.33348  0.30008     C
C      0.92244  0.33348  0.69992     C
C      0.92244  0.66652  0.30008     C
C      0.92244  0.66652  0.69992     C
C      0.92244  0.69992  0.16652     C
C      0.92244  0.69992  0.83348     C
C      0.92244  0.80008  0.33348     C
C      0.92244  0.80008  0.66652     C
C      0.92244  0.83348  0.19992     C
C      0.92244  0.83348  0.80008     C
C      0.95108  0.17652  0.22254     C
C      0.95108  0.17652  0.77746     C
C      0.95108  0.22254  0.32348     C
C      0.95108  0.22254  0.67652     C
C      0.95108  0.27746  0.17652     C
C      0.95108  0.27746  0.82348     C
C      0.95108  0.32348  0.27746     C
C      0.95108  0.32348  0.72254     C
C      0.95108  0.67652  0.27746     C
C      0.95108  0.67652  0.72254     C
C      0.95108  0.72254  0.17652     C
C      0.95108  0.72254  0.82348     C
C      0.95108  0.77746  0.32348     C
C      0.95108  0.77746  0.67652     C
C      0.95108  0.82348  0.22254     C
C      0.95108  0.82348  0.77746     C
O      0.95908  0.15596  0.24589     O
O      0.95908  0.15596  0.75411     O
O      0.95908  0.24589  0.34404     O
O      0.95908  0.24589  0.65596     O
O      0.95908  0.25411  0.15596     O
O      0.95908  0.25411  0.84404     O
O      0.95908  0.34404  0.25411     O
O      0.95908  0.34404  0.74589     O
O      0.95908  0.65596  0.25411     O
O      0.95908  0.65596  0.74589     O
O      0.95908  0.74589  0.15596     O
O      0.95908  0.74589  0.84404     O
O      0.95908  0.75411  0.34404     O
O      0.95908  0.75411  0.65596     O
O      0.95908  0.84404  0.24589     O
O      0.95908  0.84404  0.75411     O
O      0.96485   0.2052   0.2183     O
O      0.96485   0.2052   0.7817     O
O      0.96485   0.2183   0.2948     O
O      0.96485   0.2183   0.7052     O
O      0.96485   0.2817   0.2052     O
O      0.96485   0.2817   0.7948     O
O      0.96485   0.2948   0.2817     O
O      0.96485   0.2948   0.7183     O
O      0.96485   0.7052   0.2817     O
O      0.96485   0.7052   0.7183     O
O      0.96485   0.7183   0.2052     O
O      0.96485   0.7183   0.7948     O
O      0.96485   0.7817   0.2948     O
O      0.96485   0.7817   0.7052     O
O      0.96485   0.7948   0.2183     O
O      0.96485   0.7948   0.7817     O
