data_I
_chemical_name_common  '/home/zhangsd/repos/MofS-CGCNN/ML/data/TSD/clean_cifs/RAVVIU01_clean'
_cell_length_a  9.83210
_cell_length_b 11.25390
_cell_length_c 14.42250
_cell_angle_alpha 91.19300
_cell_angle_beta  90.00000
_cell_angle_gamma 90.00000
_space_group_name_H-M_alt      'P 1'


loop_
_space_group_symop_operation_xyz
  'x, y, z' 

loop_
_atom_site_label
_atom_site_fract_x
_atom_site_fract_y
_atom_site_fract_z
_atom_site_type_symbol
Co         0.0      0.0      0.0    Co
Co         0.0      0.5      0.0    Co
O       0.0044  0.54303  0.85953     O
O      0.00485  0.62874  0.21954     O
C       0.0135    0.517    0.212     C
O       0.0274  0.68453  0.02343     O
H        0.038    0.475    0.261     H
O       0.0603  0.18383  0.63173     O
Co     0.07944  0.24486  0.86693    Co
O      0.08356  0.85032  0.19522     O
O       0.1043  0.02333  0.12383     O
C       0.1069   0.7435   0.9699     C
Co     0.11028  0.74021   0.3109    Co
O       0.1153  0.85115  0.96665     O
H        0.121    0.945    0.464     H
O      0.12208  0.61331  0.40961     O
C       0.1286   0.9552   0.1874     C
O       0.1548  0.10274  0.93994     O
H        0.158    0.701    0.929     H
C       0.1716   0.1692   0.6699     C
H        0.198    0.984    0.233     H
O      0.19983  0.19133  0.75453     O
O       0.2089  0.48218  0.00228     O
C       0.2119   0.9242   0.4528     C
H        0.212    0.509    0.491     H
C       0.2212    0.572   0.4505     C
H        0.242    0.139    0.631     H
O      0.24287    0.847   0.3915     O
O      0.25713    0.347   0.8915     O
H        0.258    0.639    0.131     H
C       0.2788    0.072   0.9505     C
H        0.288    0.009    0.991     H
C       0.2881   0.4242   0.9528     C
O       0.2911  0.98218  0.50228     O
O      0.30017  0.69133  0.25453     O
H        0.302    0.484    0.733     H
C       0.3284   0.6692   0.1699     C
H        0.342    0.201    0.429     H
O       0.3452  0.60274  0.43994     O
C       0.3714   0.4552   0.6874     C
O      0.37792  0.11331  0.90961     O
H        0.379    0.445    0.964     H
O       0.3847  0.35115  0.46665     O
Co     0.38972  0.24021   0.8109    Co
C       0.3931   0.2435   0.4699     C
O       0.3957  0.52333  0.62383     O
O      0.41644  0.35032  0.69522     O
Co     0.42056  0.74486  0.36693    Co
O       0.4397  0.68383  0.13173     O
H        0.462    0.975    0.761     H
O       0.4726  0.18453  0.52343     O
C       0.4865    0.017    0.712     C
O      0.49515  0.12874  0.71954     O
O       0.4956  0.04303  0.35953     O
Co         0.5      0.0      0.5    Co
Co         0.5      0.5      0.5    Co
O       0.5044  0.95697  0.64047     O
O      0.50485  0.87126  0.28046     O
C       0.5135    0.983    0.288     C
O       0.5274  0.81547  0.47657     O
H        0.538    0.025    0.239     H
O       0.5603  0.31617  0.86827     O
Co     0.57944  0.25514  0.63307    Co
O      0.58356  0.64968  0.30478     O
O       0.6043  0.47667  0.37617     O
C       0.6069   0.7565   0.5301     C
Co     0.61028  0.75979   0.1891    Co
O       0.6153  0.64885  0.53335     O
H        0.621    0.555    0.036     H
O      0.62208  0.88669  0.09039     O
C       0.6286   0.5448   0.3126     C
O       0.6548  0.39726  0.56006     O
H        0.658    0.799    0.571     H
C       0.6716   0.3308   0.8301     C
H        0.698    0.516    0.267     H
O      0.69983  0.30867  0.74547     O
O       0.7089  0.01782  0.49772     O
C       0.7119   0.5758   0.0472     C
H        0.712    0.991    0.009     H
C       0.7212    0.928   0.0495     C
H        0.742    0.361    0.869     H
O      0.74287    0.653   0.1085     O
O      0.75713    0.153   0.6085     O
H        0.758    0.861    0.369     H
C       0.7788    0.428   0.5495     C
H        0.788    0.491    0.509     H
C       0.7881   0.0758   0.5472     C
O       0.7911  0.51782  0.99772     O
O      0.80017  0.80867  0.24547     O
H        0.802    0.016    0.767     H
C       0.8284   0.8308   0.3301     C
H        0.842    0.299    0.071     H
O       0.8452  0.89726  0.06006     O
C       0.8714   0.0448   0.8126     C
O      0.87792  0.38669  0.59039     O
H        0.879    0.055    0.536     H
O       0.8847  0.14885  0.03335     O
Co     0.88972  0.25979   0.6891    Co
C       0.8931   0.2565   0.0301     C
O       0.8957  0.97667  0.87617     O
O      0.91644  0.14968  0.80478     O
Co     0.92056  0.75514  0.13307    Co
O       0.9397  0.81617  0.36827     O
H        0.962    0.525    0.739     H
O       0.9726  0.31547  0.97657     O
C       0.9865    0.483    0.788     C
O      0.99515  0.37126  0.78046     O
O       0.9956  0.45697  0.14047     O
