data_I
_chemical_name_common  '/home/zhangsd/repos/MofS-CGCNN/ML/data/TSD/clean_cifs/RAYLOU_clean'
_cell_length_a 16.50940
_cell_length_b 16.50940
_cell_length_c 25.70100
_cell_angle_alpha 90.00000
_cell_angle_beta  90.00000
_cell_angle_gamma 120.00000
_space_group_name_H-M_alt      'P 1'


loop_
_space_group_symop_operation_xyz
  'x, y, z' 

loop_
_atom_site_label
_atom_site_fract_x
_atom_site_fract_y
_atom_site_fract_z
_atom_site_type_symbol
C       0.0117    0.394  0.50248     C
C       0.0117   0.6177  0.16418     C
H       0.0164   0.4043  0.28583     H
H       0.0164   0.6121  0.38083     H
C       0.0305   0.4118  0.25052     C
C       0.0305   0.6187  0.41614     C
H       0.0329   0.4466   0.0205     H
H       0.0329   0.5863  0.64617     H
C      0.03845    0.403  0.45187     C
C      0.03845  0.63545  0.21479     C
C      0.04125   0.4935  0.94882     C
C      0.04125  0.54775  0.71785     C
H       0.0566   0.4129  0.52853     H
H       0.0566   0.6437  0.13813     H
C       0.0674   0.4612  0.98985     C
C       0.0674   0.6062  0.67682     C
C       0.0808   0.4383  0.15097     C
C       0.0808   0.6425  0.51569     C
H       0.0849   0.5379  0.78787     H
H       0.0849    0.547   0.8788     H
O       0.0904   0.2548  0.62647     O
O       0.0904   0.8356   0.0402     O
C       0.0968   0.5179  0.90636     C
C       0.0968   0.5789  0.76031     C
H       0.0972   0.4447  0.11593     H
H       0.0972   0.6525  0.55073     H
C       0.1198   0.4696  0.23449     C
C       0.1198   0.6502  0.43217     C
O      0.12403   0.4207  0.35376     O
O      0.12403  0.70333   0.3129     O
N      0.13076  0.43195   0.4399     N
N      0.13076  0.69881  0.22676     N
C       0.1446   0.4493   0.9874     C
C       0.1446   0.6953  0.67927     C
N      0.14683  0.48285  0.18553     N
N      0.14683  0.66398  0.48113     N
N      0.14905   0.2981  0.66667     N
N      0.14905  0.85095      0.0     N
O       0.1644   0.2548  0.70687     O
H       0.1644   0.4326   0.0173     H
H       0.1644   0.7318  0.64937     H
O       0.1644   0.9096   0.9598     O
H       0.1648   0.5021  0.25983     H
H       0.1648   0.6627  0.40683     H
H       0.1685   0.4493  0.46593     H
H       0.1685   0.7192  0.20073     H
C       0.1699   0.4367  0.39299     C
C       0.1699   0.7332  0.27367     C
C        0.173    0.501  0.90217     C
C        0.173    0.672   0.7645     C
H       0.1799   0.4084  0.59107     H
H       0.1799   0.7715   0.0756     H
C      0.19214   0.4616  0.94223     C
C      0.19214  0.73054  0.72444     C
C       0.1991   0.3982  0.66667     C
C       0.1991   0.8009      0.0     C
C       0.2068   0.4424  0.62121     C
C       0.2068   0.7644  0.04546     C
H       0.2089   0.5171    0.872     H
H       0.2089   0.6918  0.79467     H
H       0.2285   0.4084  0.74227     H
H       0.2285   0.8201   0.9244     H
C       0.2356   0.4424  0.71213     C
C       0.2356   0.7932  0.95454     C
O      0.23653  0.54022  0.53007     O
O      0.23653  0.69631   0.1366     O
C       0.2546  0.53788  0.62027     C
C       0.2546  0.71672   0.0464     C
O       0.2548   0.0904  0.37353     O
O       0.2548   0.1644  0.29313     O
C      0.26301   0.5884  0.57013     C
C      0.26301  0.67461  0.09654     C
C       0.2668   0.4367  0.94034     C
C       0.2668   0.8301  0.72633     C
H       0.2682   0.4326  0.31603     H
H       0.2682   0.8356  0.35063     H
C      0.26946   0.4616   0.3911     C
C      0.26946  0.80786  0.27556     C
H       0.2808   0.4493   0.8674     H
H       0.2808   0.8315  0.79927     H
C      0.28328  0.53788  0.71307     C
C      0.28328   0.7454   0.9536     C
Zn     0.28466  0.56932  0.16667    Zn
Zn     0.28466  0.71534      0.5    Zn
C      0.29245   0.5849  0.66667     C
C      0.29245  0.70755      0.0     C
O      0.29275  0.61946  0.09543     O
O      0.29275  0.67329  0.57124     O
O      0.29667   0.4207  0.97957     O
O      0.29667  0.87597   0.6871     O
N       0.2981  0.14905  0.33333     N
N      0.30119  0.43195  0.89343     N
N      0.30119  0.86924  0.77324     N
O      0.30369  0.54022  0.80327     O
O      0.30369  0.76347   0.8634     O
C       0.3047   0.4493  0.34593     C
C       0.3047   0.8554  0.32073     C
H       0.3082   0.5171  0.46133     H
H       0.3082   0.7911  0.20533     H
H      0.32495   0.6499  0.66667     H
H      0.32495  0.67505      0.0     H
C      0.32539   0.5884  0.76321     C
C      0.32539  0.73699  0.90346     C
O      0.32671  0.61946   0.2379     O
O      0.32671  0.70725  0.42876     O
C        0.328    0.501  0.43116     C
C        0.328    0.827   0.2355     C
N      0.33602  0.48285   0.1478     N
N      0.33602  0.85317  0.51887     N
H       0.3373   0.5021   0.0735     H
H       0.3373   0.8352  0.59317     H
H       0.3475   0.4447   0.2174     H
H       0.3475   0.9028  0.44927     H
C       0.3498   0.4696  0.09884     C
C       0.3498   0.8802  0.56783     C
H       0.3501  0.67505  0.33333     H
H       0.3563   0.4129   0.8048     H
H       0.3563   0.9434  0.86187     H
C       0.3575   0.4383  0.18236     C
C       0.3575   0.9192  0.48431     C
C      0.36455    0.403  0.88146     C
C      0.36455  0.96155  0.78521     C
O      0.38054  0.67329   0.7621     O
O      0.38054  0.70725  0.90457     O
C       0.3813   0.4118  0.08281     C
C       0.3813   0.9695  0.58386     C
C       0.3823    0.394  0.83085     C
C       0.3823   0.9883  0.83582     C
H       0.3879   0.4043   0.0475     H
H       0.3879   0.9836  0.61917     H
C       0.3938   0.4612  0.34348     C
C       0.3938   0.9326  0.32318     C
C        0.394   0.0117  0.49752     C
C        0.394   0.3823  0.16915     C
C       0.3982   0.1991  0.33333     C
C        0.403  0.03845  0.54813     C
C        0.403  0.36455  0.11854     C
H       0.4043   0.0164  0.71417     H
H       0.4043   0.3879   0.9525     H
H       0.4084   0.1799  0.40893     H
H       0.4084   0.2285  0.25773     H
C       0.4116  0.67461  0.23679     C
C       0.4116  0.73699  0.42987     C
C       0.4118   0.0305  0.74948     C
C       0.4118   0.3813  0.91719     C
H       0.4129   0.0566  0.47147     H
H       0.4129   0.3563   0.1952     H
H       0.4137   0.4466  0.31283     H
H       0.4137   0.9671  0.35383     H
C       0.4151  0.70755  0.33333     C
O       0.4207  0.12403  0.64624     O
O       0.4207  0.29667  0.02043     O
C       0.4211   0.5179  0.42697     C
C       0.4211   0.9032  0.23969     C
Zn     0.43068  0.71534  0.83333    Zn
N      0.43195  0.13076   0.5601     N
N      0.43195  0.30119  0.10657     N
H       0.4326   0.1644   0.9827     H
H       0.4326   0.2682  0.68397     H
C       0.4367   0.1699  0.60701     C
C       0.4367   0.2668  0.05966     C
C       0.4383   0.0808  0.84903     C
C       0.4383   0.3575  0.81764     C
C       0.4424   0.2068  0.37879     C
C       0.4424   0.2356  0.28787     C
H       0.4447   0.0972  0.88407     H
H       0.4447   0.3475   0.7826     H
H       0.4466   0.0329   0.9795     H
H       0.4466   0.4137  0.68717     H
C       0.4493   0.1446   0.0126     C
H       0.4493   0.1685  0.53407     H
H       0.4493   0.2808   0.1326     H
C       0.4493   0.3047  0.65407     C
C      0.45225   0.4935  0.38451     C
C      0.45225  0.95875  0.28215     C
H        0.453   0.5379  0.54547     H
H        0.453   0.9151   0.1212     H
O      0.45978  0.69631  0.19673     O
O      0.45978  0.76347  0.46993     O
C       0.4612   0.0674  0.01015     C
C       0.4612   0.3938  0.65652     C
C       0.4616  0.19214  0.05777     C
C       0.4616  0.26946   0.6089     C
H       0.4621    0.547  0.45453     H
H       0.4621   0.9151  0.21213     H
C      0.46212  0.71672  0.28693     C
C      0.46212   0.7454  0.37973     C
C       0.4696   0.1198  0.76551     C
C       0.4696   0.3498  0.90116     C
C       0.4821   0.5789  0.57303     C
C       0.4821   0.9032  0.09364     C
N      0.48285  0.14683  0.81447     N
N      0.48285  0.33602   0.8522     N
H       0.4829   0.6918  0.53867     H
H       0.4829   0.7911    0.128     H
C       0.4935  0.04125  0.05118     C
C       0.4935  0.45225  0.61549     C
H       0.4979   0.6627   0.9265     H
H       0.4979   0.8352  0.74017     H
C        0.499    0.672  0.56884     C
C        0.499    0.827  0.09783     C
C        0.501    0.173  0.09783     C
C        0.501    0.328  0.56884     C
H       0.5021   0.1648  0.74017     H
H       0.5021   0.3373   0.9265     H
C       0.5065  0.54775  0.61549     C
C       0.5065  0.95875  0.05118     C
H       0.5171   0.2089    0.128     H
H       0.5171   0.3082  0.53867     H
N      0.51715  0.66398   0.8522     N
N      0.51715  0.85317  0.81447     N
C       0.5179   0.0968  0.09364     C
C       0.5179   0.4211  0.57303     C
C       0.5304   0.6502  0.90116     C
C       0.5304   0.8802  0.76551     C
C      0.53788   0.2546  0.37973     C
C      0.53788  0.28328  0.28693     C
H       0.5379   0.0849  0.21213     H
H       0.5379    0.453  0.45453     H
C       0.5384  0.73054   0.6089     C
C       0.5384  0.80786  0.05777     C
C       0.5388   0.6062  0.65652     C
C       0.5388   0.9326  0.01015     C
O      0.54022  0.23653  0.46993     O
O      0.54022  0.30369  0.19673     O
H        0.547   0.0849   0.1212     H
H        0.547   0.4621  0.54547     H
C      0.54775  0.04125  0.28215     C
C      0.54775   0.5065  0.38451     C
C       0.5507   0.6953  0.65407     C
H       0.5507   0.7192   0.1326     H
H       0.5507   0.8315  0.53407     H
C       0.5507   0.8554   0.0126     C
H       0.5534   0.5863  0.68717     H
H       0.5534   0.9671   0.9795     H
H       0.5553   0.6525   0.7826     H
H       0.5553   0.9028  0.88407     H
C       0.5576   0.7644  0.28787     C
C       0.5576   0.7932  0.37879     C
C       0.5617   0.6425  0.81764     C
C       0.5617   0.9192  0.84903     C
C       0.5633   0.7332  0.05966     C
C       0.5633   0.8301  0.60701     C
H       0.5674   0.7318  0.68397     H
H       0.5674   0.8356   0.9827     H
N      0.56805  0.69881  0.10657     N
N      0.56805  0.86924   0.5601     N
Zn     0.56932  0.28466  0.83333    Zn
C       0.5789   0.0968  0.23969     C
C       0.5789   0.4821  0.42697     C
O       0.5793  0.70333  0.02043     O
O       0.5793  0.87597  0.64624     O
C       0.5849  0.29245  0.33333     C
H       0.5863   0.0329  0.35383     H
H       0.5863   0.5534  0.31283     H
H       0.5871   0.6437   0.1952     H
H       0.5871   0.9434  0.47147     H
C       0.5882   0.6187  0.91719     C
C       0.5882   0.9695  0.74948     C
C       0.5884  0.26301  0.42987     C
C       0.5884  0.32539  0.23679     C
H       0.5916   0.7715  0.25773     H
H       0.5916   0.8201  0.40893     H
H       0.5957   0.6121   0.9525     H
H       0.5957   0.9836  0.71417     H
C        0.597  0.63545  0.11854     C
C        0.597  0.96155  0.54813     C
C       0.6018   0.8009  0.33333     C
C        0.606   0.6177  0.16915     C
C        0.606   0.9883  0.49752     C
C       0.6062   0.0674  0.32318     C
C       0.6062   0.5388  0.34348     C
H       0.6121   0.0164  0.61917     H
H       0.6121   0.5957   0.0475     H
C       0.6177   0.0117  0.83582     C
C       0.6177    0.606  0.83085     C
C       0.6187   0.0305  0.58386     C
C       0.6187   0.5882  0.08281     C
O      0.61946  0.29275  0.90457     O
O      0.61946  0.32671   0.7621     O
C      0.63545  0.03845  0.78521     C
C      0.63545    0.597  0.88146     C
C       0.6425   0.0808  0.48431     C
C       0.6425   0.5617  0.18236     C
H       0.6437   0.0566  0.86187     H
H       0.6437   0.5871   0.8048     H
H       0.6499  0.32495  0.33333     H
C       0.6502   0.1198  0.56783     C
C       0.6502   0.5304  0.09884     C
H       0.6525   0.0972  0.44927     H
H       0.6525   0.5553   0.2174     H
H       0.6627   0.1648  0.59317     H
H       0.6627   0.4979   0.0735     H
N      0.66398  0.14683  0.51887     N
N      0.66398  0.51715   0.1478     N
C        0.672    0.173   0.2355     C
C        0.672    0.499  0.43116     C
O      0.67329  0.29275  0.42876     O
O      0.67329  0.38054   0.2379     O
C      0.67461  0.26301  0.90346     C
C      0.67461   0.4116  0.76321     C
H      0.67505  0.32495      0.0     H
H      0.67505   0.3501  0.66667     H
H       0.6918   0.2089  0.20533     H
H       0.6918   0.4829  0.46133     H
C       0.6953   0.1446  0.32073     C
C       0.6953   0.5507  0.34593     C
O      0.69631  0.23653   0.8634     O
O      0.69631  0.45978  0.80327     O
N      0.69881  0.13076  0.77324     N
N      0.69881  0.56805  0.89343     N
N       0.7019  0.85095  0.33333     N
O      0.70333  0.12403   0.6871     O
O      0.70333   0.5793  0.97957     O
O      0.70725  0.32671  0.57124     O
O      0.70725  0.38054  0.09543     O
C      0.70755  0.29245      0.0     C
C      0.70755   0.4151  0.66667     C
Zn     0.71534  0.28466      0.5    Zn
Zn     0.71534  0.43068  0.16667    Zn
C      0.71672   0.2546   0.9536     C
C      0.71672  0.46212  0.71307     C
H       0.7192   0.1685  0.79927     H
H       0.7192   0.5507   0.8674     H
C      0.73054  0.19214  0.27556     C
C      0.73054   0.5384   0.3911     C
H       0.7318   0.1644  0.35063     H
H       0.7318   0.5674  0.31603     H
C       0.7332   0.1699  0.72633     C
C       0.7332   0.5633  0.94034     C
C      0.73699  0.32539  0.09654     C
C      0.73699   0.4116  0.57013     C
O       0.7452   0.8356  0.29313     O
O       0.7452   0.9096  0.37353     O
C       0.7454  0.28328   0.0464     C
C       0.7454  0.46212  0.62027     C
O      0.76347  0.30369   0.1366     O
O      0.76347  0.45978  0.53007     O
C       0.7644   0.2068  0.95454     C
C       0.7644   0.5576  0.71213     C
H       0.7715   0.1799   0.9244     H
H       0.7715   0.5916  0.74227     H
H       0.7911   0.3082  0.79467     H
H       0.7911   0.4829    0.872     H
C       0.7932   0.2356  0.04546     C
C       0.7932   0.5576  0.62121     C
C       0.8009   0.1991      0.0     C
C       0.8009   0.6018  0.66667     C
C      0.80786  0.26946  0.72444     C
C      0.80786   0.5384  0.94223     C
H       0.8201   0.2285   0.0756     H
H       0.8201   0.5916  0.59107     H
C        0.827    0.328   0.7645     C
C        0.827    0.499  0.90217     C
C       0.8301   0.2668  0.27367     C
C       0.8301   0.5633  0.39299     C
H       0.8315   0.2808  0.20073     H
H       0.8315   0.5507  0.46593     H
H       0.8352   0.3373  0.40683     H
H       0.8352   0.4979  0.25983     H
O       0.8356   0.0904   0.9598     O
H       0.8356   0.2682  0.64937     H
H       0.8356   0.5674   0.0173     H
O       0.8356   0.7452  0.70687     O
N      0.85095  0.14905      0.0     N
N      0.85095   0.7019  0.66667     N
N      0.85317  0.33602  0.48113     N
N      0.85317  0.51715  0.18553     N
C       0.8554   0.3047  0.67927     C
C       0.8554   0.5507   0.9874     C
N      0.86924  0.30119  0.22676     N
N      0.86924  0.56805   0.4399     N
O      0.87597  0.29667   0.3129     O
O      0.87597   0.5793  0.35376     O
C       0.8802   0.3498  0.43217     C
C       0.8802   0.5304  0.23449     C
H       0.9028   0.3475  0.55073     H
H       0.9028   0.5553  0.11593     H
C       0.9032   0.4211  0.76031     C
C       0.9032   0.4821  0.90636     C
O       0.9096   0.1644   0.0402     O
O       0.9096   0.7452  0.62647     O
H       0.9151    0.453   0.8788     H
H       0.9151   0.4621  0.78787     H
C       0.9192   0.3575  0.51569     C
C       0.9192   0.5617  0.15097     C
C       0.9326   0.3938  0.67682     C
C       0.9326   0.5388  0.98985     C
H       0.9434   0.3563  0.13813     H
H       0.9434   0.5871  0.52853     H
C      0.95875  0.45225  0.71785     C
C      0.95875   0.5065  0.94882     C
C      0.96155  0.36455  0.21479     C
C      0.96155    0.597  0.45187     C
H       0.9671   0.4137  0.64617     H
H       0.9671   0.5534   0.0205     H
C       0.9695   0.3813  0.41614     C
C       0.9695   0.5882  0.25052     C
H       0.9836   0.3879  0.38083     H
H       0.9836   0.5957  0.28583     H
C       0.9883   0.3823  0.16418     C
C       0.9883    0.606  0.50248     C
