data_I
_chemical_name_common  '/home/zhangsd/repos/MofS-CGCNN/ML/data/TSD/clean_cifs/RESWUI_clean'
_cell_length_a  8.52470
_cell_length_b 10.20040
_cell_length_c 10.88980
_cell_angle_alpha 63.72200
_cell_angle_beta  71.28100
_cell_angle_gamma 81.14800
_space_group_name_H-M_alt      'P 1'


loop_
_space_group_symop_operation_xyz
  'x, y, z' 

loop_
_atom_site_label
_atom_site_fract_x
_atom_site_fract_y
_atom_site_fract_z
_atom_site_type_symbol
C      0.00365  0.47982  0.63385     C
H        0.015   0.4642   0.7307     H
O      0.01655  0.87284  0.47131     O
C      0.02603  0.63824  0.38638     C
C      0.02872  0.61846  0.52043     C
O      0.05091  0.99064  0.16228     O
H        0.051   0.7366   0.3036     H
C      0.05726  0.74469  0.54485     C
O      0.12527   0.7182  0.64001     O
Er     0.13362  0.93626  0.66037    Er
O      0.15325  0.12732  0.22681     O
O      0.17228  0.75392  0.87673     O
C      0.17258  0.04854  0.15915     C
H        0.213    0.545     0.09     H
H        0.279    0.886    0.016     H
C      0.32183   0.7298  0.82143     C
C      0.33444  0.52771  0.05568     C
C      0.34229  0.02262    0.077     C
C       0.3654  0.92804  0.01181     C
H        0.374     0.37    0.239     H
O      0.39372  0.80688  0.69093     O
C      0.41483  0.60932  0.91195     C
C      0.41947  0.41921  0.14319     C
H        0.462    0.158    0.101     H
C      0.47611  0.09337  0.06588     C
C      0.52389  0.90663  0.93412     C
H        0.538    0.842    0.899     H
C      0.58053  0.58079  0.85681     C
C      0.58517  0.39068  0.08805     C
O      0.60628  0.19312  0.30907     O
H        0.626     0.63    0.761     H
C       0.6346  0.07196  0.98819     C
C      0.65771  0.97738    0.923     C
C      0.66556  0.47229  0.94432     C
C      0.67817   0.2702  0.17857     C
H        0.721    0.114    0.984     H
H        0.787    0.455     0.91     H
C      0.82742  0.95146  0.84085     C
O      0.82772  0.24608  0.12327     O
O      0.84675  0.87268  0.77319     O
Er     0.86638  0.06374  0.33963    Er
O      0.87473   0.2818  0.35999     O
C      0.94274  0.25531  0.45515     C
H        0.949   0.2634   0.6964     H
O      0.94909  0.00936  0.83772     O
C      0.97128  0.38154  0.47957     C
C      0.97397  0.36176  0.61362     C
O      0.98345  0.12716  0.52869     O
H        0.985   0.5358   0.2693     H
C      0.99635  0.52018  0.36615     C
