data_I
_chemical_name_common  '/home/zhangsd/repos/MofS-CGCNN/ML/data/TSD/clean_cifs/RETBEZ_clean'
_cell_length_a 11.25300
_cell_length_b 25.16100
_cell_length_c 18.17200
_cell_angle_alpha 90.00000
_cell_angle_beta  90.00000
_cell_angle_gamma 90.00000
_space_group_name_H-M_alt      'P 1'


loop_
_space_group_symop_operation_xyz
  'x, y, z' 

loop_
_atom_site_label
_atom_site_fract_x
_atom_site_fract_y
_atom_site_fract_z
_atom_site_type_symbol
Zn         0.0     0.25  0.29015    Zn
Zn         0.0     0.25  0.79015    Zn
Zn         0.0     0.75  0.20985    Zn
Zn         0.0     0.75  0.70985    Zn
N       0.0144  0.02083   0.3746     N
N       0.0144  0.47917   0.8746     N
N       0.0144  0.52083   0.6254     N
N       0.0144  0.97917   0.1254     N
C       0.0191   0.1063   0.5254     C
C       0.0191   0.3937   0.0254     C
C       0.0191   0.6063   0.4746     C
C       0.0191   0.8937   0.9746     C
C       0.0239   0.0256    0.085     C
C       0.0239   0.4744    0.585     C
C       0.0239   0.5256    0.915     C
C       0.0239   0.9744    0.415     C
H       0.0356   0.0458   0.7347     H
H       0.0356   0.4542   0.2347     H
H       0.0356   0.5458   0.2653     H
H       0.0356   0.9542   0.7653     H
H       0.0474   0.1402   0.3694     H
H       0.0474   0.3598   0.8694     H
H       0.0474   0.6402   0.6306     H
H       0.0474   0.8598   0.1306     H
C       0.0601   0.0632   0.5622     C
C       0.0601   0.4368   0.0622     C
C       0.0601   0.5632   0.4378     C
C       0.0601   0.9368   0.9378     C
H       0.0727   0.1325   0.5111     H
H       0.0727   0.3675   0.0111     H
H       0.0727   0.6325   0.4889     H
H       0.0727   0.8675   0.9889     H
C       0.0962   0.0407   0.8412     C
C       0.0962   0.4593   0.3412     C
C       0.0962   0.5407   0.1588     C
C       0.0962   0.9593   0.6588     C
C       0.0963   0.1355   0.3287     C
C       0.0963   0.3645   0.8287     C
C       0.0963   0.6355   0.6713     C
C       0.0963   0.8645   0.1713     C
H       0.1015   0.0788    0.849     H
H       0.1015   0.4212    0.349     H
H       0.1015   0.5788    0.151     H
H       0.1015   0.9212    0.651     H
C       0.1022   0.1128    0.008     C
C       0.1022   0.3872    0.508     C
C       0.1022   0.6128    0.992     C
C       0.1022   0.8872    0.492     C
C       0.1028   0.0292   0.7589     C
C       0.1028   0.4708   0.2589     C
C       0.1028   0.5292   0.2411     C
C       0.1028   0.9708   0.7411     C
N       0.1104  0.17639   0.2818     N
N       0.1104  0.32361   0.7818     N
N       0.1104  0.67639   0.7182     N
N       0.1104  0.82361   0.2182     N
C       0.1259  0.04081   0.3666     C
C       0.1259  0.45919   0.8666     C
C       0.1259  0.54081   0.6334     C
C       0.1259  0.95919   0.1334     C
H       0.1269    0.143   0.9829     H
H       0.1269    0.357   0.4829     H
H       0.1269    0.643   0.0171     H
H       0.1269    0.857   0.5171     H
O       0.1351  0.21173    0.645     O
O       0.1351  0.28827    0.145     O
O       0.1351  0.71173    0.355     O
O       0.1351  0.78827    0.855     O
O       0.1371  0.20621    0.767     O
O       0.1371  0.29379    0.267     O
O       0.1371  0.70621    0.233     O
O       0.1371  0.79379    0.733     O
H       0.1406   0.0589    0.572     H
H       0.1406   0.4411    0.072     H
H       0.1406   0.5589    0.428     H
H       0.1406   0.9411    0.928     H
C       0.1442   0.0313   0.0677     C
C       0.1442   0.4687   0.5677     C
C       0.1442   0.5313   0.9323     C
C       0.1442   0.9687   0.4323     C
C       0.1508   0.0871   0.3191     C
C       0.1508   0.4129   0.8191     C
C       0.1508   0.5871   0.6809     C
C       0.1508   0.9129   0.1809     C
H       0.1635   0.0243   0.8655     H
H       0.1635   0.4757   0.3655     H
H       0.1635   0.5243   0.1345     H
H       0.1635   0.9757   0.6345     H
C       0.1727   0.1933   0.7037     C
C       0.1727   0.3067   0.2037     C
C       0.1727   0.6933   0.2963     C
C       0.1727   0.8067   0.7963     C
H       0.1746   0.0451   0.7392     H
H       0.1746   0.4549   0.2392     H
H       0.1746   0.5451   0.2608     H
H       0.1746   0.9549   0.7608     H
C       0.1805   0.1696   0.2245     C
C       0.1805   0.3304   0.7245     C
C       0.1805   0.6696   0.7755     C
C       0.1805   0.8304   0.2755     C
C       0.1849   0.0747   0.0278     C
C       0.1849   0.4253   0.5278     C
C       0.1849   0.5747   0.9722     C
C       0.1849   0.9253   0.4722     C
H       0.1897   0.1975   0.1914     H
H       0.1897   0.3025   0.6914     H
H       0.1897   0.6975   0.8086     H
H       0.1897   0.8025   0.3086     H
N       0.2062  0.01081  0.40098     N
N       0.2062  0.48919  0.90098     N
N       0.2062  0.51081  0.59902     N
N       0.2062  0.98919  0.09902     N
C       0.2261   0.0811   0.2584     C
C       0.2261   0.4189   0.7584     C
C       0.2261   0.5811   0.7416     C
C       0.2261   0.9189   0.2416     C
C       0.2406   0.1228   0.2115     C
C       0.2406   0.3772   0.7115     C
C       0.2406   0.6228   0.7885     C
C       0.2406   0.8772   0.2885     C
H       0.2645   0.0781   0.0149     H
H       0.2645   0.4219   0.5149     H
H       0.2645   0.5781   0.9851     H
H       0.2645   0.9219   0.4851     H
H       0.2655   0.0492   0.2502     H
H       0.2655   0.4508   0.7502     H
H       0.2655   0.5492   0.7498     H
H       0.2655   0.9508   0.2498     H
C       0.2712   0.1527   0.7031     C
C       0.2712   0.3473   0.2031     C
C       0.2712   0.6527   0.2969     C
C       0.2712   0.8473   0.7969     C
H       0.2748   0.1392    0.594     H
H       0.2748   0.3608    0.094     H
H       0.2748   0.6392    0.406     H
H       0.2748   0.8608    0.906     H
H       0.2908   0.1198   0.1711     H
H       0.2908   0.3802   0.6711     H
H       0.2908   0.6198   0.8289     H
H       0.2908   0.8802   0.3289     H
H       0.2951    0.152   0.8129     H
H       0.2951    0.348   0.3129     H
H       0.2951    0.652   0.1871     H
H       0.2951    0.848   0.6871     H
C       0.3091   0.1293   0.6385     C
C       0.3091   0.3707   0.1385     C
C       0.3091   0.6293   0.3615     C
C       0.3091   0.8707   0.8615     C
C       0.3214   0.1369   0.7691     C
C       0.3214   0.3631   0.2691     C
C       0.3214   0.6369   0.2309     C
C       0.3214   0.8631   0.7309     C
O       0.3606  0.06125  0.51967     O
O       0.3606  0.43875  0.01967     O
O       0.3606  0.56125  0.48033     O
O       0.3606  0.93875  0.98033     O
Zn     0.37973  0.02537  0.42641    Zn
Zn     0.37973  0.47463  0.92641    Zn
Zn     0.37973  0.52537  0.57359    Zn
Zn     0.37973  0.97463  0.07359    Zn
C       0.3977   0.0911   0.6393     C
C       0.3977   0.4089   0.1393     C
C       0.3977   0.5911   0.3607     C
C       0.3977   0.9089   0.8607     C
C       0.4106   0.0989   0.7706     C
C       0.4106   0.4011   0.2706     C
C       0.4106   0.5989   0.2294     C
C       0.4106   0.9011   0.7294     C
O       0.4204   0.0962   0.9008     O
O       0.4204   0.4038   0.4008     O
O       0.4204   0.5962   0.0992     O
O       0.4204   0.9038   0.5992     O
C       0.4364   0.0636   0.5708     C
C       0.4364   0.4364   0.0708     C
C       0.4364   0.5636   0.4292     C
C       0.4364   0.9364   0.9292     C
O       0.4476  0.05223  0.33804     O
O       0.4476  0.44777  0.83804     O
O       0.4476  0.55223  0.66196     O
O       0.4476  0.94777  0.16196     O
C       0.4494   0.0764   0.7063     C
C       0.4494   0.4236   0.2063     C
C       0.4494   0.5764   0.2937     C
C       0.4494   0.9236   0.7937     C
O       0.4612  0.04409  0.06675     O
O       0.4612  0.45591  0.56675     O
O       0.4612  0.54409  0.93325     O
O       0.4612  0.95591  0.43325     O
C       0.4638    0.082   0.8423     C
C       0.4638    0.418   0.3423     C
C       0.4638    0.582   0.1577     C
C       0.4638    0.918   0.6577     C
H       0.4899   0.0513   0.2072     H
H       0.4899   0.4487   0.7072     H
H       0.4899   0.5513   0.7928     H
H       0.4899   0.9487   0.2928     H
H       0.5101   0.0513   0.7072     H
H       0.5101   0.4487   0.2072     H
H       0.5101   0.5513   0.2928     H
H       0.5101   0.9487   0.7928     H
C       0.5362    0.082   0.3423     C
C       0.5362    0.418   0.8423     C
C       0.5362    0.582   0.6577     C
C       0.5362    0.918   0.1577     C
O       0.5388  0.04409  0.56675     O
O       0.5388  0.45591  0.06675     O
O       0.5388  0.54409  0.43325     O
O       0.5388  0.95591  0.93325     O
C       0.5506   0.0764   0.2063     C
C       0.5506   0.4236   0.7063     C
C       0.5506   0.5764   0.7937     C
C       0.5506   0.9236   0.2937     C
O       0.5524  0.05223  0.83804     O
O       0.5524  0.44777  0.33804     O
O       0.5524  0.55223  0.16196     O
O       0.5524  0.94777  0.66196     O
C       0.5636   0.0636   0.0708     C
C       0.5636   0.4364   0.5708     C
C       0.5636   0.5636   0.9292     C
C       0.5636   0.9364   0.4292     C
O       0.5796   0.0962   0.4008     O
O       0.5796   0.4038   0.9008     O
O       0.5796   0.5962   0.5992     O
O       0.5796   0.9038   0.0992     O
C       0.5894   0.0989   0.2706     C
C       0.5894   0.4011   0.7706     C
C       0.5894   0.5989   0.7294     C
C       0.5894   0.9011   0.2294     C
C       0.6023   0.0911   0.1393     C
C       0.6023   0.4089   0.6393     C
C       0.6023   0.5911   0.8607     C
C       0.6023   0.9089   0.3607     C
Zn     0.62027  0.02537  0.92641    Zn
Zn     0.62027  0.47463  0.42641    Zn
Zn     0.62027  0.52537  0.07359    Zn
Zn     0.62027  0.97463  0.57359    Zn
O       0.6394  0.06125  0.01967     O
O       0.6394  0.43875  0.51967     O
O       0.6394  0.56125  0.98033     O
O       0.6394  0.93875  0.48033     O
C       0.6786   0.1369   0.2691     C
C       0.6786   0.3631   0.7691     C
C       0.6786   0.6369   0.7309     C
C       0.6786   0.8631   0.2309     C
C       0.6909   0.1293   0.1385     C
C       0.6909   0.3707   0.6385     C
C       0.6909   0.6293   0.8615     C
C       0.6909   0.8707   0.3615     C
H       0.7049    0.152   0.3129     H
H       0.7049    0.348   0.8129     H
H       0.7049    0.652   0.6871     H
H       0.7049    0.848   0.1871     H
H       0.7092   0.1198   0.6711     H
H       0.7092   0.3802   0.1711     H
H       0.7092   0.6198   0.3289     H
H       0.7092   0.8802   0.8289     H
H       0.7252   0.1392    0.094     H
H       0.7252   0.3608    0.594     H
H       0.7252   0.6392    0.906     H
H       0.7252   0.8608    0.406     H
C       0.7288   0.1527   0.2031     C
C       0.7288   0.3473   0.7031     C
C       0.7288   0.6527   0.7969     C
C       0.7288   0.8473   0.2969     C
H       0.7345   0.0492   0.7502     H
H       0.7345   0.4508   0.2502     H
H       0.7345   0.5492   0.2498     H
H       0.7345   0.9508   0.7498     H
H       0.7355   0.0781   0.5149     H
H       0.7355   0.4219   0.0149     H
H       0.7355   0.5781   0.4851     H
H       0.7355   0.9219   0.9851     H
C       0.7594   0.1228   0.7115     C
C       0.7594   0.3772   0.2115     C
C       0.7594   0.6228   0.2885     C
C       0.7594   0.8772   0.7885     C
C       0.7739   0.0811   0.7584     C
C       0.7739   0.4189   0.2584     C
C       0.7739   0.5811   0.2416     C
C       0.7739   0.9189   0.7416     C
N       0.7938  0.01081  0.90098     N
N       0.7938  0.48919  0.40098     N
N       0.7938  0.51081  0.09902     N
N       0.7938  0.98919  0.59902     N
H       0.8103   0.1975   0.6914     H
H       0.8103   0.3025   0.1914     H
H       0.8103   0.6975   0.3086     H
H       0.8103   0.8025   0.8086     H
C       0.8151   0.0747   0.5278     C
C       0.8151   0.4253   0.0278     C
C       0.8151   0.5747   0.4722     C
C       0.8151   0.9253   0.9722     C
C       0.8195   0.1696   0.7245     C
C       0.8195   0.3304   0.2245     C
C       0.8195   0.6696   0.2755     C
C       0.8195   0.8304   0.7755     C
H       0.8254   0.0451   0.2392     H
H       0.8254   0.4549   0.7392     H
H       0.8254   0.5451   0.7608     H
H       0.8254   0.9549   0.2608     H
C       0.8273   0.1933   0.2037     C
C       0.8273   0.3067   0.7037     C
C       0.8273   0.6933   0.7963     C
C       0.8273   0.8067   0.2963     C
H       0.8365   0.0243   0.3655     H
H       0.8365   0.4757   0.8655     H
H       0.8365   0.5243   0.6345     H
H       0.8365   0.9757   0.1345     H
C       0.8492   0.0871   0.8191     C
C       0.8492   0.4129   0.3191     C
C       0.8492   0.5871   0.1809     C
C       0.8492   0.9129   0.6809     C
C       0.8558   0.0313   0.5677     C
C       0.8558   0.4687   0.0677     C
C       0.8558   0.5313   0.4323     C
C       0.8558   0.9687   0.9323     C
H       0.8594   0.0589    0.072     H
H       0.8594   0.4411    0.572     H
H       0.8594   0.5589    0.928     H
H       0.8594   0.9411    0.428     H
O       0.8629  0.20621    0.267     O
O       0.8629  0.29379    0.767     O
O       0.8629  0.70621    0.733     O
O       0.8629  0.79379    0.233     O
O       0.8649  0.21173    0.145     O
O       0.8649  0.28827    0.645     O
O       0.8649  0.71173    0.855     O
O       0.8649  0.78827    0.355     O
H       0.8731    0.143   0.4829     H
H       0.8731    0.357   0.9829     H
H       0.8731    0.643   0.5171     H
H       0.8731    0.857   0.0171     H
C       0.8741  0.04081   0.8666     C
C       0.8741  0.45919   0.3666     C
C       0.8741  0.54081   0.1334     C
C       0.8741  0.95919   0.6334     C
N       0.8896  0.17639   0.7818     N
N       0.8896  0.32361   0.2818     N
N       0.8896  0.67639   0.2182     N
N       0.8896  0.82361   0.7182     N
C       0.8972   0.0292   0.2589     C
C       0.8972   0.4708   0.7589     C
C       0.8972   0.5292   0.7411     C
C       0.8972   0.9708   0.2411     C
C       0.8978   0.1128    0.508     C
C       0.8978   0.3872    0.008     C
C       0.8978   0.6128    0.492     C
C       0.8978   0.8872    0.992     C
H       0.8985   0.0788    0.349     H
H       0.8985   0.4212    0.849     H
H       0.8985   0.5788    0.651     H
H       0.8985   0.9212    0.151     H
C       0.9037   0.1355   0.8287     C
C       0.9037   0.3645   0.3287     C
C       0.9037   0.6355   0.1713     C
C       0.9037   0.8645   0.6713     C
C       0.9038   0.0407   0.3412     C
C       0.9038   0.4593   0.8412     C
C       0.9038   0.5407   0.6588     C
C       0.9038   0.9593   0.1588     C
H       0.9273   0.1325   0.0111     H
H       0.9273   0.3675   0.5111     H
H       0.9273   0.6325   0.9889     H
H       0.9273   0.8675   0.4889     H
C       0.9399   0.0632   0.0622     C
C       0.9399   0.4368   0.5622     C
C       0.9399   0.5632   0.9378     C
C       0.9399   0.9368   0.4378     C
H       0.9526   0.1402   0.8694     H
H       0.9526   0.3598   0.3694     H
H       0.9526   0.6402   0.1306     H
H       0.9526   0.8598   0.6306     H
H       0.9644   0.0458   0.2347     H
H       0.9644   0.4542   0.7347     H
H       0.9644   0.5458   0.7653     H
H       0.9644   0.9542   0.2653     H
C       0.9761   0.0256    0.585     C
C       0.9761   0.4744    0.085     C
C       0.9761   0.5256    0.415     C
C       0.9761   0.9744    0.915     C
C       0.9809   0.1063   0.0254     C
C       0.9809   0.3937   0.5254     C
C       0.9809   0.6063   0.9746     C
C       0.9809   0.8937   0.4746     C
N       0.9856  0.02083   0.8746     N
N       0.9856  0.47917   0.3746     N
N       0.9856  0.52083   0.1254     N
N       0.9856  0.97917   0.6254     N
