data_I
_chemical_name_common  '/home/zhangsd/repos/MofS-CGCNN/ML/data/TSD/clean_cifs/REVYUO_clean'
_cell_length_a 20.08430
_cell_length_b 20.08430
_cell_length_c 20.24080
_cell_angle_alpha 90.00000
_cell_angle_beta  90.00000
_cell_angle_gamma 120.00000
_space_group_name_H-M_alt      'P 1'


loop_
_space_group_symop_operation_xyz
  'x, y, z' 

loop_
_atom_site_label
_atom_site_fract_x
_atom_site_fract_y
_atom_site_fract_z
_atom_site_type_symbol
Cd         0.0      0.0      0.0    Cd
Cd         0.0      0.0  0.20472    Cd
Cd         0.0      0.0  0.79528    Cd
C      0.00507  0.46043  0.15923     C
N      0.01247  0.49023  0.27513     N
H      0.01953  0.15517  0.54987     H
H      0.02563  0.55997  0.87807     H
C      0.02573  0.53637  0.78157     C
H      0.04253  0.09447  0.64037     H
H      0.04497  0.49693  0.40353     H
N       0.0487   0.1077   0.1349     N
H      0.04933  0.22517  0.45017     H
H      0.05193  0.95747  0.64037     H
N      0.05213  0.11347  0.73657     N
N       0.0552   0.9434   0.0668     N
C      0.05533  0.20747  0.54867     C
C      0.05633  0.13027  0.67417     C
N       0.0566   0.1118   0.0668     N
N        0.059   0.9513   0.1349     N
N      0.06133  0.94787  0.73657     N
C      0.07163  0.24937  0.48987     C
C      0.07393  0.94367  0.67417     C
N      0.07813  0.18187  0.77137     N
C       0.0809   0.8987   0.0522     C
N      0.08303  0.20577  0.66447     N
H       0.0839   0.8828   0.0097     H
C      0.08397  0.48893  0.15653     C
C      0.08757  0.51453  0.27063     C
C       0.0885   0.9113   0.1586     C
C       0.0887   0.1772   0.1586     C
H       0.0931   0.1908    0.203     H
C      0.09363  0.24577  0.60397     C
H      0.09447  0.05193  0.35963     H
C      0.09687  0.52803  0.39383     C
H       0.0977   0.9069    0.203     H
C      0.09783  0.23647  0.72717     C
C       0.1013   0.1822   0.0522     C
N       0.1034   0.8779   0.1081     N
N      0.10373  0.92187  0.77137     N
H       0.1067    0.799   0.2114     H
N       0.1077    0.059   0.8651     N
N      0.10783  0.56327  0.77477     N
H      0.10817  0.49083  0.11683     H
N       0.1118   0.0552   0.9332     N
N      0.11347  0.06133  0.26343     N
H       0.1172   0.2011   0.0097     H
H      0.11863  0.28837  0.73687     H
C      0.12203  0.32827  0.49257     C
N       0.1221   0.2255   0.1081     N
N      0.12273  0.91697  0.66447     N
C      0.12587  0.51453  0.21533     C
C       0.1271   0.7887   0.1741     C
N      0.12757  0.54393  0.33113     N
C      0.13027  0.07393  0.32583     C
C       0.1303   0.8227   0.1149     C
H      0.13223  0.58277  0.67637     H
H      0.13233  0.35897  0.45527     H
H      0.13563  0.98047  0.54987     H
C      0.13863  0.90217  0.72717     C
H      0.14253  0.56897  0.86967     H
N      0.14443  0.32087  0.60847     N
C      0.15113  0.58577  0.71887     C
N      0.15147  0.56293  0.43803     N
C      0.15213  0.90637  0.60397     C
C      0.15213  0.94467  0.54867     C
H      0.15517  0.13563  0.45013     H
C       0.1556   0.7383   0.1768     C
C      0.15603  0.35907  0.55177     C
C      0.15613  0.57817  0.82527     C
N       0.1569   0.8111   0.0582     N
H       0.1575    0.716   0.2165     H
H       0.1636   0.7853   0.9298     H
H      0.16973  0.88137  0.73687     H
H      0.17583  0.95067  0.45017     H
N      0.17643  0.85557  0.60847     N
C       0.1772   0.0885   0.8414     C
C       0.1773   0.3076   0.1149     C
C      0.17773  0.92837  0.48987     C
H      0.17817  0.53103  0.21653     H
C       0.1812    0.722    0.118     C
C       0.1812   0.7603   0.0627     C
N      0.18187  0.10373  0.22863     N
C       0.1822   0.0809   0.9478     C
N       0.1889   0.3458   0.0582     N
H       0.1908   0.0977    0.797     H
C       0.1947   0.7645   0.9395     C
H       0.1977   0.6862   0.1168     H
H        0.201   0.3077   0.2114     H
H       0.2011   0.0839   0.9903     H
C      0.20303  0.84397  0.55177     C
C      0.20307  0.59273  0.34083     C
N      0.20577  0.12273  0.33553     N
C      0.20623  0.87797  0.49257     C
C      0.20747  0.15213  0.45133     C
N       0.2106   0.7497   0.0022     N
N      0.21123  0.44117  0.55857     N
C       0.2113   0.3384   0.1741     C
H       0.2147   0.3783   0.9298     H
H      0.21613  0.46557  0.65697     H
N      0.21987  0.60533  0.40323     N
N      0.22153  0.61147  0.73347     N
H      0.22517  0.17583  0.54983     H
N       0.2255   0.1034   0.8919     N
N      0.22563  0.60767  0.80157     N
H      0.22663  0.86767  0.45527     H
N       0.2296   0.7448   0.8953     N
N      0.22993  0.78877  0.55857     N
C      0.23203  0.48447  0.61447     C
C       0.2355   0.4302   0.9395     C
H      0.23563  0.75977  0.46367     H
C      0.23647  0.13863  0.27283     C
H      0.23887  0.61473  0.30703     H
C       0.2397   0.4209   0.0627     C
H      0.24023  0.47587  0.46367     H
C      0.24463  0.48947  0.50807     C
C      0.24483  0.75537  0.50807     C
C      0.24577  0.15213  0.39603     C
C      0.24937  0.17773  0.51013     C
H      0.24943  0.78387  0.65697     H
N       0.2503   0.4609   0.0022     N
C      0.25243  0.76797  0.61447     C
N       0.2552   0.4848   0.8953     N
C       0.2594    0.723   0.9925     C
C       0.2617   0.4173   0.1768     C
N        0.272   0.7188   0.9301     N
N      0.27433  0.71537  0.53177     N
N      0.27673  0.55487  0.59987     N
C        0.277   0.5364   0.9925     C
C        0.278   0.4592    0.118     C
N      0.27813  0.72327  0.59987     N
N       0.2812   0.5532   0.9301     N
H       0.2814   0.7092   0.0263     H
H        0.284   0.4415   0.2165     H
N      0.28463  0.55897  0.53177     N
H      0.28837  0.16973  0.26313     H
H       0.2908   0.5722   0.0263     H
C       0.3076   0.1303   0.8851     C
H       0.3077   0.1067   0.7886     H
H       0.3138   0.5115   0.1168     H
N      0.32087  0.17643  0.39153     N
C      0.32827  0.20623  0.50743     C
Cd     0.33333  0.66667  0.46195    Cd
Cd     0.33333  0.66667  0.66667    Cd
Cd     0.33333  0.66667  0.87139    Cd
C       0.3384   0.1271   0.8259     C
N       0.3458   0.1569   0.9418     N
H      0.35287  0.82183  0.21653     H
H      0.35897  0.22663  0.54473     H
C      0.35907  0.20303  0.44823     C
H      0.37587  0.76113  0.30703     H
H       0.3783   0.1636   0.0702     H
N      0.38203  0.77437  0.80157     N
H      0.38267  0.89183  0.11683     H
H      0.38527  0.62413  0.30703     H
N      0.38547  0.78013  0.40323     N
N      0.38853  0.61007  0.73347     N
C      0.38867  0.87413  0.21533     C
C      0.38967  0.79693  0.34083     C
N      0.38993  0.77847  0.73347     N
N      0.39233  0.61797  0.80157     N
N      0.39467  0.61453  0.40323     N
C      0.40497  0.91603  0.15653     C
C      0.40727  0.61033  0.34083     C
N      0.41147  0.84853  0.43803     N
C      0.41423  0.56537  0.71887     C
N      0.41637  0.87243  0.33113     N
H      0.41723  0.54947  0.67637     H
C       0.4173   0.1556   0.8232     C
C       0.4209   0.1812   0.9373     C
C      0.42183  0.57797  0.82527     C
C      0.42203  0.84387  0.82527     C
H      0.42643  0.85747  0.86967     H
C      0.42697  0.91243  0.27063     C
H       0.4278   0.7186   0.0263     H
C       0.4302   0.1947   0.0605     C
H      0.43103  0.57357  0.86967     H
C      0.43117  0.90313  0.39383     C
C      0.43463  0.84887  0.71887     C
N      0.43673  0.54457  0.77477     N
N      0.43707  0.58853  0.43803     N
H      0.44003  0.46567  0.87807     H
N      0.44103  0.72567  0.53177     N
N      0.44117  0.22993  0.44143     N
H       0.4415   0.1575   0.7835     H
N      0.44513  0.72187  0.59987     N
N       0.4468    0.728   0.9301     N
H      0.45053  0.86777  0.67637     H
H      0.45197  0.95503  0.40353     H
C      0.45537  0.99493  0.15923     C
N      0.45543  0.89217  0.77477     N
N      0.45607  0.58363  0.33113     N
C       0.4592   0.1812    0.882     C
C      0.46043  0.45537  0.84077     C
N       0.4609   0.2106   0.9978     N
C       0.4636   0.7406   0.9925     C
C      0.46363  0.48937  0.78157     C
H      0.46557  0.24943  0.34303     H
H      0.46567  0.02563  0.12193     H
H      0.46897  0.64713  0.21653     H
C      0.47197  0.56883  0.39383     C
H      0.47587  0.23563  0.53633     H
N      0.47777  0.98753  0.27513     N
C      0.48447  0.25243  0.38553     C
N       0.4848   0.2296   0.1047     N
C      0.48547  0.57303  0.27063     C
C      0.48547  0.61133  0.21533     C
H       0.4885   0.8023   0.1168     H
C      0.48893  0.40497  0.84347     C
C      0.48937  0.02573  0.21843     C
C      0.48947  0.24483  0.49193     C
N      0.49023  0.47777  0.72487     N
H      0.49083  0.38267  0.88317     H
H      0.49693  0.45197  0.59647     H
H      0.50307  0.54803  0.40353     H
H      0.50917  0.61733  0.11683     H
N      0.50977  0.52223  0.27513     N
C      0.51053  0.75517  0.50807     C
C      0.51063  0.97427  0.78157     C
C      0.51107  0.59503  0.15653     C
H       0.5115   0.1977   0.8832     H
C      0.51453  0.38867  0.78467     C
C      0.51453  0.42697  0.72937     C
N       0.5152   0.7704   0.8953     N
C      0.51553  0.74757  0.61447     C
N      0.52223  0.01247  0.72487     N
H      0.52413  0.76437  0.46367     H
C      0.52803  0.43117  0.60617     C
H      0.53103  0.35287  0.78347     H
H      0.53433  0.97437  0.87807     H
H      0.53443  0.75057  0.65697     H
C      0.53637  0.51063  0.21843     C
C       0.5364   0.2594   0.0075     C
N       0.5391   0.7894   0.0022     N
C      0.53957  0.54463  0.15923     C
C       0.5408   0.8188    0.118     C
N      0.54393  0.41637  0.66887     N
N      0.54457  0.10783  0.22523     N
C      0.54463  0.00507  0.84077     C
H      0.54803  0.04497  0.59647     H
H      0.54947  0.13223  0.32363     H
N       0.5532    0.272   0.0699     N
N      0.55487  0.27813  0.40013     N
H       0.5585   0.8425   0.2165     H
N      0.55883  0.77007  0.55857     N
N      0.55897  0.27433  0.46823     N
H      0.55997  0.53433  0.12193     H
N      0.56293  0.41147  0.56197     N
N      0.56327  0.45543  0.22523     N
C      0.56537  0.15113  0.28113     C
C      0.56883  0.09687  0.60617     C
H      0.56897  0.42643  0.13033     H
C       0.5698   0.8053   0.9395     C
H       0.5722   0.2814   0.9737     H
C      0.57303  0.08757  0.72937     C
H      0.57357  0.14253  0.13033     H
C      0.57797  0.15613  0.17473     C
C      0.57817  0.42203  0.17473     C
C       0.5791   0.8188   0.0627     C
C       0.5827   0.8444   0.1768     C
H      0.58277  0.45053  0.32363     H
N      0.58363  0.12757  0.66887     N
C      0.58577  0.43463  0.28113     C
N      0.58853  0.15147  0.56197     N
C      0.59273  0.38967  0.65917     C
C      0.59503  0.08397  0.84347     C
N      0.60533  0.38547  0.59677     N
N      0.60767  0.38203  0.19843     N
N      0.61007  0.22153  0.26653     N
C      0.61033  0.20307  0.65917     C
C      0.61133  0.12587  0.78467     C
N      0.61147  0.38993  0.26653     N
N      0.61453  0.21987  0.59677     N
H      0.61473  0.37587  0.69297     H
H      0.61733  0.10817  0.88317     H
N      0.61797  0.22563  0.19843     N
H       0.6217   0.8364   0.9298     H
H      0.62413  0.23887  0.69297     H
C      0.64093  0.79697  0.55177     C
H      0.64103  0.77337  0.45527     H
H      0.64713  0.17817  0.78347     H
N       0.6542   0.8431   0.0582     N
C       0.6616   0.8729   0.1741     C
Cd     0.66667  0.33333  0.12861    Cd
Cd     0.66667  0.33333  0.33333    Cd
Cd     0.66667  0.33333  0.53805    Cd
C      0.67173  0.79377  0.49257     C
N      0.67913  0.82357  0.60847     N
H       0.6862   0.4885   0.8832     H
H       0.6923   0.8933   0.2114     H
C       0.6924   0.8697   0.1149     C
H       0.7092   0.4278   0.9737     H
H      0.71163  0.83027  0.73687     H
N      0.71537  0.44103  0.46823     N
H        0.716   0.5585   0.7835     H
H       0.7186   0.2908   0.9737     H
N       0.7188   0.4468   0.0699     N
N      0.72187  0.27673  0.40013     N
C        0.722   0.5408    0.882     C
C        0.723   0.4636   0.0075     C
N      0.72327  0.44513  0.40013     N
N      0.72567  0.28463  0.46823     N
N        0.728   0.2812   0.0699     N
C       0.7383   0.5827   0.8232     C
C       0.7406    0.277   0.0075     C
N       0.7448   0.5152   0.1047     N
C      0.74757  0.23203  0.38553     C
N       0.7497   0.5391   0.9978     N
H      0.75057  0.21613  0.34303     H
C      0.75063  0.82227  0.48987     C
C      0.75423  0.84787  0.60397     C
C      0.75517  0.24463  0.49193     C
C      0.75537  0.51053  0.49193     C
H      0.75977  0.52413  0.53633     H
C       0.7603   0.5791   0.9373     C
H      0.76113  0.38527  0.69297     H
C      0.76353  0.86137  0.72717     C
H      0.76437  0.24023  0.53633     H
C       0.7645   0.5698   0.0605     C
C      0.76797  0.51553  0.38553     C
N      0.77007  0.21123  0.44143     N
N       0.7704   0.2552   0.1047     N
H      0.77337  0.13233  0.54473     H
N      0.77437  0.39233  0.19843     N
N       0.7745   0.8966   0.1081     N
H      0.77483  0.82417  0.45017     H
N      0.77847  0.38853  0.26653     N
N      0.78013  0.39467  0.59677     N
H      0.78387  0.53443  0.34303     H
H       0.7853   0.6217   0.0702     H
C       0.7887   0.6616   0.8259     C
N      0.78877  0.55883  0.44143     N
N       0.7894   0.2503   0.9978     N
C      0.79253  0.84787  0.54867     C
C      0.79377  0.12203  0.50743     C
N      0.79423  0.87727  0.66447     N
C      0.79693  0.40727  0.65917     C
C      0.79697  0.15603  0.44823     C
H       0.7989   0.9161   0.0097     H
H        0.799   0.6923   0.7886     H
H       0.8023   0.3138   0.8832     H
C       0.8053   0.2355   0.0605     C
H       0.8092   0.9023    0.203     H
N       0.8111   0.6542   0.9418     N
C       0.8178   0.9191   0.0522     C
N      0.81813  0.89627  0.77137     N
C       0.8188   0.2397   0.9373     C
C       0.8188    0.278    0.882     C
H      0.82183  0.46897  0.78347     H
C      0.82227  0.07163  0.51013     C
C       0.8227   0.6924   0.8851     C
C       0.8228   0.9115   0.1586     C
N      0.82357  0.14443  0.39153     N
H      0.82417  0.04933  0.54983     H
H      0.83027  0.11863  0.26313     H
H       0.8364   0.2147   0.0702     H
H       0.8425    0.284   0.7835     H
N       0.8431   0.1889   0.9418     N
C      0.84387  0.42183  0.17473     C
C      0.84397  0.64093  0.44823     C
C       0.8444   0.2617   0.8232     C
H      0.84483  0.86437  0.54987     H
C      0.84787  0.05533  0.45133     C
C      0.84787  0.09363  0.39603     C
N      0.84853  0.43707  0.56197     N
C      0.84887  0.41423  0.28113     C
N      0.85557  0.67913  0.39153     N
H      0.85747  0.43103  0.13033     H
C      0.86137  0.09783  0.27283     C
H      0.86437  0.01953  0.45013     H
H      0.86767  0.64103  0.54473     H
H      0.86777  0.41723  0.32363     H
C       0.8697   0.1773   0.8851     C
C      0.86973  0.92607  0.67417     C
N      0.87243  0.45607  0.66887     N
C       0.8729   0.2113   0.8259     C
C      0.87413  0.48547  0.78467     C
N      0.87727  0.08303  0.33553     N
N       0.8779   0.7745   0.8919     N
C      0.87797  0.67173  0.50743     C
H      0.88137  0.71163  0.26313     H
H       0.8828   0.7989   0.9903     H
N      0.88653  0.93867  0.73657     N
N       0.8882   0.9448   0.0668     N
H      0.89183  0.50917  0.88317     H
N      0.89217  0.43673  0.22523     N
N       0.8923    0.941   0.1349     N
H       0.8933    0.201   0.7886     H
N      0.89627  0.07813  0.22863     N
N       0.8966   0.1221   0.8919     N
C       0.8987   0.8178   0.9478     C
C      0.90217  0.76353  0.27283     C
H       0.9023   0.0931    0.797     H
C      0.90313  0.47197  0.60617     C
H      0.90553  0.94807  0.64037     H
C      0.90637  0.75423  0.39603     C
H       0.9069   0.8092    0.797     H
C       0.9113   0.8228   0.8414     C
C       0.9115   0.0887   0.8414     C
C      0.91243  0.48547  0.72937     C
C      0.91603  0.51107  0.84347     C
H       0.9161   0.1172   0.9903     H
N      0.91697  0.79423  0.33553     N
C       0.9191   0.1013   0.9478     C
N      0.92187  0.81813  0.22863     N
C      0.92607  0.05633  0.32583     C
C      0.92837  0.75063  0.51013     C
N      0.93867  0.05213  0.26343     N
N        0.941   0.0487   0.8651     N
N       0.9434   0.8882   0.9332     N
C      0.94367  0.86973  0.32583     C
C      0.94467  0.79253  0.45133     C
N       0.9448   0.0566   0.9332     N
N      0.94787  0.88653  0.26343     N
H      0.94807  0.04253  0.35963     H
H      0.95067  0.77483  0.54983     H
N       0.9513   0.8923   0.8651     N
H      0.95503  0.50307  0.59647     H
H      0.95747  0.90553  0.35963     H
C      0.97427  0.46363  0.21843     C
H      0.97437  0.44003  0.12193     H
H      0.98047  0.84483  0.45013     H
N      0.98753  0.50977  0.72487     N
C      0.99493  0.53957  0.84077     C
