data_I
_chemical_name_common  '/home/zhangsd/repos/MofS-CGCNN/ML/data/TSD/clean_cifs/REWSUJ_clean'
_cell_length_a 12.37430
_cell_length_b 14.58420
_cell_length_c 21.94350
_cell_angle_alpha 90.00000
_cell_angle_beta  104.82100
_cell_angle_gamma 90.00000
_space_group_name_H-M_alt      'P 1'


loop_
_space_group_symop_operation_xyz
  'x, y, z' 

loop_
_atom_site_label
_atom_site_fract_x
_atom_site_fract_y
_atom_site_fract_z
_atom_site_type_symbol
C          0.0    0.335     0.25     C
C          0.0   0.4414     0.25     C
C          0.0   0.5586     0.75     C
C          0.0    0.665     0.75     C
H       0.0039   0.0571   0.1013     H
H       0.0039   0.9429   0.6013     H
O       0.0057  0.46704  0.92415     O
O       0.0057  0.53296  0.42415     O
O       0.0116  0.23104  0.41705     O
O       0.0116  0.76896  0.91705     O
C       0.0118    0.458  0.52223     C
C       0.0118    0.542  0.02223     C
O       0.0204  0.47991  0.30284     O
O       0.0204  0.52009  0.80284     O
H       0.0235    0.094   0.9285     H
H       0.0235    0.906   0.4285     H
O       0.0277  0.29698  0.30278     O
O       0.0277  0.70302  0.80278     O
O       0.0422  0.38579   0.5004     O
O       0.0422  0.61421   0.0004     O
C       0.0576   0.0408  0.43279     C
C       0.0576   0.9592  0.93279     C
Dy     0.06649  0.38594  0.39647    Dy
Dy     0.06649  0.61406  0.89647    Dy
H       0.0687   0.2965   0.9367     H
H       0.0687   0.7035   0.4367     H
C       0.0741   0.0487  0.95026     C
C       0.0741   0.9513  0.45026     C
H       0.0978   0.3553   0.8439     H
H       0.0978   0.6447   0.3439     H
C       0.1103   0.2064  0.44443     C
C       0.1103   0.7936  0.94443     C
H       0.1185   0.2047   0.0247     H
H       0.1185   0.7953   0.5247     H
C       0.1292   0.1086  0.46404     C
C       0.1292   0.8914  0.96404     C
C       0.1333   0.2792  0.92366     C
C       0.1333   0.7208  0.42366     C
H       0.1475   0.4173   0.7676     H
H       0.1475   0.5827   0.2676     H
C       0.1497   0.3131  0.86836     C
C       0.1497   0.6869  0.36836     C
H       0.1613   0.4473   0.6678     H
H       0.1613   0.5527   0.1678     H
C       0.1631   0.0747  0.99904     C
C       0.1631   0.9253  0.49904     C
C       0.1848   0.1766  0.01482     C
C       0.1848   0.8234  0.51482     C
O       0.1901  0.26279   0.4527     O
O       0.1901  0.73721   0.9527     O
C       0.1973   0.3821   0.7505     C
C       0.1973   0.6179   0.2505     C
C       0.2072   0.4013  0.69203     C
C       0.2072   0.5987  0.19203     C
N       0.2081   0.2217  0.95937     N
N       0.2081   0.7783  0.45937     N
C       0.2201    0.084  0.51416     C
C       0.2201    0.916  0.01416     C
H       0.2356   0.4247   0.5836     H
H       0.2356   0.5753   0.0836     H
O       0.2362  0.47642  0.44423     O
O       0.2362  0.52358  0.94423     O
O       0.2364  0.40064  0.35803     O
O       0.2364  0.59936  0.85803     O
C       0.2367   0.0085  0.03169     C
C       0.2367   0.9915  0.53169     C
C       0.2428   0.2854  0.84807     C
C       0.2428   0.7146  0.34807     C
H       0.2494   0.1836   0.0519     H
H       0.2494   0.8164   0.5519     H
C       0.2571   0.3137  0.78546     C
C       0.2571   0.6863  0.28546     C
H       0.2699   0.1296   0.5361     H
H       0.2699   0.8704   0.0361     H
H       0.2797   0.3228    0.577     H
H       0.2797   0.6772    0.077     H
N       0.2806   0.3563  0.66761     N
N       0.2806   0.6437  0.16761     N
C       0.2822   0.4572  0.39975     C
C       0.2822   0.5428  0.89975     C
C       0.2928   0.3788   0.6034     C
C       0.2928   0.6212   0.1034     C
H       0.2978   0.0259   0.0656     H
H       0.2978   0.9741   0.5656     H
C       0.3021   0.1985  0.94289     C
C       0.3021   0.8015  0.44289     C
C       0.3215   0.2284  0.88872     C
C       0.3215   0.7716  0.38872     C
C       0.3303   0.2641   0.7582     C
C       0.3303   0.7359   0.2582     C
C       0.3399   0.2877   0.6991     C
C       0.3399   0.7123   0.1991     C
H       0.3556   0.1602     0.97     H
H       0.3556   0.8398     0.47     H
H       0.3728   0.2147   0.7804     H
H       0.3728   0.7853   0.2804     H
H       0.3882   0.2111   0.8778     H
H       0.3882   0.7889   0.3778     H
H       0.3895   0.2544   0.6807     H
H       0.3895   0.7456   0.1807     H
C       0.3901   0.4982  0.89846     C
C       0.3901   0.5018  0.39846     C
H       0.4041   0.4141   0.9736     H
H       0.4041   0.5859   0.4736     H
C       0.4069   0.4161   0.6058     C
C       0.4069   0.5839   0.1058     C
H       0.4106   0.4349   0.3209     H
H       0.4106   0.5651   0.8209     H
H       0.4222   0.4981   0.6824     H
H       0.4222   0.5019   0.1824     H
H       0.4295   0.3442   0.5309     H
H       0.4295   0.6558   0.0309     H
C       0.4394   0.4318  0.94166     C
C       0.4394   0.5682  0.44166     C
C       0.4437    0.479  0.35188     C
C       0.4437    0.521  0.85188     C
C        0.457   0.4811   0.6502     C
C        0.457   0.5189   0.1502     C
C       0.4609   0.3905   0.5606     C
C       0.4609   0.6095   0.0606     C
C       0.5391   0.3905   0.9394     C
C       0.5391   0.6095   0.4394     C
C        0.543   0.4811   0.8498     C
C        0.543   0.5189   0.3498     C
C       0.5563    0.479  0.14812     C
C       0.5563    0.521  0.64812     C
C       0.5606   0.4318  0.55834     C
C       0.5606   0.5682  0.05834     C
H       0.5705   0.3442   0.9691     H
H       0.5705   0.6558   0.4691     H
H       0.5778   0.4981   0.8176     H
H       0.5778   0.5019   0.3176     H
H       0.5894   0.4349   0.1791     H
H       0.5894   0.5651   0.6791     H
C       0.5931   0.4161   0.8942     C
C       0.5931   0.5839   0.3942     C
H       0.5959   0.4141   0.5264     H
H       0.5959   0.5859   0.0264     H
C       0.6099   0.4982  0.60154     C
C       0.6099   0.5018  0.10154     C
H       0.6105   0.2544   0.8193     H
H       0.6105   0.7456   0.3193     H
H       0.6118   0.2111   0.6222     H
H       0.6118   0.7889   0.1222     H
H       0.6272   0.2147   0.7196     H
H       0.6272   0.7853   0.2196     H
H       0.6444   0.1602     0.53     H
H       0.6444   0.8398     0.03     H
C       0.6601   0.2877   0.8009     C
C       0.6601   0.7123   0.3009     C
C       0.6697   0.2641   0.7418     C
C       0.6697   0.7359   0.2418     C
C       0.6785   0.2284  0.61128     C
C       0.6785   0.7716  0.11128     C
C       0.6979   0.1985  0.55711     C
C       0.6979   0.8015  0.05711     C
H       0.7022   0.0259   0.4344     H
H       0.7022   0.9741   0.9344     H
C       0.7072   0.3788   0.8966     C
C       0.7072   0.6212   0.3966     C
C       0.7178   0.4572  0.10025     C
C       0.7178   0.5428  0.60025     C
N       0.7194   0.3563  0.83239     N
N       0.7194   0.6437  0.33239     N
H       0.7203   0.3228    0.923     H
H       0.7203   0.6772    0.423     H
H       0.7301   0.1296   0.9639     H
H       0.7301   0.8704   0.4639     H
C       0.7429   0.3137  0.71454     C
C       0.7429   0.6863  0.21454     C
H       0.7506   0.1836   0.4481     H
H       0.7506   0.8164   0.9481     H
C       0.7572   0.2854  0.65193     C
C       0.7572   0.7146  0.15193     C
C       0.7633   0.0085  0.46831     C
C       0.7633   0.9915  0.96831     C
O       0.7636  0.40064  0.14197     O
O       0.7636  0.59936  0.64197     O
O       0.7638  0.47642  0.05577     O
O       0.7638  0.52358  0.55577     O
H       0.7644   0.4247   0.9164     H
H       0.7644   0.5753   0.4164     H
C       0.7799    0.084  0.98584     C
C       0.7799    0.916  0.48584     C
N       0.7919   0.2217  0.54063     N
N       0.7919   0.7783  0.04063     N
C       0.7928   0.4013  0.80797     C
C       0.7928   0.5987  0.30797     C
C       0.8027   0.3821   0.7495     C
C       0.8027   0.6179   0.2495     C
O       0.8099  0.26279   0.0473     O
O       0.8099  0.73721   0.5473     O
C       0.8152   0.1766  0.48518     C
C       0.8152   0.8234  0.98518     C
C       0.8369   0.0747  0.50096     C
C       0.8369   0.9253  0.00096     C
H       0.8387   0.4473   0.8322     H
H       0.8387   0.5527   0.3322     H
C       0.8503   0.3131  0.63164     C
C       0.8503   0.6869  0.13164     C
H       0.8525   0.4173   0.7324     H
H       0.8525   0.5827   0.2324     H
C       0.8667   0.2792  0.57634     C
C       0.8667   0.7208  0.07634     C
C       0.8708   0.1086  0.03596     C
C       0.8708   0.8914  0.53596     C
H       0.8815   0.2047   0.4753     H
H       0.8815   0.7953   0.9753     H
C       0.8897   0.2064  0.05557     C
C       0.8897   0.7936  0.55557     C
H       0.9022   0.3553   0.6561     H
H       0.9022   0.6447   0.1561     H
C       0.9259   0.0487  0.54974     C
C       0.9259   0.9513  0.04974     C
H       0.9313   0.2965   0.5633     H
H       0.9313   0.7035   0.0633     H
Dy     0.93351  0.38594  0.10353    Dy
Dy     0.93351  0.61406  0.60353    Dy
C       0.9424   0.0408  0.06721     C
C       0.9424   0.9592  0.56721     C
O       0.9578  0.38579   0.9996     O
O       0.9578  0.61421   0.4996     O
O       0.9723  0.29698  0.19722     O
O       0.9723  0.70302  0.69722     O
H       0.9765    0.094   0.5715     H
H       0.9765    0.906   0.0715     H
O       0.9796  0.47991  0.19716     O
O       0.9796  0.52009  0.69716     O
C       0.9882    0.458  0.97777     C
C       0.9882    0.542  0.47777     C
O       0.9884  0.23104  0.08295     O
O       0.9884  0.76896  0.58295     O
O       0.9943  0.46704  0.57585     O
O       0.9943  0.53296  0.07585     O
H       0.9961   0.0571   0.3987     H
H       0.9961   0.9429   0.8987     H
