data_I
_chemical_name_common  '/home/zhangsd/repos/MofS-CGCNN/ML/data/TSD/clean_cifs/RIBDAJ_clean'
_cell_length_a  9.96160
_cell_length_b  9.96160
_cell_length_c 19.68000
_cell_angle_alpha 90.00000
_cell_angle_beta  90.00000
_cell_angle_gamma 102.87900
_space_group_name_H-M_alt      'P 1'


loop_
_space_group_symop_operation_xyz
  'x, y, z' 

loop_
_atom_site_label
_atom_site_fract_x
_atom_site_fract_y
_atom_site_fract_z
_atom_site_type_symbol
C       0.0108   0.9892     0.75     C
H       0.0117   0.6639   0.7516     H
C       0.0419   0.1511   0.2505     C
C       0.0473   0.7585   0.7509     C
H       0.0489   0.9511     0.25     H
O       0.1041   0.1441   0.9463     O
O       0.1379   0.2783   0.7598     O
O       0.1441   0.1041   0.0537     O
C       0.1511   0.0419   0.7495     C
C       0.1681   0.1681      0.0     C
C       0.1899   0.8101     0.75     C
C       0.1939   0.2097   0.2534     C
C       0.2097   0.1939   0.7466     C
O       0.2312   0.5886   0.7416     O
O       0.2391   0.3367   0.2674     O
C       0.2415   0.9527   0.7491     C
O       0.2783   0.1379   0.2402     O
C       0.2863   0.7137     0.75     C
H       0.2878   0.3256      0.9     H
C       0.2889   0.2889      0.0     C
Ni     0.31304  0.43132  0.73365    Ni
H       0.3256   0.2878      0.1     H
O       0.3275   0.4341   0.6141     O
C       0.3325   0.3569   0.9404     C
H       0.3361   0.9883   0.7484     H
O       0.3367   0.2391   0.7326     O
C       0.3569   0.3325   0.0596     C
O       0.4114   0.7688   0.7584     O
H       0.4137   0.4137      0.5     H
Ni     0.43132  0.31304  0.26635    Ni
O       0.4341   0.3275   0.3859     O
C       0.4405   0.4697    0.939     C
C       0.4417   0.5049   0.6234     C
O       0.4642   0.5118   0.8207     O
C       0.4697   0.4405    0.061     C
O       0.4882   0.5358   0.6793     O
C       0.4885   0.4885      0.5     C
C       0.4951   0.5583   0.8766     C
C       0.5049   0.4417   0.3766     C
C       0.5115   0.5115      0.0     C
O       0.5118   0.4642   0.1793     O
C       0.5303   0.5595    0.561     C
O       0.5358   0.4882   0.3207     O
C       0.5583   0.4951   0.1234     C
C       0.5595   0.5303    0.439     C
O       0.5659   0.6725   0.8859     O
Ni     0.56868  0.68696  0.76635    Ni
H       0.5863   0.5863      0.0     H
O       0.5886   0.2312   0.2584     O
C       0.6431   0.6675   0.5596     C
O       0.6633   0.7609   0.2326     O
H       0.6639   0.0117   0.2484     H
C       0.6675   0.6431   0.4404     C
O       0.6725   0.5659   0.1141     O
H       0.6744   0.7122      0.6     H
Ni     0.68696  0.56868  0.23365    Ni
C       0.7111   0.7111      0.5     C
H       0.7122   0.6744      0.4     H
C       0.7137   0.2863     0.25     C
O       0.7217   0.8621   0.7402     O
C       0.7585   0.0473   0.2491     C
O       0.7609   0.6633   0.7674     O
O       0.7688   0.4114   0.2416     O
C       0.7903   0.8061   0.2466     C
C       0.8061   0.7903   0.7534     C
C       0.8101   0.1899     0.25     C
C       0.8319   0.8319      0.5     C
C       0.8489   0.9581   0.2495     C
O       0.8559   0.8959   0.5537     O
O       0.8621   0.7217   0.2598     O
O       0.8959   0.8559   0.4463     O
H       0.9511   0.0489     0.75     H
C       0.9527   0.2415   0.2509     C
C       0.9581   0.8489   0.7505     C
H       0.9883   0.3361   0.2516     H
C       0.9892   0.0108     0.25     C
