data_I
_chemical_name_common  '/home/zhangsd/repos/MofS-CGCNN/ML/data/TSD/clean_cifs/ROLCEC13_clean'
_cell_length_a  7.31920
_cell_length_b  7.31920
_cell_length_c 24.38100
_cell_angle_alpha 90.00000
_cell_angle_beta  90.00000
_cell_angle_gamma 120.00000
_space_group_name_H-M_alt      'P 1'


loop_
_space_group_symop_operation_xyz
  'x, y, z' 

loop_
_atom_site_label
_atom_site_fract_x
_atom_site_fract_y
_atom_site_fract_z
_atom_site_type_symbol
H          0.0   0.4003  0.83333     H
C          0.0   0.4727  0.33333     C
C          0.0   0.5273  0.83333     C
H          0.0   0.5997  0.33333     H
H       0.0296   0.4724  0.16887     H
H       0.0296   0.5572   0.9978     H
C       0.0314   0.4311    0.999     C
C       0.0314   0.6003  0.16767     C
O       0.0788   0.3767  0.70227     O
O       0.0788   0.7021   0.4644     O
O       0.1133   0.4514  0.36754     O
O       0.1133   0.6619  0.79913     O
O       0.1409   0.4195  0.03423     O
O       0.1409   0.7214  0.13244     O
O       0.2786   0.4195  0.46577     O
O       0.2786   0.8591   0.7009     O
O       0.2979   0.3767  0.79773     O
O       0.2979   0.9212  0.36893     O
Cu      0.3177  0.68229  0.41667    Cu
Cu     0.31771  0.63541     0.75    Cu
O       0.3381   0.4514  0.13246     O
O       0.3381   0.8867  0.03421     O
Cu     0.36459   0.6823  0.08333    Cu
O       0.3767   0.0788  0.63107     O
O       0.3767   0.2979   0.5356     O
C       0.3997   0.4311    0.501     C
C       0.3997   0.9686  0.66567     C
H       0.4003      0.0      0.5     H
H       0.4003   0.4003  0.66667     H
O       0.4195   0.1409   0.2991     O
O       0.4195   0.2786  0.86756     O
C       0.4311   0.0314  0.33433     C
C       0.4311   0.3997  0.83233     C
H       0.4428   0.4724  0.33113     H
H       0.4428   0.9704  0.83553     H
O       0.4514   0.1133  0.96579     O
O       0.4514   0.3381  0.20087     O
H       0.4724   0.0296  0.16447     H
H       0.4724   0.4428   0.0022     H
C       0.4727      0.0      0.0     C
C       0.4727   0.4727  0.16667     C
C       0.5273      0.0      0.5     C
C       0.5273   0.5273  0.66667     C
H       0.5276   0.5572   0.5022     H
H       0.5276   0.9704  0.66447     H
O       0.5486   0.6619  0.70087     O
O       0.5486   0.8867  0.46579     O
H       0.5572   0.0296  0.33553     H
H       0.5572   0.5276  0.83113     H
C       0.5689   0.6003  0.33233     C
C       0.5689   0.9686  0.83433     C
O       0.5805   0.7214  0.36756     O
O       0.5805   0.8591   0.7991     O
H       0.5997      0.0      0.0     H
H       0.5997   0.5997  0.16667     H
C       0.6003   0.0314  0.16567     C
C       0.6003   0.5689    0.001     C
O       0.6233   0.7021   0.0356     O
O       0.6233   0.9212  0.13107     O
Cu     0.63541   0.3177  0.58333    Cu
O       0.6619   0.1133  0.53421     O
O       0.6619   0.5486  0.63246     O
Cu     0.68229  0.36459     0.25    Cu
Cu      0.6823   0.3177  0.91667    Cu
O       0.7021   0.0788  0.86893     O
O       0.7021   0.6233  0.29773     O
O       0.7214   0.1409   0.2009     O
O       0.7214   0.5805  0.96577     O
O       0.8591   0.2786  0.63244     O
O       0.8591   0.5805  0.53423     O
O       0.8867   0.3381  0.29913     O
O       0.8867   0.5486  0.86754     O
O       0.9212   0.2979   0.9644     O
O       0.9212   0.6233  0.20227     O
C       0.9686   0.3997  0.66767     C
C       0.9686   0.5689    0.499     C
H       0.9704   0.4428   0.4978     H
H       0.9704   0.5276  0.66887     H
