data_I
_chemical_name_common  '/home/zhangsd/repos/MofS-CGCNN/ML/data/TSD/clean_cifs/ROLCEC16_clean'
_cell_length_a  7.33380
_cell_length_b  7.33380
_cell_length_c 24.41000
_cell_angle_alpha 90.00000
_cell_angle_beta  90.00000
_cell_angle_gamma 120.00000
_space_group_name_H-M_alt      'P 1'


loop_
_space_group_symop_operation_xyz
  'x, y, z' 

loop_
_atom_site_label
_atom_site_fract_x
_atom_site_fract_y
_atom_site_fract_z
_atom_site_type_symbol
H          0.0   0.3992  0.83333     H
C          0.0    0.474  0.33333     C
C          0.0    0.526  0.83333     C
H          0.0   0.6008  0.33333     H
H       0.0299   0.4706  0.16817     H
H       0.0299   0.5593   0.9985     H
C       0.0317   0.4335   0.9993     C
C       0.0317   0.5982  0.16737     C
O         0.08   0.3795  0.70207     O
O         0.08   0.7005   0.4646     O
O       0.1138    0.451   0.3677     O
O       0.1138   0.6628  0.79897     O
O       0.1426   0.4201   0.0339     O
O       0.1426   0.7225  0.13277     O
O       0.2775   0.4201   0.4661     O
O       0.2775   0.8574  0.70057     O
O       0.2995   0.3795  0.79793     O
O       0.2995     0.92  0.36873     O
Cu     0.31801  0.63602     0.75    Cu
Cu     0.31801  0.68199  0.41667    Cu
O       0.3372    0.451   0.1323     O
O       0.3372   0.8862  0.03437     O
Cu     0.36398  0.68199  0.08333    Cu
O       0.3795     0.08  0.63127     O
O       0.3795   0.2995   0.5354     O
H       0.3992      0.0      0.5     H
H       0.3992   0.3992  0.66667     H
C       0.4018   0.4335   0.5007     C
C       0.4018   0.9683  0.66597     C
O       0.4201   0.1426  0.29943     O
O       0.4201   0.2775  0.86723     O
C       0.4335   0.0317  0.33403     C
C       0.4335   0.4018  0.83263     C
H       0.4407   0.4706  0.33183     H
H       0.4407   0.9701  0.83483     H
O        0.451   0.1138  0.96563     O
O        0.451   0.3372  0.20103     O
H       0.4706   0.0299  0.16517     H
H       0.4706   0.4407   0.0015     H
C        0.474      0.0      0.0     C
C        0.474    0.474  0.16667     C
C        0.526      0.0      0.5     C
C        0.526    0.526  0.66667     C
H       0.5294   0.5593   0.5015     H
H       0.5294   0.9701  0.66517     H
O        0.549   0.6628  0.70103     O
O        0.549   0.8862  0.46563     O
H       0.5593   0.0299  0.33483     H
H       0.5593   0.5294  0.83183     H
C       0.5665   0.5982  0.33263     C
C       0.5665   0.9683  0.83403     C
O       0.5799   0.7225  0.36723     O
O       0.5799   0.8574  0.79943     O
C       0.5982   0.0317  0.16597     C
C       0.5982   0.5665   0.0007     C
H       0.6008      0.0      0.0     H
H       0.6008   0.6008  0.16667     H
O       0.6205   0.7005   0.0354     O
O       0.6205     0.92  0.13127     O
Cu     0.63602  0.31801  0.58333    Cu
O       0.6628   0.1138  0.53437     O
O       0.6628    0.549   0.6323     O
Cu     0.68199  0.31801  0.91667    Cu
Cu     0.68199  0.36398     0.25    Cu
O       0.7005     0.08  0.86873     O
O       0.7005   0.6205  0.29793     O
O       0.7225   0.1426  0.20057     O
O       0.7225   0.5799   0.9661     O
O       0.8574   0.2775  0.63277     O
O       0.8574   0.5799   0.5339     O
O       0.8862   0.3372  0.29897     O
O       0.8862    0.549   0.8677     O
O         0.92   0.2995   0.9646     O
O         0.92   0.6205  0.20207     O
C       0.9683   0.4018  0.66737     C
C       0.9683   0.5665   0.4993     C
H       0.9701   0.4407   0.4985     H
H       0.9701   0.5294  0.66817     H
