data_I
_chemical_name_common  '/home/zhangsd/repos/MofS-CGCNN/ML/data/TSD/clean_cifs/RUBGUS_clean'
_cell_length_a 22.73900
_cell_length_b 16.03800
_cell_length_c  9.70460
_cell_angle_alpha 90.00000
_cell_angle_beta  94.00000
_cell_angle_gamma 90.00000
_space_group_name_H-M_alt      'P 1'


loop_
_space_group_symop_operation_xyz
  'x, y, z' 

loop_
_atom_site_label
_atom_site_fract_x
_atom_site_fract_y
_atom_site_fract_z
_atom_site_type_symbol
Mn         0.0      0.0      0.0    Mn
Mn         0.0      0.0      0.5    Mn
Mn         0.0  0.16922     0.25    Mn
Mn         0.0  0.83078     0.75    Mn
O       0.0328  0.11114   0.5922     O
O       0.0328  0.88886   0.0922     O
O      0.05214   0.0669  0.17117     O
O      0.05214   0.9331  0.67117     O
C      0.05729  0.17428   0.5468     C
C      0.05729  0.82572   0.0468     C
H       0.0577   0.1731   0.8194     H
H       0.0577   0.8269   0.3194     H
O      0.06086  0.19244    0.422     O
O      0.06086  0.80756    0.922     O
O      0.07422  0.00641  0.86684     O
O      0.07422  0.99359  0.36684     O
C      0.07596  0.22312   0.7916     C
C      0.07596  0.77688   0.2916     C
C      0.08258  0.23548   0.6518     C
C      0.08258  0.76452   0.1518     C
C      0.08634  0.02292   0.2534     C
C      0.08634  0.97708   0.7534     C
N      0.09397  0.27815   0.8886     N
N      0.09397  0.72185   0.3886     N
C      0.11122    0.307   0.6128     C
C      0.11122    0.693   0.1128     C
H       0.1171   0.3168   0.5182     H
H       0.1171   0.6832   0.0182     H
C      0.12064  0.34745   0.8481     C
C      0.12064  0.65255   0.3481     C
C      0.13126   0.3639   0.7118     C
C      0.13126   0.6361   0.2118     C
S      0.14113  0.41436  0.98971     S
S      0.14113  0.58564  0.48971     S
C      0.14728  0.00876   0.2078     C
C      0.14728  0.99124   0.7078     C
H       0.1479   0.1098   0.0835     H
H       0.1479   0.8902   0.5835     H
H       0.1517   0.4128   0.6874     H
H       0.1517   0.5872   0.1874     H
S      0.16496  0.47814  0.39989     S
S      0.16496  0.52186  0.89989     S
H       0.1659   0.0973   0.8156     H
H       0.1659   0.9027   0.3156     H
C      0.17161   0.0654   0.1207     C
C      0.17161   0.9346   0.6207     C
C       0.1817  0.05748   0.7559     C
C       0.1817  0.94252   0.2559     C
N       0.2285  0.05952   0.0865     N
N       0.2285  0.94048   0.5865     N
H       0.2382   0.3871   0.2515     H
H       0.2382   0.6129   0.7515     H
C      0.23833  0.06642   0.7185     C
C      0.23833  0.93358   0.2185     C
C      0.24021  0.49368   0.3634     C
C      0.24021  0.50632   0.8634     C
C      0.25979  0.00632   0.6366     C
C      0.25979  0.99368   0.1366     C
C      0.26167  0.43358   0.2815     C
C      0.26167  0.56642   0.7815     C
H       0.2618   0.1129   0.7485     H
H       0.2618   0.8871   0.2485     H
N       0.2715  0.44048   0.9135     N
N       0.2715  0.55952   0.4135     N
C       0.3183  0.44252   0.2441     C
C       0.3183  0.55748   0.7441     C
C      0.32839   0.4346   0.8793     C
C      0.32839   0.5654   0.3793     C
H       0.3341   0.4027   0.1844     H
H       0.3341   0.5973   0.6844     H
S      0.33504  0.02186  0.60011     S
S      0.33504  0.97814  0.10011     S
H       0.3483   0.0872   0.3126     H
H       0.3483   0.9128   0.8126     H
H       0.3521   0.3902   0.9165     H
H       0.3521   0.6098   0.4165     H
C      0.35272  0.49124   0.7922     C
C      0.35272  0.50876   0.2922     C
S      0.35887  0.08564  0.01029     S
S      0.35887  0.91436  0.51029     S
C      0.36874   0.1361   0.2882     C
C      0.36874   0.8639   0.7882     C
C      0.37936  0.15255   0.1519     C
C      0.37936  0.84745   0.6519     C
H       0.3829   0.1832   0.4818     H
H       0.3829   0.8168   0.9818     H
C      0.38878    0.193   0.3872     C
C      0.38878    0.807   0.8872     C
N      0.40603  0.22185   0.1114     N
N      0.40603  0.77815   0.6114     N
C      0.41366  0.47708   0.7466     C
C      0.41366  0.52292   0.2466     C
C      0.41742  0.26452   0.3482     C
C      0.41742  0.73548   0.8482     C
C      0.42404  0.27688   0.2084     C
C      0.42404  0.72312   0.7084     C
O      0.42578  0.49359  0.13316     O
O      0.42578  0.50641  0.63316     O
O      0.43914  0.30756    0.578     O
O      0.43914  0.69244    0.078     O
H       0.4423   0.3269   0.1806     H
H       0.4423   0.6731   0.6806     H
C      0.44271  0.32572   0.4532     C
C      0.44271  0.67428   0.9532     C
O      0.44786   0.4331  0.82883     O
O      0.44786   0.5669  0.32883     O
O       0.4672  0.38886   0.4078     O
O       0.4672  0.61114   0.9078     O
Mn         0.5  0.33078     0.75    Mn
Mn         0.5      0.5      0.0    Mn
Mn         0.5      0.5      0.5    Mn
Mn         0.5  0.66922     0.25    Mn
O       0.5328  0.38886   0.0922     O
O       0.5328  0.61114   0.5922     O
O      0.55214   0.4331  0.67117     O
O      0.55214   0.5669  0.17117     O
C      0.55729  0.32572   0.0468     C
C      0.55729  0.67428   0.5468     C
H       0.5577   0.3269   0.3194     H
H       0.5577   0.6731   0.8194     H
O      0.56086  0.30756    0.922     O
O      0.56086  0.69244    0.422     O
O      0.57422  0.49359  0.36684     O
O      0.57422  0.50641  0.86684     O
C      0.57596  0.27688   0.2916     C
C      0.57596  0.72312   0.7916     C
C      0.58258  0.26452   0.1518     C
C      0.58258  0.73548   0.6518     C
C      0.58634  0.47708   0.7534     C
C      0.58634  0.52292   0.2534     C
N      0.59397  0.22185   0.3886     N
N      0.59397  0.77815   0.8886     N
C      0.61122    0.193   0.1128     C
C      0.61122    0.807   0.6128     C
H       0.6171   0.1832   0.0182     H
H       0.6171   0.8168   0.5182     H
C      0.62064  0.15255   0.3481     C
C      0.62064  0.84745   0.8481     C
C      0.63126   0.1361   0.2118     C
C      0.63126   0.8639   0.7118     C
S      0.64113  0.08564  0.48971     S
S      0.64113  0.91436  0.98971     S
C      0.64728  0.49124   0.7078     C
C      0.64728  0.50876   0.2078     C
H       0.6479   0.3902   0.5835     H
H       0.6479   0.6098   0.0835     H
H       0.6517   0.0872   0.1874     H
H       0.6517   0.9128   0.6874     H
S      0.66496  0.02186  0.89989     S
S      0.66496  0.97814  0.39989     S
H       0.6659   0.4027   0.3156     H
H       0.6659   0.5973   0.8156     H
C      0.67161   0.4346   0.6207     C
C      0.67161   0.5654   0.1207     C
C       0.6817  0.44252   0.2559     C
C       0.6817  0.55748   0.7559     C
N       0.7285  0.44048   0.5865     N
N       0.7285  0.55952   0.0865     N
H       0.7382   0.1129   0.7515     H
H       0.7382   0.8871   0.2515     H
C      0.73833  0.43358   0.2185     C
C      0.73833  0.56642   0.7185     C
C      0.74021  0.00632   0.8634     C
C      0.74021  0.99368   0.3634     C
C      0.75979  0.49368   0.1366     C
C      0.75979  0.50632   0.6366     C
C      0.76167  0.06642   0.7815     C
C      0.76167  0.93358   0.2815     C
H       0.7618   0.3871   0.2485     H
H       0.7618   0.6129   0.7485     H
N       0.7715  0.05952   0.4135     N
N       0.7715  0.94048   0.9135     N
C       0.8183  0.05748   0.7441     C
C       0.8183  0.94252   0.2441     C
C      0.82839   0.0654   0.3793     C
C      0.82839   0.9346   0.8793     C
H       0.8341   0.0973   0.6844     H
H       0.8341   0.9027   0.1844     H
S      0.83504  0.47814  0.10011     S
S      0.83504  0.52186  0.60011     S
H       0.8483   0.4128   0.8126     H
H       0.8483   0.5872   0.3126     H
H       0.8521   0.1098   0.4165     H
H       0.8521   0.8902   0.9165     H
C      0.85272  0.00876   0.2922     C
C      0.85272  0.99124   0.7922     C
S      0.85887  0.41436  0.51029     S
S      0.85887  0.58564  0.01029     S
C      0.86874   0.3639   0.7882     C
C      0.86874   0.6361   0.2882     C
C      0.87936  0.34745   0.6519     C
C      0.87936  0.65255   0.1519     C
H       0.8829   0.3168   0.9818     H
H       0.8829   0.6832   0.4818     H
C      0.88878    0.307   0.8872     C
C      0.88878    0.693   0.3872     C
N      0.90603  0.27815   0.6114     N
N      0.90603  0.72185   0.1114     N
C      0.91366  0.02292   0.2466     C
C      0.91366  0.97708   0.7466     C
C      0.91742  0.23548   0.8482     C
C      0.91742  0.76452   0.3482     C
C      0.92404  0.22312   0.7084     C
C      0.92404  0.77688   0.2084     C
O      0.92578  0.00641  0.63316     O
O      0.92578  0.99359  0.13316     O
O      0.93914  0.19244    0.078     O
O      0.93914  0.80756    0.578     O
H       0.9423   0.1731   0.6806     H
H       0.9423   0.8269   0.1806     H
C      0.94271  0.17428   0.9532     C
C      0.94271  0.82572   0.4532     C
O      0.94786   0.0669  0.32883     O
O      0.94786   0.9331  0.82883     O
O       0.9672  0.11114   0.9078     O
O       0.9672  0.88886   0.4078     O
