data_I
_chemical_name_common  '/home/zhangsd/repos/MofS-CGCNN/ML/data/TSD/clean_cifs/RUGGUX_clean'
_cell_length_a 11.38000
_cell_length_b  7.18200
_cell_length_c  6.62800
_cell_angle_alpha 90.00000
_cell_angle_beta  109.75400
_cell_angle_gamma 90.00000
_space_group_name_H-M_alt      'P 1'


loop_
_space_group_symop_operation_xyz
  'x, y, z' 

loop_
_atom_site_label
_atom_site_fract_x
_atom_site_fract_y
_atom_site_fract_z
_atom_site_type_symbol
H          0.0   0.0107      0.5     H
C          0.0    0.881      0.5     C
Gd         0.0  0.94955      0.0    Gd
O       0.0082   0.8026   0.3376     O
O       0.1528   0.1126   0.8815     O
O        0.173   0.7495   0.1162     O
H       0.1951   0.6071   0.8981     H
C       0.2358   0.6532    0.035     C
C       0.2642   0.1532    0.965     C
H       0.3049   0.1071   0.1019     H
O        0.327   0.2495   0.8838     O
O       0.3472   0.6126   0.1185     O
O       0.4918   0.3026   0.6624     O
C          0.5    0.381      0.5     C
Gd         0.5  0.44955      0.0    Gd
H          0.5   0.5107      0.5     H
O       0.5082   0.3026   0.3376     O
O       0.6528   0.6126   0.8815     O
O        0.673   0.2495   0.1162     O
H       0.6951   0.1071   0.8981     H
C       0.7358   0.1532    0.035     C
C       0.7642   0.6532    0.965     C
H       0.8049   0.6071   0.1019     H
O        0.827   0.7495   0.8838     O
O       0.8472   0.1126   0.1185     O
O       0.9918   0.8026   0.6624     O
