data_I
_chemical_name_common  '/home/zhangsd/repos/MofS-CGCNN/ML/data/TSD/clean_cifs/RUGGIL_clean'
_cell_length_a 11.43000
_cell_length_b  7.22000
_cell_length_c  6.65500
_cell_angle_alpha 90.00000
_cell_angle_beta  109.91200
_cell_angle_gamma 90.00000
_space_group_name_H-M_alt      'P 1'


loop_
_space_group_symop_operation_xyz
  'x, y, z' 

loop_
_atom_site_label
_atom_site_fract_x
_atom_site_fract_y
_atom_site_fract_z
_atom_site_type_symbol
C          0.0    0.346      0.5     C
Sm         0.0  0.41855      0.0    Sm
H          0.0   0.4746      0.5     H
O       0.0084   0.2717   0.3373     O
O       0.1539     0.58   0.8826     O
O       0.1726   0.2155    0.116     O
H       0.1975   0.0798   0.8999     H
C       0.2375    0.123    0.038     C
C       0.2625    0.623    0.962     C
H       0.3025   0.5798   0.1001     H
O       0.3274   0.7155    0.884     O
O       0.3461     0.08   0.1174     O
O       0.4916   0.7717   0.6627     O
C          0.5    0.846      0.5     C
Sm         0.5  0.91855      0.0    Sm
H          0.5   0.9746      0.5     H
O       0.5084   0.7717   0.3373     O
O       0.6539     0.08   0.8826     O
O       0.6726   0.7155    0.116     O
H       0.6975   0.5798   0.8999     H
C       0.7375    0.623    0.038     C
C       0.7625    0.123    0.962     C
H       0.8025   0.0798   0.1001     H
O       0.8274   0.2155    0.884     O
O       0.8461     0.58   0.1174     O
O       0.9916   0.2717   0.6627     O
