data_I
_chemical_name_common  '/home/zhangsd/repos/MofS-CGCNN/ML/data/TSD/clean_cifs/RUGJIO_clean'
_cell_length_a  6.76680
_cell_length_b 18.71890
_cell_length_c  8.57170
_cell_angle_alpha 90.00000
_cell_angle_beta  90.00000
_cell_angle_gamma 90.00000
_space_group_name_H-M_alt      'P 1'


loop_
_space_group_symop_operation_xyz
  'x, y, z' 

loop_
_atom_site_label
_atom_site_fract_x
_atom_site_fract_y
_atom_site_fract_z
_atom_site_type_symbol
C          0.0  0.12371     0.75     C
H          0.0   0.1734     0.75     H
Sm         0.0   0.3575     0.25    Sm
Sm         0.0   0.6425     0.75    Sm
H          0.0   0.8266     0.25     H
C          0.0  0.87629     0.25     C
O       0.0157  0.45095   0.4327     O
O       0.0157  0.54905   0.5673     O
C       0.0723      0.5      0.0     C
O       0.1627  0.09341   0.7296     O
O       0.1627  0.90659   0.2704     O
O       0.1771  0.31705   0.4844     O
O       0.1771  0.68295   0.5156     O
O       0.1824  0.25652   0.1528     O
O       0.1824  0.74348   0.8472     O
H       0.2098      0.5      0.0     H
H       0.2106   0.2195   0.4602     H
H       0.2106   0.7805   0.5398     H
C       0.2334  0.25749   0.5277     C
C       0.2334  0.74251   0.4723     C
C       0.2666  0.24251   0.0277     C
C       0.2666  0.75749   0.9723     C
H       0.2894   0.2805   0.9602     H
H       0.2894   0.7195   0.0398     H
H       0.2902      0.0      0.5     H
O       0.3176  0.24348   0.6528     O
O       0.3176  0.75652   0.3472     O
O       0.3229  0.18295   0.9844     O
O       0.3229  0.81705   0.0156     O
O       0.3373  0.40659   0.2296     O
O       0.3373  0.59341   0.7704     O
C       0.4277      0.0      0.5     C
O       0.4843  0.04905   0.9327     O
O       0.4843  0.95095   0.0673     O
Sm         0.5   0.1425     0.75    Sm
H          0.5   0.3266     0.25     H
C          0.5  0.37629     0.25     C
C          0.5  0.62371     0.75     C
H          0.5   0.6734     0.75     H
Sm         0.5   0.8575     0.25    Sm
O       0.5157  0.04905   0.5673     O
O       0.5157  0.95095   0.4327     O
C       0.5723      0.0      0.0     C
O       0.6627  0.40659   0.2704     O
O       0.6627  0.59341   0.7296     O
O       0.6771  0.18295   0.5156     O
O       0.6771  0.81705   0.4844     O
O       0.6824  0.24348   0.8472     O
O       0.6824  0.75652   0.1528     O
H       0.7098      0.0      0.0     H
H       0.7106   0.2805   0.5398     H
H       0.7106   0.7195   0.4602     H
C       0.7334  0.24251   0.4723     C
C       0.7334  0.75749   0.5277     C
C       0.7666  0.25749   0.9723     C
C       0.7666  0.74251   0.0277     C
H       0.7894   0.2195   0.0398     H
H       0.7894   0.7805   0.9602     H
H       0.7902      0.5      0.5     H
O       0.8176  0.25652   0.3472     O
O       0.8176  0.74348   0.6528     O
O       0.8229  0.31705   0.0156     O
O       0.8229  0.68295   0.9844     O
O       0.8373  0.09341   0.7704     O
O       0.8373  0.90659   0.2296     O
C       0.9277      0.5      0.5     C
O       0.9843  0.45095   0.0673     O
O       0.9843  0.54905   0.9327     O
