data_I
_chemical_name_common  '/home/zhangsd/repos/MofS-CGCNN/ML/data/TSD/clean_cifs/RUGJUA_clean'
_cell_length_a  6.63750
_cell_length_b 18.29530
_cell_length_c  8.40580
_cell_angle_alpha 90.00000
_cell_angle_beta  90.00000
_cell_angle_gamma 90.00000
_space_group_name_H-M_alt      'P 1'


loop_
_space_group_symop_operation_xyz
  'x, y, z' 

loop_
_atom_site_label
_atom_site_fract_x
_atom_site_fract_y
_atom_site_fract_z
_atom_site_type_symbol
Tm         0.0  0.14281     0.25    Tm
H          0.0   0.3231     0.75     H
C          0.0    0.374     0.75     C
C          0.0    0.626     0.25     C
H          0.0   0.6769     0.25     H
Tm         0.0  0.85719     0.75    Tm
O       0.0147     0.05   0.4292     O
O       0.0147     0.95   0.5708     O
C       0.0757      0.0      0.0     C
O       0.1648  0.40515   0.7275     O
O       0.1648  0.59485   0.2725     O
O       0.1739  0.18347   0.4809     O
O       0.1739  0.81653   0.5191     O
O       0.1795  0.24207   0.1531     O
O       0.1795  0.75793   0.8469     O
H       0.2158      0.0      0.0     H
H       0.2171   0.2823   0.4535     H
H       0.2171   0.7177   0.5465     H
C       0.2355   0.2437   0.5238     C
C       0.2355   0.7563   0.4762     C
C       0.2645   0.2563   0.0238     C
C       0.2645   0.7437   0.9762     C
H       0.2829   0.2177   0.9535     H
H       0.2829   0.7823   0.0465     H
H       0.2842      0.5      0.5     H
O       0.3205  0.25793   0.6531     O
O       0.3205  0.74207   0.3469     O
O       0.3261  0.31653   0.9809     O
O       0.3261  0.68347   0.0191     O
O       0.3352  0.09485   0.2275     O
O       0.3352  0.90515   0.7725     O
C       0.4243      0.5      0.5     C
O       0.4853     0.45   0.9292     O
O       0.4853     0.55   0.0708     O
C          0.5    0.126     0.25     C
H          0.5   0.1769     0.25     H
Tm         0.5  0.35719     0.75    Tm
Tm         0.5  0.64281     0.25    Tm
H          0.5   0.8231     0.75     H
C          0.5    0.874     0.75     C
O       0.5147     0.45   0.5708     O
O       0.5147     0.55   0.4292     O
C       0.5757      0.5      0.0     C
O       0.6648  0.09485   0.2725     O
O       0.6648  0.90515   0.7275     O
O       0.6739  0.31653   0.5191     O
O       0.6739  0.68347   0.4809     O
O       0.6795  0.25793   0.8469     O
O       0.6795  0.74207   0.1531     O
H       0.7158      0.5      0.0     H
H       0.7171   0.2177   0.5465     H
H       0.7171   0.7823   0.4535     H
C       0.7355   0.2563   0.4762     C
C       0.7355   0.7437   0.5238     C
C       0.7645   0.2437   0.9762     C
C       0.7645   0.7563   0.0238     C
H       0.7829   0.2823   0.0465     H
H       0.7829   0.7177   0.9535     H
H       0.7842      0.0      0.5     H
O       0.8205  0.24207   0.3469     O
O       0.8205  0.75793   0.6531     O
O       0.8261  0.18347   0.0191     O
O       0.8261  0.81653   0.9809     O
O       0.8352  0.40515   0.7725     O
O       0.8352  0.59485   0.2275     O
C       0.9243      0.0      0.5     C
O       0.9853     0.05   0.0708     O
O       0.9853     0.95   0.9292     O
