data_I
_chemical_name_common  '/home/zhangsd/repos/MofS-CGCNN/ML/data/TSD/clean_cifs/RUGJOU_clean'
_cell_length_a  6.66670
_cell_length_b 18.40800
_cell_length_c  8.44680
_cell_angle_alpha 90.00000
_cell_angle_beta  90.00000
_cell_angle_gamma 90.00000
_space_group_name_H-M_alt      'P 1'


loop_
_space_group_symop_operation_xyz
  'x, y, z' 

loop_
_atom_site_label
_atom_site_fract_x
_atom_site_fract_y
_atom_site_fract_z
_atom_site_type_symbol
C          0.0   0.1256     0.25     C
H          0.0   0.1762     0.25     H
Ho         0.0  0.35731     0.75    Ho
Ho         0.0  0.64269     0.25    Ho
H          0.0   0.8238     0.75     H
C          0.0   0.8744     0.75     C
O       0.0127   0.4502   0.9304     O
O       0.0127   0.5498   0.0696     O
C       0.0747      0.5      0.5     C
O       0.1648   0.0946   0.2283     O
O       0.1648   0.9054   0.7717     O
O       0.1751   0.3166   0.9818     O
O       0.1751   0.6834   0.0182     O
O       0.1804   0.2578   0.6522     O
O       0.1804   0.7422   0.3478     O
H       0.2142      0.5      0.5     H
H        0.217   0.2181   0.9553     H
H        0.217   0.7819   0.0447     H
C       0.2359   0.2566   0.0252     C
C       0.2359   0.7434   0.9748     C
C       0.2641   0.2434   0.5252     C
C       0.2641   0.7566   0.4748     C
H        0.283   0.2819   0.4553     H
H        0.283   0.7181   0.5447     H
H       0.2858      0.0      0.0     H
O       0.3196   0.2422   0.1522     O
O       0.3196   0.7578   0.8478     O
O       0.3249   0.1834   0.4818     O
O       0.3249   0.8166   0.5182     O
O       0.3352   0.4054   0.7283     O
O       0.3352   0.5946   0.2717     O
C       0.4253      0.0      0.0     C
O       0.4873   0.0498   0.4304     O
O       0.4873   0.9502   0.5696     O
Ho         0.5  0.14269     0.25    Ho
H          0.5   0.3238     0.75     H
C          0.5   0.3744     0.75     C
C          0.5   0.6256     0.25     C
H          0.5   0.6762     0.25     H
Ho         0.5  0.85731     0.75    Ho
O       0.5127   0.0498   0.0696     O
O       0.5127   0.9502   0.9304     O
C       0.5747      0.0      0.5     C
O       0.6648   0.4054   0.7717     O
O       0.6648   0.5946   0.2283     O
O       0.6751   0.1834   0.0182     O
O       0.6751   0.8166   0.9818     O
O       0.6804   0.2422   0.3478     O
O       0.6804   0.7578   0.6522     O
H       0.7142      0.0      0.5     H
H        0.717   0.2819   0.0447     H
H        0.717   0.7181   0.9553     H
C       0.7359   0.2434   0.9748     C
C       0.7359   0.7566   0.0252     C
C       0.7641   0.2566   0.4748     C
C       0.7641   0.7434   0.5252     C
H        0.783   0.2181   0.5447     H
H        0.783   0.7819   0.4553     H
H       0.7858      0.5      0.0     H
O       0.8196   0.2578   0.8478     O
O       0.8196   0.7422   0.1522     O
O       0.8249   0.3166   0.5182     O
O       0.8249   0.6834   0.4818     O
O       0.8352   0.0946   0.2717     O
O       0.8352   0.9054   0.7283     O
C       0.9253      0.5      0.0     C
O       0.9873   0.4502   0.5696     O
O       0.9873   0.5498   0.4304     O
