data_I
_chemical_name_common  '/home/zhangsd/repos/MofS-CGCNN/ML/data/TSD/clean_cifs/RUGKAH_clean'
_cell_length_a  6.61740
_cell_length_b 18.20000
_cell_length_c  8.37770
_cell_angle_alpha 90.00000
_cell_angle_beta  90.00000
_cell_angle_gamma 90.00000
_space_group_name_H-M_alt      'P 1'


loop_
_space_group_symop_operation_xyz
  'x, y, z' 

loop_
_atom_site_label
_atom_site_fract_x
_atom_site_fract_y
_atom_site_fract_z
_atom_site_type_symbol
Lu         0.0  0.14278     0.25    Lu
H          0.0   0.3229     0.75     H
C          0.0    0.374     0.75     C
C          0.0    0.626     0.25     C
H          0.0   0.6771     0.25     H
Lu         0.0  0.85722     0.75    Lu
O       0.0154   0.0506   0.0714     O
O       0.0154   0.9494   0.9286     O
C       0.0765      0.0      0.5     C
O       0.1663   0.4045   0.7703     O
O       0.1663   0.5955   0.2297     O
O       0.1737   0.1841   0.0203     O
O       0.1737   0.8159   0.9797     O
O       0.1797   0.2411    0.347     O
O       0.1797   0.7589    0.653     O
H        0.217      0.0      0.5     H
H       0.2195   0.2827   0.0486     H
H       0.2195   0.7173   0.9514     H
C       0.2361    0.244   0.9773     C
C       0.2361    0.756   0.0227     C
C       0.2639    0.256   0.4773     C
C       0.2639    0.744   0.5227     C
H       0.2805   0.2173   0.5486     H
H       0.2805   0.7827   0.4514     H
H        0.283      0.5      0.0     H
O       0.3203   0.2589    0.847     O
O       0.3203   0.7411    0.153     O
O       0.3263   0.3159   0.5203     O
O       0.3263   0.6841   0.4797     O
O       0.3337   0.0955   0.2703     O
O       0.3337   0.9045   0.7297     O
C       0.4235      0.5      0.0     C
O       0.4846   0.4494   0.5714     O
O       0.4846   0.5506   0.4286     O
C          0.5    0.126     0.25     C
H          0.5   0.1771     0.25     H
Lu         0.5  0.35722     0.75    Lu
Lu         0.5  0.64278     0.25    Lu
H          0.5   0.8229     0.75     H
C          0.5    0.874     0.75     C
O       0.5154   0.4494   0.9286     O
O       0.5154   0.5506   0.0714     O
C       0.5765      0.5      0.5     C
O       0.6663   0.0955   0.2297     O
O       0.6663   0.9045   0.7703     O
O       0.6737   0.3159   0.9797     O
O       0.6737   0.6841   0.0203     O
O       0.6797   0.2589    0.653     O
O       0.6797   0.7411    0.347     O
H        0.717      0.5      0.5     H
H       0.7195   0.2173   0.9514     H
H       0.7195   0.7827   0.0486     H
C       0.7361    0.256   0.0227     C
C       0.7361    0.744   0.9773     C
C       0.7639    0.244   0.5227     C
C       0.7639    0.756   0.4773     C
H       0.7805   0.2827   0.4514     H
H       0.7805   0.7173   0.5486     H
H        0.783      0.0      0.0     H
O       0.8203   0.2411    0.153     O
O       0.8203   0.7589    0.847     O
O       0.8263   0.1841   0.4797     O
O       0.8263   0.8159   0.5203     O
O       0.8337   0.4045   0.7297     O
O       0.8337   0.5955   0.2703     O
C       0.9235      0.0      0.0     C
O       0.9846   0.0506   0.4286     O
O       0.9846   0.9494   0.5714     O
