data_I
_chemical_name_common  '/home/zhangsd/repos/MofS-CGCNN/ML/data/TSD/clean_cifs/RUGNUE_clean'
_cell_length_a 11.26210
_cell_length_b  7.13740
_cell_length_c  6.58670
_cell_angle_alpha 90.00000
_cell_angle_beta  109.52300
_cell_angle_gamma 90.00000
_space_group_name_H-M_alt      'P 1'


loop_
_space_group_symop_operation_xyz
  'x, y, z' 

loop_
_atom_site_label
_atom_site_fract_x
_atom_site_fract_y
_atom_site_fract_z
_atom_site_type_symbol
H          0.0   0.0134      0.5     H
C          0.0   0.8831      0.5     C
Y          0.0   0.9481      0.0     Y
O       0.0079   0.8026   0.3357     O
O       0.1539   0.1085    0.882     O
O       0.1699   0.7499   0.1143     O
H       0.1951   0.6096   0.8942     H
C        0.235    0.653   0.0336     C
C        0.265    0.153   0.9664     C
H       0.3049   0.1096   0.1058     H
O       0.3301   0.2499   0.8857     O
O       0.3461   0.6085    0.118     O
O       0.4921   0.3026   0.6643     O
C          0.5   0.3831      0.5     C
Y          0.5   0.4481      0.0     Y
H          0.5   0.5134      0.5     H
O       0.5079   0.3026   0.3357     O
O       0.6539   0.6085    0.882     O
O       0.6699   0.2499   0.1143     O
H       0.6951   0.1096   0.8942     H
C        0.735    0.153   0.0336     C
C        0.765    0.653   0.9664     C
H       0.8049   0.6096   0.1058     H
O       0.8301   0.7499   0.8857     O
O       0.8461   0.1085    0.118     O
O       0.9921   0.8026   0.6643     O
