data_I
_chemical_name_common  '/home/zhangsd/repos/MofS-CGCNN/ML/data/TSD/clean_cifs/RUHCED_SL'
_cell_length_a  6.71200
_cell_length_b 11.24860
_cell_length_c 17.96500
_cell_angle_alpha 90.00000
_cell_angle_beta  91.97500
_cell_angle_gamma 90.00000
_space_group_name_H-M_alt      'P 1'


loop_
_space_group_symop_operation_xyz
  'x, y, z' 

loop_
_atom_site_label
_atom_site_fract_x
_atom_site_fract_y
_atom_site_fract_z
_atom_site_type_symbol
Ga         0.0     -0.0      0.5    Ga
Ga         0.0      0.5      0.0    Ga
H       0.0546     0.21   0.3237     H
H       0.0546     0.29   0.8237     H
H       0.0697    0.189   0.7018     H
H       0.0697    0.311   0.2018     H
O       0.0698    0.598   0.9125     O
O       0.0698    0.902   0.4125     O
C       0.0716   0.7166   0.7778     C
C       0.0716   0.7834   0.2778     C
C       0.0806   0.7286   0.2082     C
C       0.0806   0.7714   0.7082     C
O       0.1056   0.6215   0.0725     O
O       0.1056   0.8785   0.5725     O
C        0.238   0.6308   0.8946     C
C        0.238   0.8692   0.3946     C
C       0.2403    0.697   0.8187     C
C       0.2403    0.803   0.3187     C
O         0.25   0.0769      0.5     O
H         0.25   0.1658      0.5     H
H         0.25   0.3342      0.0     H
O         0.25   0.4231      0.0     O
C       0.2597    0.697   0.1813     C
C       0.2597    0.803   0.6813     C
C        0.262   0.6308   0.1054     C
C        0.262   0.8692   0.6054     C
O       0.3944   0.6215   0.9275     O
O       0.3944   0.8785   0.4275     O
C       0.4194   0.7286   0.7918     C
C       0.4194   0.7714   0.2918     C
C       0.4284   0.7166   0.2222     C
C       0.4284   0.7834   0.7222     C
O       0.4302    0.598   0.0875     O
O       0.4302    0.902   0.5875     O
H       0.4303    0.189   0.2982     H
H       0.4303    0.311   0.7982     H
H       0.4454     0.21   0.6763     H
H       0.4454     0.29   0.1763     H
Ga         0.5     -0.0      0.5    Ga
Ga         0.5      0.5      0.0    Ga
H       0.5546     0.71   0.8237     H
H       0.5546     0.79   0.3237     H
H       0.5697    0.689   0.2018     H
H       0.5697    0.811   0.7018     H
O       0.5698    0.098   0.4125     O
O       0.5698    0.402   0.9125     O
C       0.5716   0.2166   0.2778     C
C       0.5716   0.2834   0.7778     C
C       0.5806   0.2286   0.7082     C
C       0.5806   0.2714   0.2082     C
O       0.6056   0.1215   0.5725     O
O       0.6056   0.3785   0.0725     O
C        0.738   0.1308   0.3946     C
C        0.738   0.3692   0.8946     C
C       0.7403    0.197   0.3187     C
C       0.7403    0.303   0.8187     C
O         0.75   0.5769     -0.0     O
H         0.75   0.6658      0.0     H
H         0.75   0.8342      0.5     H
O         0.75   0.9231      0.5     O
C       0.7597    0.197   0.6813     C
C       0.7597    0.303   0.1813     C
C        0.762   0.1308   0.6054     C
C        0.762   0.3692   0.1054     C
O       0.8944   0.1215   0.4275     O
O       0.8944   0.3785   0.9275     O
C       0.9194   0.2286   0.2918     C
C       0.9194   0.2714   0.7918     C
C       0.9284   0.2166   0.7222     C
C       0.9284   0.2834   0.2222     C
O       0.9302    0.098   0.5875     O
O       0.9302    0.402   0.0875     O
H       0.9303    0.689   0.7982     H
H       0.9303    0.811   0.2982     H
H       0.9454     0.71   0.1763     H
H       0.9454     0.79   0.6763     H
