data_I
_chemical_name_common  '/home/zhangsd/repos/MofS-CGCNN/ML/data/TSD/clean_cifs/RUMROI_clean'
_cell_length_a 13.29280
_cell_length_b  6.57000
_cell_length_c 13.64610
_cell_angle_alpha 90.00000
_cell_angle_beta  119.06900
_cell_angle_gamma 90.00000
_space_group_name_H-M_alt      'P 1'


loop_
_space_group_symop_operation_xyz
  'x, y, z' 

loop_
_atom_site_label
_atom_site_fract_x
_atom_site_fract_y
_atom_site_fract_z
_atom_site_type_symbol
F       0.0299    0.656   0.0771     F
Zn     0.04973  0.90171  0.00328    Zn
N       0.0771   0.2639   0.1439     N
N       0.0919   0.0554   0.1493     N
F       0.1076   0.1489   0.4862     F
N       0.1246    0.342   0.2431     N
C       0.1525   0.0138   0.2586     C
H       0.1534   0.4663   0.9899     H
H        0.174   0.7243   0.2572     H
N       0.1755   0.1872   0.3188     N
F       0.1868   0.5178   0.4646     F
N       0.1892   0.8269   0.3013     N
N       0.1969   0.8564   0.9987     N
N       0.2157   0.4912   0.9876     N
H        0.228     0.81   0.3728     H
Fe     0.24739  0.24548   0.4957    Fe
C        0.253   0.6893   0.9939     C
H       0.2548   0.3926   0.9813     H
N       0.2622   0.0155   0.0004     N
H       0.2825   0.6853   0.6119     H
F       0.3077    0.977   0.5233     F
N       0.3152   0.3043   0.6682     N
N       0.3183   0.6698   0.6835     N
H       0.3381   0.7745   0.7267     H
C       0.3435   0.4802   0.7283     C
N       0.3481   0.7397   0.9909     N
N        0.351   0.9449    0.995     N
N       0.3547   0.1525   0.7447     N
F       0.3867   0.3447   0.5033     F
N       0.3991   0.4374   0.8388     N
N       0.4033    0.233   0.8441     N
F       0.4758   0.3436   0.0714     F
Fe     0.49483  0.59155  0.99451    Fe
Zn     0.50517  0.09155  0.00549    Zn
F       0.5242   0.8436   0.9286     F
N       0.5967    0.733   0.1559     N
N       0.6009   0.9374   0.1612     N
F       0.6133   0.8447   0.4967     F
N       0.6453   0.6525   0.2553     N
N        0.649   0.4449    0.005     N
N       0.6519   0.2397   0.0091     N
C       0.6565   0.9802   0.2717     C
H       0.6619   0.2745   0.2733     H
N       0.6817   0.1698   0.3165     N
N       0.6848   0.8043   0.3318     N
F       0.6923    0.477   0.4767     F
H       0.7175   0.1853   0.3881     H
N       0.7378   0.5155   0.9996     N
H       0.7452   0.8926   0.0187     H
C        0.747   0.1893   0.0061     C
Fe     0.75261  0.74548   0.5043    Fe
H        0.772     0.31   0.6272     H
N       0.7843   0.9912   0.0124     N
N       0.8031   0.3564   0.0013     N
N       0.8108   0.3269   0.6987     N
F       0.8132   0.0178   0.5354     F
N       0.8245   0.6872   0.6812     N
H        0.826   0.2243   0.7428     H
H       0.8466   0.9663   0.0101     H
C       0.8475   0.5138   0.7414     C
N       0.8754    0.842   0.7569     N
F       0.8924   0.6489   0.5138     F
N       0.9081   0.5554   0.8507     N
N       0.9229   0.7639   0.8561     N
Zn     0.95027  0.40171  0.99672    Zn
F       0.9701    0.156   0.9229     F
