data_I
_chemical_name_common  '/home/zhangsd/repos/MofS-CGCNN/ML/data/TSD/clean_cifs/RUNXUV_clean'
_cell_length_a  5.95400
_cell_length_b 13.52100
_cell_length_c 13.94200
_cell_angle_alpha 95.02000
_cell_angle_beta  94.33000
_cell_angle_gamma 99.72000
_space_group_name_H-M_alt      'P 1'


loop_
_space_group_symop_operation_xyz
  'x, y, z' 

loop_
_atom_site_label
_atom_site_fract_x
_atom_site_fract_y
_atom_site_fract_z
_atom_site_type_symbol
C       0.0159   0.6966    0.789     C
C       0.0251   0.2458   0.2829     C
C       0.0606   0.2153   0.7075     C
H       0.0749   0.4111   0.9597     H
O       0.0771   0.1375   0.4436     O
C       0.0901   0.6024   0.2673     C
C       0.0991   0.8932   0.6151     C
C       0.1041   0.4848   0.9782     C
H       0.1053   0.3517   0.1934     H
H       0.1117   0.1524   0.7008     H
C       0.1242   0.3894    0.774     C
H       0.1447   0.5406   0.2573     H
C       0.1479   0.8295   0.6917     C
C       0.1498   0.7754   0.3364     C
N       0.1551   0.5371   0.8935     N
H       0.1731   0.2562   0.3167     H
C       0.1975   0.2978   0.7613     C
C        0.226   0.6841   0.3233     C
H       0.2283   0.6712    0.978     H
O       0.2319   0.9782   0.6132     O
C       0.2355   0.7073    0.838     C
H       0.2378   0.5011   0.0271     H
O       0.2438   0.9493   0.3939     O
Zn      0.2739  0.05515  0.50156    Zn
C       0.2774    0.482    0.828     C
C       0.2785   0.6423   0.9172     C
C       0.2941   0.8625   0.3977     C
H       0.3416    0.527   0.7807     H
H       0.3436   0.2913   0.7897     H
C       0.3643   0.8403    0.739     C
H       0.3712   0.6774   0.3526     H
H       0.4065   0.4608    0.865     H
C       0.4079   0.7796   0.8099     C
H       0.4413   0.2129   0.1595     H
H       0.4447   0.6422   0.9278     H
O       0.4608   0.8443    0.452     O
H       0.4839   0.8901   0.7225     H
H       0.5161   0.1099   0.2775     H
O       0.5392   0.1557    0.548     O
H       0.5553   0.3578   0.0722     H
H       0.5587   0.7871   0.8405     H
C       0.5921   0.2204   0.1901     C
H       0.5935   0.5392    0.135     H
H       0.6288   0.3226   0.6474     H
C       0.6357   0.1597    0.261     C
H       0.6564   0.7087   0.2103     H
H       0.6584    0.473   0.2193     H
C       0.7059   0.1375   0.6023     C
C       0.7215   0.3577   0.0828     C
C       0.7226    0.518    0.172     C
Zn      0.7261  0.94485  0.49844    Zn
O       0.7562   0.0507   0.6061     O
H       0.7622   0.4989   0.9729     H
C       0.7645   0.2927    0.162     C
O       0.7681   0.0218   0.3868     O
H       0.7717   0.3288    0.022     H
C        0.774   0.3159   0.6767     C
C       0.8025   0.7022   0.2387     C
H       0.8269   0.7438   0.6833     H
N       0.8449   0.4629   0.1065     N
C       0.8502   0.2246   0.6636     C
C       0.8521   0.1705   0.3083     C
H       0.8553   0.4594   0.7427     H
C       0.8758   0.6106    0.226     C
H       0.8883   0.8476   0.2992     H
H       0.8947   0.6483   0.8066     H
C       0.8959   0.5152   0.0218     C
C       0.9009   0.1068   0.3849     C
C       0.9099   0.3976   0.7327     C
O       0.9229   0.8625   0.5564     O
H       0.9251   0.5889   0.0403     H
C       0.9394   0.7847   0.2925     C
C       0.9749   0.7542   0.7171     C
C       0.9841   0.3034    0.211     C
