data_I
_chemical_name_common  '/home/zhangsd/repos/MofS-CGCNN/ML/data/TSD/clean_cifs/RUVCES_clean'
_cell_length_a 14.42110
_cell_length_b 12.11810
_cell_length_c 14.06920
_cell_angle_alpha 90.00000
_cell_angle_beta  90.00000
_cell_angle_gamma 90.00000
_space_group_name_H-M_alt      'P 1'


loop_
_space_group_symop_operation_xyz
  'x, y, z' 

loop_
_atom_site_label
_atom_site_fract_x
_atom_site_fract_y
_atom_site_fract_z
_atom_site_type_symbol
Zn         0.0      0.0    0.269    Zn
Zn         0.0      0.5    0.769    Zn
O       0.0261   0.1544   0.5165     O
O       0.0261   0.6544   0.0165     O
O       0.0286    0.129   0.3465     O
O       0.0286    0.629   0.8465     O
S      0.08691  0.11626  0.43859     S
S      0.08691  0.61626  0.93859     S
O       0.0917   0.4573   0.6738     O
O       0.0917   0.9573   0.1738     O
O       0.1583   0.2073   0.4238     O
O       0.1583   0.7073   0.9238     O
S      0.16309  0.36626  0.68859     S
S      0.16309  0.86626  0.18859     S
O       0.2214    0.379   0.5965     O
O       0.2214    0.879   0.0965     O
O       0.2239   0.4044   0.7665     O
O       0.2239   0.9044   0.2665     O
Zn        0.25     0.25    0.519    Zn
Zn        0.25     0.75    0.019    Zn
O       0.2761   0.0956   0.7665     O
O       0.2761   0.5956   0.2665     O
O       0.2786    0.121   0.5965     O
O       0.2786    0.621   0.0965     O
S      0.33691  0.13374  0.68859     S
S      0.33691  0.63374  0.18859     S
O       0.3417   0.2927   0.4238     O
O       0.3417   0.7927   0.9238     O
O       0.4083   0.0427   0.6738     O
O       0.4083   0.5427   0.1738     O
S      0.41309  0.38374  0.43859     S
S      0.41309  0.88374  0.93859     S
O       0.4714    0.371   0.3465     O
O       0.4714    0.871   0.8465     O
O       0.4739   0.3456   0.5165     O
O       0.4739   0.8456   0.0165     O
Zn         0.5      0.0    0.769    Zn
Zn         0.5      0.5    0.269    Zn
O       0.5261   0.1544   0.0165     O
O       0.5261   0.6544   0.5165     O
O       0.5286    0.129   0.8465     O
O       0.5286    0.629   0.3465     O
S      0.58691  0.11626  0.93859     S
S      0.58691  0.61626  0.43859     S
O       0.5917   0.4573   0.1738     O
O       0.5917   0.9573   0.6738     O
O       0.6583   0.2073   0.9238     O
O       0.6583   0.7073   0.4238     O
S      0.66309  0.36626  0.18859     S
S      0.66309  0.86626  0.68859     S
O       0.7214    0.379   0.0965     O
O       0.7214    0.879   0.5965     O
O       0.7239   0.4044   0.2665     O
O       0.7239   0.9044   0.7665     O
Zn        0.75     0.25    0.019    Zn
Zn        0.75     0.75    0.519    Zn
O       0.7761   0.0956   0.2665     O
O       0.7761   0.5956   0.7665     O
O       0.7786    0.121   0.0965     O
O       0.7786    0.621   0.5965     O
S      0.83691  0.13374  0.18859     S
S      0.83691  0.63374  0.68859     S
O       0.8417   0.2927   0.9238     O
O       0.8417   0.7927   0.4238     O
O       0.9083   0.0427   0.1738     O
O       0.9083   0.5427   0.6738     O
S      0.91309  0.38374  0.93859     S
S      0.91309  0.88374  0.43859     S
O       0.9714    0.371   0.8465     O
O       0.9714    0.871   0.3465     O
O       0.9739   0.3456   0.0165     O
O       0.9739   0.8456   0.5165     O
