data_I
_chemical_name_common  '/home/zhangsd/repos/MofS-CGCNN/ML/data/TSD/clean_cifs/RUVMUR_clean'
_cell_length_a  7.15990
_cell_length_b 39.15900
_cell_length_c  9.71270
_cell_angle_alpha 90.00000
_cell_angle_beta  90.00000
_cell_angle_gamma 90.00000
_space_group_name_H-M_alt      'P 1'


loop_
_space_group_symop_operation_xyz
  'x, y, z' 

loop_
_atom_site_label
_atom_site_fract_x
_atom_site_fract_y
_atom_site_fract_z
_atom_site_type_symbol
O       0.0047  0.38437   0.4996     O
O       0.0199  0.98163   0.3659     O
C       0.0237   0.0385   0.5825     C
H       0.0328   0.1558   0.5346     H
H       0.0335   0.0149   0.5882     H
Co     0.05255   0.3225  0.61794    Co
C       0.0529   0.3649   0.4052     C
N       0.0534  0.09274    0.623     N
H       0.0611   0.4283   0.3214     H
C       0.0613   0.5887   0.9854     C
O       0.0647  0.33338   0.4195     O
N       0.0663    0.272   0.5988     N
H       0.0672   0.2507   0.7864     H
C       0.0708  0.15496   0.6261     C
C       0.0732   0.2472   0.6918     C
H       0.0746    0.267   0.3865     H
C       0.0778   0.2559   0.4712     C
N       0.0847  0.55644   0.0125     N
N       0.0899   0.2167   0.6328     N
C       0.0945   0.2214   0.4889     C
C       0.0949   0.1243   0.6926     C
C       0.0985   0.4147    0.248     C
C       0.1036   0.3802   0.2647     C
C       0.1055    0.185   0.7013     C
H       0.1062   0.2048   0.4212     H
H       0.1063   0.8074   0.5773     H
C       0.1117   0.0611   0.6644     C
H       0.1163   0.6064   0.0343     H
H       0.1206   0.1049   0.1083     H
N       0.1334   0.8391   0.7435     N
C       0.1377   0.4696   0.1245     C
C       0.1478   0.4302   0.1243     C
C       0.1497   0.1226   0.8295     C
C        0.155   0.3594    0.155     C
C       0.1557   0.8275   0.6126     C
C       0.1617   0.1841   0.8372     C
H       0.1628   0.3358   0.1652     H
H       0.1638   0.1016    0.873     H
C        0.183   0.1524   0.8997     C
H       0.1847   0.2041   0.8856     H
C       0.1924   0.4096   0.0112     C
C        0.193   0.1238   0.1299     C
C       0.1941   0.3749   0.0311     C
H       0.1953   0.0562    0.735     H
O       0.2149  0.51358   0.6239     O
O       0.2156   0.4548   0.8519     O
H       0.2235    0.361   0.9564     H
C       0.2293   0.8696   0.7511     C
O       0.2296  0.59705   0.2737     O
C        0.233   0.4236    0.869     C
H       0.2381   0.8833   0.8289     H
N       0.2386  0.14993   0.0425     N
Zn     0.24231  0.46433  0.65226    Zn
Zn     0.25769  0.53567  0.15226    Zn
N       0.2614  0.85007   0.5425     N
H       0.2619   0.1167   0.3289     H
C        0.267   0.5764    0.369     C
O       0.2704  0.40295   0.7737     O
C       0.2707   0.1304   0.2511     C
H       0.2765    0.639   0.4564     H
O       0.2844   0.5452   0.3519     O
O       0.2851  0.48642   0.1239     O
H       0.3047   0.9438    0.235     H
C       0.3059   0.6251   0.5311     C
C        0.307   0.8762   0.6299     C
C       0.3076   0.5904   0.5112     C
H       0.3153   0.7959   0.3856     H
C        0.317   0.8476   0.3997     C
H       0.3362   0.8984    0.373     H
H       0.3372   0.6642   0.6652     H
C       0.3383   0.8159   0.3372     C
C       0.3443   0.1725   0.1126     C
C        0.345   0.6406    0.655     C
C       0.3503   0.8774   0.3295     C
C       0.3522   0.5698   0.6243     C
C       0.3623   0.5304   0.6245     C
N       0.3666   0.1609   0.2435     N
H       0.3794   0.8951   0.6083     H
H       0.3837   0.3936   0.5343     H
C       0.3883   0.9389   0.1644     C
H       0.3937   0.1926   0.0773     H
H       0.3938   0.7952   0.9212     H
C       0.3945    0.815   0.2013     C
C       0.3964   0.6198   0.7647     C
C       0.4015   0.5853    0.748     C
C       0.4051   0.8757   0.1926     C
C       0.4055   0.7786   0.9889     C
N       0.4101   0.7833   0.1328     N
N       0.4153  0.44356   0.5125     N
C       0.4222   0.7441   0.9712     C
H       0.4254    0.733   0.8865     H
C       0.4268   0.7528   0.1918     C
C       0.4292  0.84504   0.1261     C
H       0.4328   0.7493   0.2864     H
N       0.4337    0.728   0.0988     N
O       0.4353  0.66662   0.9195     O
C       0.4387   0.4113   0.4854     C
H       0.4389   0.5717   0.8214     H
N       0.4466  0.90726    0.123     N
C       0.4471   0.6351   0.9052     C
Co     0.44745   0.6775  0.11794    Co
H       0.4665   0.9851   0.0882     H
H       0.4672   0.8442   0.0346     H
C       0.4763   0.9615   0.0825     C
O       0.4801  0.01837   0.8659     O
O       0.4953  0.61563   0.9996     O
O       0.5047  0.11563   0.5004     O
O       0.5199  0.51837   0.6341     O
C       0.5237   0.4615   0.4175     C
H       0.5328   0.3442   0.4654     H
H       0.5335   0.4851   0.4118     H
Co     0.55255   0.1775  0.38206    Co
C       0.5529   0.1351   0.5948     C
N       0.5534  0.40726    0.377     N
H       0.5611   0.0717   0.6786     H
C       0.5613   0.9113   0.0146     C
O       0.5647  0.16662   0.5805     O
N       0.5663    0.228   0.4012     N
H       0.5672   0.2493   0.2136     H
C       0.5708  0.34504   0.3739     C
C       0.5732   0.2528   0.3082     C
H       0.5746    0.233   0.6135     H
C       0.5778   0.2441   0.5288     C
N       0.5847  0.94356   0.9875     N
N       0.5899   0.2833   0.3672     N
C       0.5945   0.2786   0.5111     C
C       0.5949   0.3757   0.3074     C
C       0.5985   0.0853    0.752     C
C       0.6036   0.1198   0.7353     C
C       0.6055    0.315   0.2987     C
H       0.6062   0.2952   0.5788     H
H       0.6063   0.6926   0.4227     H
C       0.6117   0.4389   0.3356     C
H       0.6163   0.8936   0.9657     H
H       0.6206   0.3951   0.8917     H
N       0.6334   0.6609   0.2565     N
C       0.6377   0.0304   0.8755     C
C       0.6478   0.0698   0.8757     C
C       0.6497   0.3774   0.1705     C
C        0.655   0.1406    0.845     C
C       0.6557   0.6725   0.3874     C
C       0.6617   0.3159   0.1628     C
H       0.6628   0.1642   0.8348     H
H       0.6638   0.3984    0.127     H
C        0.683   0.3476   0.1003     C
H       0.6847   0.2959   0.1144     H
C       0.6924   0.0904   0.9888     C
C        0.693   0.3762   0.8701     C
C       0.6941   0.1251   0.9689     C
H       0.6953   0.4438    0.265     H
O       0.7149  0.98642   0.3761     O
O       0.7156   0.0452   0.1481     O
H       0.7235    0.139   0.0436     H
C       0.7293   0.6304   0.2489     C
O       0.7296  0.90295   0.7263     O
C        0.733   0.0764    0.131     C
H       0.7381   0.6167   0.1711     H
N       0.7386  0.35007   0.9575     N
Zn     0.74231  0.03567  0.34774    Zn
Zn     0.75769  0.96433  0.84774    Zn
N       0.7614  0.64993   0.4575     N
H       0.7619   0.3833   0.6711     H
C        0.767   0.9236    0.631     C
O       0.7704  0.09705   0.2263     O
C       0.7707   0.3696   0.7489     C
H       0.7765    0.861   0.5436     H
O       0.7844   0.9548   0.6481     O
O       0.7851  0.01358   0.8761     O
H       0.8047   0.5562    0.765     H
C       0.8059   0.8749   0.4689     C
C        0.807   0.6238   0.3701     C
C       0.8076   0.9096   0.4888     C
H       0.8153   0.7041   0.6144     H
C        0.817   0.6524   0.6003     C
H       0.8362   0.6016    0.627     H
H       0.8372   0.8358   0.3348     H
C       0.8383   0.6841   0.6628     C
C       0.8443   0.3275   0.8874     C
C        0.845   0.8594    0.345     C
C       0.8503   0.6226   0.6705     C
C       0.8522   0.9302   0.3757     C
C       0.8623   0.9696   0.3755     C
N       0.8666   0.3391   0.7565     N
H       0.8794   0.6049   0.3917     H
H       0.8837   0.1064   0.4657     H
C       0.8883   0.5611   0.8356     C
H       0.8937   0.3074   0.9227     H
H       0.8938   0.7048   0.0788     H
C       0.8945    0.685   0.7987     C
C       0.8964   0.8802   0.2353     C
C       0.9015   0.9147    0.252     C
C       0.9051   0.6243   0.8074     C
C       0.9055   0.7214   0.0111     C
N       0.9101   0.7167   0.8672     N
N       0.9153  0.05644   0.4875     N
C       0.9222   0.7559   0.0288     C
H       0.9254    0.767   0.1135     H
C       0.9268   0.7472   0.8082     C
C       0.9292  0.65496   0.8739     C
H       0.9328   0.7507   0.7136     H
N       0.9337    0.772   0.9012     N
O       0.9353  0.83338   0.0805     O
C       0.9387   0.0887   0.5146     C
H       0.9389   0.9283   0.1786     H
N       0.9466  0.59274    0.877     N
C       0.9471   0.8649   0.0948     C
Co     0.94745   0.8225  0.88206    Co
H       0.9665   0.5149   0.9118     H
H       0.9672   0.6558   0.9654     H
C       0.9763   0.5385   0.9175     C
O       0.9801  0.48163   0.1341     O
O       0.9953  0.88437   0.0004     O
