data_I
_chemical_name_common  '/home/zhangsd/repos/MofS-CGCNN/ML/data/TSD/clean_cifs/RUWWOW_clean'
_cell_length_a  9.37600
_cell_length_b  9.94000
_cell_length_c 11.37700
_cell_angle_alpha 92.97900
_cell_angle_beta  97.83600
_cell_angle_gamma 110.33000
_space_group_name_H-M_alt      'P 1'


loop_
_space_group_symop_operation_xyz
  'x, y, z' 

loop_
_atom_site_label
_atom_site_fract_x
_atom_site_fract_y
_atom_site_fract_z
_atom_site_type_symbol
C       0.0006   0.6769   0.3888     C
C       0.0056   0.4369   0.1546     C
C       0.0206   0.1642   0.4558     C
C       0.0435   0.5761   0.2071     C
O       0.0593   0.8358   0.9689     O
O       0.0608   0.3966   0.7259     O
H       0.0697   0.1061   0.4263     H
C       0.0743   0.2595   0.0299     C
C       0.0746    0.238   0.5689     C
H       0.0862   0.6351   0.8368     H
C       0.1055    0.823    0.613     C
C        0.107   0.4068   0.0887     C
O        0.114   0.9988   0.7707     O
C        0.124   0.6579   0.4578     C
H       0.1602   0.2303   0.6158     H
H         0.17   0.5966    0.429     H
C       0.1712   0.9087   0.7326     C
C       0.1741   0.6886   0.1911     C
O       0.1776   0.2352   0.9825     O
C       0.1777   0.7323    0.571     C
H       0.1922   0.7827   0.2219     H
C       0.2458   0.5189   0.0797     C
H       0.2612    0.722   0.6189     H
C       0.2785    0.657    0.127     C
La     0.28444  0.04771  0.98322    La
O       0.2854   0.8958   0.7963     O
H       0.3173   0.4979   0.0401     H
O       0.4179   0.8936   0.0786     O
C        0.423   0.7722   0.1063     C
O       0.4551   0.2525   0.8818     O
O       0.5449   0.7475   0.1182     O
C        0.577   0.2278   0.8937     C
O       0.5821   0.1064   0.9214     O
H       0.6827   0.5021   0.9599     H
O       0.7146   0.1042   0.2037     O
La     0.71556  0.95229  0.01678    La
C       0.7215    0.343    0.873     C
H       0.7388    0.278   0.3811     H
C       0.7542   0.4811   0.9203     C
H       0.8078   0.2173   0.7781     H
C       0.8223   0.2677    0.429     C
O       0.8224   0.7648   0.0175     O
C       0.8259   0.3114   0.8089     C
C       0.8288   0.0913   0.2674     C
H         0.83   0.4034    0.571     H
H       0.8398   0.7697   0.3842     H
C        0.876   0.3421   0.5422     C
O        0.886   0.0012   0.2293     O
C        0.893   0.5932   0.9113     C
C       0.8945    0.177    0.387     C
H       0.9138   0.3649   0.1632     H
C       0.9254    0.762   0.4311     C
C       0.9257   0.7405   0.9701     C
H       0.9303   0.8939   0.5737     H
O       0.9392   0.6034   0.2741     O
O       0.9407   0.1642   0.0311     O
C       0.9565   0.4239   0.7929     C
C       0.9794   0.8358   0.5442     C
C       0.9944   0.5631   0.8454     C
C       0.9994   0.3231   0.6112     C
