data_I
_chemical_name_common  '/home/zhangsd/repos/MofS-CGCNN/ML/data/TSD/clean_cifs/RUWXAJ_clean'
_cell_length_a  9.49100
_cell_length_b 10.05200
_cell_length_c 11.34400
_cell_angle_alpha 94.42900
_cell_angle_beta  97.91400
_cell_angle_gamma 111.38600
_space_group_name_H-M_alt      'P 1'


loop_
_space_group_symop_operation_xyz
  'x, y, z' 

loop_
_atom_site_label
_atom_site_fract_x
_atom_site_fract_y
_atom_site_fract_z
_atom_site_type_symbol
O       0.0029   0.2784   0.8483     O
H         0.04    0.808     0.13     H
O       0.0447   0.2519   0.1139     O
H         0.07     0.26     0.81     H
C        0.077   0.7242    0.894     C
O       0.0808   0.6034   0.9214     O
H       0.1801   0.0033   0.9607     H
La     0.21401  0.45409  0.01294    La
C       0.2226   0.8403   0.8762     C
O       0.2269   0.6206   0.2001     O
C        0.252   0.9824   0.9228     C
H       0.2551    0.788   0.3853     H
H       0.3112   0.7132   0.7888     H
O       0.3147   0.2611   0.0077     O
C       0.3279    0.808   0.8171     C
C       0.3343   0.5979   0.2661     C
C       0.3346   0.7739   0.4335     C
H       0.3458   0.9111   0.5746     H
H       0.3522    0.285   0.3729     H
O       0.3826   0.5055   0.2274     O
C       0.3873   0.0922   0.9128     C
C       0.3875   0.8467   0.5467     C
C       0.3954     0.68   0.3881     C
H       0.4164   0.8638   0.1577     H
C       0.4194   0.2414    0.968     C
C       0.4297   0.2685   0.4215     C
O       0.4379   0.1077   0.2616     O
H       0.4379   0.3943   0.5725     H
O        0.447   0.6634    0.027     O
C       0.4571   0.9203   0.8019     C
C       0.4845   0.3363   0.5407     C
C       0.4927    0.063   0.8507     C
C       0.4951   0.1758   0.3786     C
C       0.5049   0.8242   0.6214     C
C       0.5073    0.937   0.1493     C
C       0.5155   0.6637   0.4593     C
C       0.5429   0.0797   0.1981     C
O        0.553   0.3366    0.973     O
H       0.5621   0.6057   0.4275     H
O       0.5621   0.8923   0.7384     O
C       0.5703   0.7315   0.5785     C
C       0.5806   0.7586    0.032     C
H       0.5836   0.1362   0.8423     H
C       0.6046     0.32   0.6119     C
C       0.6125   0.1533   0.4533     C
C       0.6127   0.9078   0.0872     C
O       0.6174   0.4945   0.7726     O
H       0.6478    0.715   0.6271     H
H       0.6542   0.0889   0.4254     H
C       0.6654   0.2261   0.5665     C
C       0.6657   0.4021   0.7339     C
C       0.6721    0.192   0.1829     C
O       0.6853   0.7389   0.9923     O
H       0.6888   0.2868   0.2112     H
H       0.7449    0.212   0.6147     H
C        0.748   0.0176   0.0772     C
O       0.7731   0.3794   0.7999     O
C       0.7774   0.1597   0.1238     C
La     0.78599  0.54591  0.98706    La
H       0.8199   0.9967   0.0393     H
O       0.9192   0.3966   0.0786     O
C        0.923   0.2758    0.106     C
H         0.93     0.74     0.19     H
O       0.9553   0.7481   0.8861     O
H         0.96    0.192     0.87     H
O       0.9971   0.7216   0.1517     O
