data_I
_chemical_name_common  '/home/zhangsd/repos/MofS-CGCNN/ML/data/TSD/clean_cifs/RUXKUS_clean'
_cell_length_a 20.62710
_cell_length_b 13.66690
_cell_length_c 20.68390
_cell_angle_alpha 90.00000
_cell_angle_beta  90.00000
_cell_angle_gamma 90.00000
_space_group_name_H-M_alt      'P 1'


loop_
_space_group_symop_operation_xyz
  'x, y, z' 

loop_
_atom_site_label
_atom_site_fract_x
_atom_site_fract_y
_atom_site_fract_z
_atom_site_type_symbol
C          0.0   0.4092     0.75     C
C          0.0   0.5908     0.25     C
H       0.0002   0.0111     0.64     H
H       0.0002   0.9889     0.36     H
H        0.007    0.148   0.4251     H
H        0.007    0.852   0.5749     H
H       0.0168   0.3111   0.6778     H
H       0.0168   0.6889   0.3222     H
C       0.0205   0.1792   0.3852     C
C       0.0205   0.8208   0.6148     C
C       0.0206   0.3478   0.8074     C
C       0.0206   0.6522   0.1926     C
H       0.0243    0.243   0.1924     H
H       0.0243    0.757   0.8076     H
H       0.0331   0.3917   0.8421     H
H       0.0331   0.6083   0.1579     H
H       0.0355   0.4506   0.7378     H
H       0.0355   0.5494   0.2622     H
C       0.0367   0.0106   0.3379     C
C       0.0367   0.9894   0.6621     C
C       0.0385   0.2156   0.1515     C
C       0.0385   0.7844   0.8485     C
H       0.0484    0.234   0.3962     H
H       0.0484    0.766   0.6038     H
H       0.0521   0.3508   0.1084     H
H       0.0521   0.6492   0.8916     H
H       0.0563   0.1157   0.7032     H
H       0.0563   0.8843   0.2968     H
C       0.0574    0.107    0.344     C
C       0.0574    0.893    0.656     C
H       0.0663   0.1602    0.161     H
H       0.0663   0.8398    0.839     H
C       0.0704   0.0513   0.7004     C
C       0.0704   0.9487   0.2996     C
O        0.075   0.1999   0.8313     O
O        0.075   0.8001   0.1687     O
C       0.0751   0.2771   0.7962     C
C       0.0751   0.7229   0.2038     C
C       0.0783   0.2928   0.1154     C
C       0.0783   0.7072   0.8846     C
H       0.0913   0.2675   0.0736     H
H       0.0913   0.7325   0.9264     H
H       0.1031   0.4377   0.1983     H
H       0.1031   0.5623   0.8017     H
C       0.1112   0.1351   0.3089     C
C       0.1112   0.8649   0.6911     C
O        0.119   0.2932   0.7573     O
O        0.119   0.7068   0.2427     O
N       0.1224   0.0258   0.7344     N
N       0.1224   0.9742   0.2656     N
H       0.1262   0.0359   0.4711     H
H       0.1262   0.9641   0.5289     H
H       0.1263   0.1991    0.311     H
H       0.1263   0.8009    0.689     H
C       0.1378   0.3943   0.1968     C
C       0.1378   0.6057   0.8032     C
H        0.138   0.3023   0.9151     H
C        0.138   0.3193   0.1545     C
C        0.138   0.6807   0.8455     C
H        0.138   0.6977   0.0849     H
C        0.142   0.0668   0.2709     C
C        0.142   0.9332   0.7291     C
H       0.1472   0.2273   0.4622     H
H       0.1472   0.7727   0.5378     H
C       0.1527      0.0      0.5     C
H       0.1664   0.1186   0.5613     H
H       0.1664   0.8814   0.4387     H
Cd     0.17189  0.12744  0.81044    Cd
Cd     0.17189  0.87256  0.18956    Cd
H       0.1784   0.0863   0.2477     H
H       0.1784   0.9137   0.7523     H
C       0.1822    0.298   0.9238     C
H       0.1822   0.4056   0.9912     H
H       0.1822   0.5944   0.0088     H
C       0.1822    0.702   0.0762     C
H       0.1871   0.4555    0.268     H
H       0.1871   0.5445    0.732     H
C       0.1894   0.4055   0.2375     C
C       0.1894   0.5945   0.7625     C
C       0.1908   0.2177   0.4524     C
C       0.1908   0.7823   0.5476     C
C       0.1917   0.2655   0.1535     C
C       0.1917   0.7345   0.8465     C
C       0.1939   0.0799   0.5332     C
C       0.1939   0.9201   0.4668     C
H       0.1944   0.3186   0.3844     H
H       0.1944   0.6814   0.6156     H
H       0.1953   0.2154   0.1234     H
H       0.1953   0.7846   0.8766     H
C       0.2085   0.3602   0.9702     C
C       0.2085   0.6398   0.0298     C
N       0.2175   0.2323   0.8909     N
N       0.2175   0.7677   0.1091     N
C       0.2198   0.2734   0.4065     C
C       0.2198   0.7266   0.5935     C
H       0.2226   0.2597   0.6944     H
H       0.2226   0.7403   0.3056     H
C       0.2262   0.1458   0.4851     C
C       0.2262   0.8542   0.5149     C
H       0.2268   0.0489   0.5599     H
H       0.2268   0.9511   0.4401     H
N       0.2413   0.3525   0.2373     N
N       0.2413   0.6475   0.7627     N
C       0.2417   0.2817   0.1957     C
C       0.2417   0.7183   0.8043     C
C       0.2583   0.2183   0.6957     C
C       0.2583   0.7817   0.3043     C
N       0.2587   0.1475   0.7373     N
N       0.2587   0.8525   0.2627     N
H       0.2732   0.4511   0.0599     H
H       0.2732   0.5489   0.9401     H
C       0.2738   0.3542   0.9851     C
C       0.2738   0.6458   0.0149     C
H       0.2774   0.2403   0.1944     H
H       0.2774   0.7597   0.8056     H
C       0.2802   0.2266   0.9065     C
C       0.2802   0.7734   0.0935     C
N       0.2825   0.2677   0.3909     N
N       0.2825   0.7323   0.6091     N
C       0.2915   0.1398   0.4702     C
C       0.2915   0.8602   0.5298     C
H       0.3047   0.2846   0.6234     H
H       0.3047   0.7154   0.3766     H
H       0.3056   0.1814   0.8844     H
H       0.3056   0.8186   0.1156     H
C       0.3061   0.4201   0.0332     C
C       0.3061   0.5799   0.9668     C
C       0.3083   0.2345   0.6535     C
C       0.3083   0.7655   0.3465     C
C       0.3092   0.2823   0.9524     C
C       0.3092   0.7177   0.0476     C
C       0.3106   0.0945   0.7375     C
C       0.3106   0.9055   0.2625     C
H       0.3129   0.0445    0.768     H
H       0.3129   0.9555    0.232     H
H       0.3178   0.0944   0.4912     H
C       0.3178    0.202   0.4238     C
C       0.3178    0.798   0.5762     C
H       0.3178   0.9056   0.5088     H
H       0.3216   0.4137   0.7477     H
H       0.3216   0.5863   0.2523     H
Cd     0.32811  0.37256  0.31044    Cd
Cd     0.32811  0.62744  0.68956    Cd
H       0.3336   0.3814   0.0613     H
H       0.3336   0.6186   0.9387     H
C       0.3473      0.5      0.0     C
H       0.3528   0.2727   0.9622     H
H       0.3528   0.7273   0.0378     H
C        0.358   0.4332   0.7709     C
C        0.358   0.5668   0.2291     C
C        0.362   0.1807   0.6545     C
H        0.362   0.1977   0.4151     H
H        0.362   0.8023   0.5849     H
C        0.362   0.8193   0.3455     C
C       0.3622   0.1057   0.6968     C
C       0.3622   0.8943   0.3032     C
H       0.3737   0.3009    0.811     H
H       0.3737   0.6991    0.189     H
H       0.3738   0.4641   0.9711     H
H       0.3738   0.5359   0.0289     H
N       0.3776   0.4742   0.2344     N
N       0.3776   0.5258   0.7656     N
O        0.381   0.2068   0.2573     O
O        0.381   0.7932   0.7427     O
C       0.3888   0.3649   0.8089     C
C       0.3888   0.6351   0.1911     C
H       0.3969   0.0623   0.6983     H
H       0.3969   0.9377   0.3017     H
H       0.4087   0.2325   0.5736     H
H       0.4087   0.7675   0.4264     H
C       0.4217   0.2072   0.6154     C
C       0.4217   0.7928   0.3846     C
C       0.4249   0.2229   0.2962     C
C       0.4249   0.7771   0.7038     C
O        0.425   0.3001   0.3313     O
O        0.425   0.6999   0.6687     O
C       0.4296   0.4487   0.2004     C
C       0.4296   0.5513   0.7996     C
H       0.4337   0.3398    0.661     H
H       0.4337   0.6602    0.339     H
C       0.4426    0.393    0.844     C
C       0.4426    0.607    0.156     C
H       0.4437   0.3843   0.2032     H
H       0.4437   0.6157   0.7968     H
H       0.4479   0.1492   0.6084     H
H       0.4479   0.8508   0.3916     H
H       0.4516    0.266   0.8962     H
H       0.4516    0.734   0.1038     H
C       0.4615   0.2844   0.6515     C
C       0.4615   0.7156   0.3485     C
C       0.4633   0.4894   0.8379     C
C       0.4633   0.5106   0.1621     C
H       0.4645   0.0494   0.2378     H
H       0.4645   0.9506   0.7622     H
H       0.4669   0.1083   0.3421     H
H       0.4669   0.8917   0.6579     H
H       0.4757    0.257   0.6924     H
H       0.4757    0.743   0.3076     H
C       0.4794   0.1522   0.3074     C
C       0.4794   0.8478   0.6926     C
C       0.4795   0.3208   0.8852     C
C       0.4795   0.6792   0.1148     C
H       0.4832   0.1889   0.1778     H
H       0.4832   0.8111   0.8222     H
H        0.493    0.352   0.9251     H
H        0.493    0.648   0.0749     H
H       0.4998   0.4889     0.14     H
H       0.4998   0.5111     0.86     H
C          0.5   0.0908     0.25     C
C          0.5   0.9092     0.75     C
H       0.5002   0.4889     0.36     H
H       0.5002   0.5111     0.64     H
H        0.507    0.352   0.5749     H
H        0.507    0.648   0.4251     H
H       0.5168   0.1889   0.3222     H
H       0.5168   0.8111   0.6778     H
C       0.5205   0.3208   0.6148     C
C       0.5205   0.6792   0.3852     C
C       0.5206   0.1522   0.1926     C
C       0.5206   0.8478   0.8074     C
H       0.5243    0.257   0.8076     H
H       0.5243    0.743   0.1924     H
H       0.5331   0.1083   0.1579     H
H       0.5331   0.8917   0.8421     H
H       0.5355   0.0494   0.2622     H
H       0.5355   0.9506   0.7378     H
C       0.5367   0.4894   0.6621     C
C       0.5367   0.5106   0.3379     C
C       0.5385   0.2844   0.8485     C
C       0.5385   0.7156   0.1515     C
H       0.5484    0.266   0.6038     H
H       0.5484    0.734   0.3962     H
H       0.5521   0.1492   0.8916     H
H       0.5521   0.8508   0.1084     H
H       0.5563   0.3843   0.2968     H
H       0.5563   0.6157   0.7032     H
C       0.5574    0.393    0.656     C
C       0.5574    0.607    0.344     C
H       0.5663   0.3398    0.839     H
H       0.5663   0.6602    0.161     H
C       0.5704   0.4487   0.2996     C
C       0.5704   0.5513   0.7004     C
O        0.575   0.3001   0.1687     O
O        0.575   0.6999   0.8313     O
C       0.5751   0.2229   0.2038     C
C       0.5751   0.7771   0.7962     C
C       0.5783   0.2072   0.8846     C
C       0.5783   0.7928   0.1154     C
H       0.5913   0.2325   0.9264     H
H       0.5913   0.7675   0.0736     H
H       0.6031   0.0623   0.8017     H
H       0.6031   0.9377   0.1983     H
C       0.6112   0.3649   0.6911     C
C       0.6112   0.6351   0.3089     C
O        0.619   0.2068   0.2427     O
O        0.619   0.7932   0.7573     O
N       0.6224   0.4742   0.2656     N
N       0.6224   0.5258   0.7344     N
H       0.6262   0.4641   0.5289     H
H       0.6262   0.5359   0.4711     H
H       0.6263   0.3009    0.689     H
H       0.6263   0.6991    0.311     H
C       0.6378   0.1057   0.8032     C
C       0.6378   0.8943   0.1968     C
C        0.638   0.1807   0.8455     C
H        0.638   0.1977   0.0849     H
H        0.638   0.8023   0.9151     H
C        0.638   0.8193   0.1545     C
C        0.642   0.4332   0.7291     C
C        0.642   0.5668   0.2709     C
H       0.6472   0.2727   0.5378     H
H       0.6472   0.7273   0.4622     H
C       0.6527      0.5      0.5     C
H       0.6664   0.3814   0.4387     H
H       0.6664   0.6186   0.5613     H
Cd     0.67189  0.37256  0.18956    Cd
Cd     0.67189  0.62744  0.81044    Cd
H       0.6784   0.4137   0.7523     H
H       0.6784   0.5863   0.2477     H
H       0.6822   0.0944   0.0088     H
C       0.6822    0.202   0.0762     C
C       0.6822    0.798   0.9238     C
H       0.6822   0.9056   0.9912     H
H       0.6871   0.0445    0.732     H
H       0.6871   0.9555    0.268     H
C       0.6894   0.0945   0.7625     C
C       0.6894   0.9055   0.2375     C
C       0.6908   0.2823   0.5476     C
C       0.6908   0.7177   0.4524     C
C       0.6917   0.2345   0.8465     C
C       0.6917   0.7655   0.1535     C
C       0.6939   0.4201   0.4668     C
C       0.6939   0.5799   0.5332     C
H       0.6944   0.1814   0.6156     H
H       0.6944   0.8186   0.3844     H
H       0.6953   0.2846   0.8766     H
H       0.6953   0.7154   0.1234     H
C       0.7085   0.1398   0.0298     C
C       0.7085   0.8602   0.9702     C
N       0.7175   0.2677   0.1091     N
N       0.7175   0.7323   0.8909     N
C       0.7198   0.2266   0.5935     C
C       0.7198   0.7734   0.4065     C
H       0.7226   0.2403   0.3056     H
H       0.7226   0.7597   0.6944     H
C       0.7262   0.3542   0.5149     C
C       0.7262   0.6458   0.4851     C
H       0.7268   0.4511   0.4401     H
H       0.7268   0.5489   0.5599     H
N       0.7413   0.1475   0.7627     N
N       0.7413   0.8525   0.2373     N
C       0.7417   0.2183   0.8043     C
C       0.7417   0.7817   0.1957     C
C       0.7583   0.2817   0.3043     C
C       0.7583   0.7183   0.6957     C
N       0.7587   0.3525   0.2627     N
N       0.7587   0.6475   0.7373     N
H       0.7732   0.0489   0.9401     H
H       0.7732   0.9511   0.0599     H
C       0.7738   0.1458   0.0149     C
C       0.7738   0.8542   0.9851     C
H       0.7774   0.2597   0.8056     H
H       0.7774   0.7403   0.1944     H
C       0.7802   0.2734   0.0935     C
C       0.7802   0.7266   0.9065     C
N       0.7825   0.2323   0.6091     N
N       0.7825   0.7677   0.3909     N
C       0.7915   0.3602   0.5298     C
C       0.7915   0.6398   0.4702     C
H       0.8047   0.2154   0.3766     H
H       0.8047   0.7846   0.6234     H
H       0.8056   0.3186   0.1156     H
H       0.8056   0.6814   0.8844     H
C       0.8061   0.0799   0.9668     C
C       0.8061   0.9201   0.0332     C
C       0.8083   0.2655   0.3465     C
C       0.8083   0.7345   0.6535     C
C       0.8092   0.2177   0.0476     C
C       0.8092   0.7823   0.9524     C
C       0.8106   0.4055   0.2625     C
C       0.8106   0.5945   0.7375     C
H       0.8129   0.4555    0.232     H
H       0.8129   0.5445    0.768     H
C       0.8178    0.298   0.5762     C
H       0.8178   0.4056   0.5088     H
H       0.8178   0.5944   0.4912     H
C       0.8178    0.702   0.4238     C
H       0.8216   0.0863   0.2523     H
H       0.8216   0.9137   0.7477     H
Cd     0.82811  0.12744  0.68956    Cd
Cd     0.82811  0.87256  0.31044    Cd
H       0.8336   0.1186   0.9387     H
H       0.8336   0.8814   0.0613     H
C       0.8473      0.0      0.0     C
H       0.8528   0.2273   0.0378     H
H       0.8528   0.7727   0.9622     H
C        0.858   0.0668   0.2291     C
C        0.858   0.9332   0.7709     C
H        0.862   0.3023   0.5849     H
C        0.862   0.3193   0.3455     C
C        0.862   0.6807   0.6545     C
H        0.862   0.6977   0.4151     H
C       0.8622   0.3943   0.3032     C
C       0.8622   0.6057   0.6968     C
H       0.8737   0.1991    0.189     H
H       0.8737   0.8009    0.811     H
H       0.8738   0.0359   0.0289     H
H       0.8738   0.9641   0.9711     H
N       0.8776   0.0258   0.7656     N
N       0.8776   0.9742   0.2344     N
O        0.881   0.2932   0.7427     O
O        0.881   0.7068   0.2573     O
C       0.8888   0.1351   0.1911     C
C       0.8888   0.8649   0.8089     C
H       0.8969   0.4377   0.3017     H
H       0.8969   0.5623   0.6983     H
H       0.9087   0.2675   0.4264     H
H       0.9087   0.7325   0.5736     H
C       0.9217   0.2928   0.3846     C
C       0.9217   0.7072   0.6154     C
C       0.9249   0.2771   0.7038     C
C       0.9249   0.7229   0.2962     C
O        0.925   0.1999   0.6687     O
O        0.925   0.8001   0.3313     O
C       0.9296   0.0513   0.7996     C
C       0.9296   0.9487   0.2004     C
H       0.9337   0.1602    0.339     H
H       0.9337   0.8398    0.661     H
C       0.9426    0.107    0.156     C
C       0.9426    0.893    0.844     C
H       0.9437   0.1157   0.7968     H
H       0.9437   0.8843   0.2032     H
H       0.9479   0.3508   0.3916     H
H       0.9479   0.6492   0.6084     H
H       0.9516    0.234   0.1038     H
H       0.9516    0.766   0.8962     H
C       0.9615   0.2156   0.3485     C
C       0.9615   0.7844   0.6515     C
C       0.9633   0.0106   0.1621     C
C       0.9633   0.9894   0.8379     C
H       0.9645   0.4506   0.7622     H
H       0.9645   0.5494   0.2378     H
H       0.9669   0.3917   0.6579     H
H       0.9669   0.6083   0.3421     H
H       0.9757    0.243   0.3076     H
H       0.9757    0.757   0.6924     H
C       0.9794   0.3478   0.6926     C
C       0.9794   0.6522   0.3074     C
C       0.9795   0.1792   0.1148     C
C       0.9795   0.8208   0.8852     C
H       0.9832   0.3111   0.8222     H
H       0.9832   0.6889   0.1778     H
H        0.993    0.148   0.0749     H
H        0.993    0.852   0.9251     H
H       0.9998   0.0111     0.86     H
H       0.9998   0.9889     0.14     H
