data_I
_chemical_name_common  '/home/zhangsd/repos/MofS-CGCNN/ML/data/TSD/clean_cifs/RUYQIN01_clean'
_cell_length_a 24.19700
_cell_length_b 24.19700
_cell_length_c 13.14260
_cell_angle_alpha 90.00000
_cell_angle_beta  90.00000
_cell_angle_gamma 120.00000
_space_group_name_H-M_alt      'P 1'


loop_
_space_group_symop_operation_xyz
  'x, y, z' 

loop_
_atom_site_label
_atom_site_fract_x
_atom_site_fract_y
_atom_site_fract_z
_atom_site_type_symbol
N          0.0     0.31      0.0     N
C          0.0   0.3697      0.0     C
C          0.0   0.4835      0.0     C
C          0.0   0.5457      0.0     C
La         0.0  0.68505      0.5    La
O       0.0064   0.5739   0.9158     O
La     0.01839  0.66667  0.16667    La
O      0.02061  0.61774  0.33503     O
C      0.02073  0.52877  0.63387     C
H      0.02167  0.28633  0.20183     H
H       0.0222   0.2259   0.9116     H
C      0.02273  0.41447  0.65427     C
C      0.02313  0.59037  0.61807     C
N      0.02333  0.35667  0.66667     N
C       0.0253   0.4671   0.9202     C
C       0.0273   0.4113   0.9211     C
C      0.02767  0.50583  0.32013     C
C      0.02897  0.44893  0.30943     C
O       0.0356  0.76426   0.8916     O
C      0.03637  0.33333  0.33333     C
H       0.0414   0.4942   0.8645     H
H        0.047    0.402   0.8685     H
O      0.04892   0.7362  0.66837     O
C      0.05067  0.30603  0.25443     C
H      0.05213  0.26987  0.61207     H
C       0.0584   0.3106   0.9876     C
C       0.0594   0.2596   0.9377     C
H      0.06147  0.54323  0.29463     H
O      0.06199  0.63107  0.55827     O
H      0.06347  0.44893  0.27873     H
H      0.06867  0.38033  0.46483     H
O      0.06953  0.71559   0.9983     O
C      0.07243  0.52367  0.59457     C
C      0.07373  0.46647  0.60437     C
C       0.0763   0.7661   0.9514     C
C      0.07797  0.36063  0.41223     C
C      0.08113  0.35607  0.67907     C
C      0.08663  0.30437  0.64277     C
O      0.09277  0.76583  0.24913     O
O      0.09759  0.70227  0.77507     O
O      0.09917  0.75943  0.41753     O
C      0.09943  0.74297  0.71527     C
H      0.10583  0.55847  0.56207     H
H      0.10743  0.46297  0.57827     H
H       0.1082   0.8807   0.8954     H
C      0.10847  0.30803  0.25353     C
C       0.1156   0.3623   0.0239     C
H       0.1156   0.3968   0.0546     H
C       0.1179   0.2609   0.9279     C
H       0.1193   0.2275   0.8954     H
H      0.11947  0.29193  0.19783     H
C      0.12097  0.78763  0.33333     C
H      0.12343  0.85157  0.62797     H
H      0.12963  0.44077  0.75507     H
C      0.13313  0.40707  0.72897     C
C      0.13377  0.35863  0.41313     C
C       0.1379   0.8253   0.9672     C
C        0.143   0.8821   0.9279     C
C      0.14483  0.30567  0.65347     C
H      0.14843  0.27187  0.62797     H
C      0.15017  0.33333  0.33333     C
C      0.15863  0.80457  0.69947     C
C      0.16083  0.85517  0.65347     C
H      0.16087  0.37473  0.46883     H
H      0.17247  0.88053  0.19783     H
C       0.1725    0.361   0.0132     C
C       0.1747   0.3126   0.9672     C
C      0.18317  0.84983  0.33333     C
H       0.1849   0.7901   0.0387     H
C       0.1885   0.8275   0.0132     C
C      0.19033  0.40577  0.73877     C
C      0.19543  0.35407  0.69947     C
C      0.19957  0.89153  0.25353     C
C       0.2002   0.9406   0.9377     C
H       0.2037   0.9778   0.9116     H
H       0.2099   0.3948   0.0387     H
C      0.21237  0.33333  0.33333     C
H      0.21387  0.83913  0.46883     H
H      0.21403  0.77487  0.77127     H
C      0.21543  0.80967  0.73877     C
C      0.21773  0.91337  0.64277     C
H      0.21773  0.94787  0.61207     H
C      0.22487  0.86623  0.41313     C
H      0.22513  0.43917  0.77127     H
H       0.2259   0.0222   0.0884     H
H       0.2275   0.1193   0.1046     H
C       0.2339   0.3102   0.9514     C
O      0.23417  0.32693  0.24913     O
O      0.23574  0.27134   0.8916     O
O      0.24057  0.33973  0.41753     O
C       0.2467   0.8844   0.0239     C
C       0.2522   0.9416   0.9876     C
C      0.25537  0.94933  0.25443     C
C      0.25703  0.35647  0.71527     C
C       0.2596   0.0594   0.0623     C
C       0.2609   0.1179   0.0721     C
O       0.2638  0.31273  0.66837     O
H      0.26467  0.97833  0.20183     H
H      0.26987  0.05213  0.38793     H
O      0.27134  0.23574   0.1084     O
H      0.27187  0.14843  0.37203     H
C      0.27393  0.86687  0.72897     C
C      0.27493  0.91887  0.67907     C
H       0.2812   0.8844   0.0546     H
C      0.28267  0.92203  0.41223     C
O      0.28441  0.35394   0.9983     O
H      0.28633  0.02167  0.79817     H
H      0.29193  0.11947  0.80217     H
C      0.29697  0.96363  0.33333     C
O      0.29773  0.39533  0.77507     O
C      0.30437  0.08663  0.35723     C
C      0.30567  0.14483  0.34653     C
C      0.30603  0.05067  0.74557     C
C      0.30803  0.10847  0.74647     C
N         0.31      0.0      0.0     N
C       0.3102   0.2339   0.0486     C
C       0.3106   0.0584   0.0124     C
H      0.31113  0.87037  0.75507     H
H      0.31167  0.93133  0.46483     H
C       0.3126   0.1747   0.0328     C
O      0.31273   0.2638  0.33163     O
La     0.31495  0.31495      0.5    La
O      0.32693  0.23417  0.75087     O
C      0.33333  0.03637  0.66667     C
C      0.33333  0.15017  0.66667     C
C      0.33333  0.21237  0.66667     C
La     0.33333  0.35172  0.16667    La
N      0.33333  0.97667  0.66667     N
O      0.33973  0.24057  0.58247     O
La     0.35172  0.33333  0.83333    La
O      0.35394  0.28441   0.0017     O
C      0.35407  0.19543  0.30053     C
H        0.355    0.953   0.8685     H
H      0.35553  0.89257  0.57827     H
C      0.35607  0.08113  0.32093     C
C      0.35647  0.25703  0.28473     C
N      0.35667  0.02333  0.33333     N
C      0.35863  0.13377  0.58687     C
C      0.36063  0.07797  0.58777     C
C        0.361   0.1725   0.9868     C
C       0.3623   0.1156   0.9761     C
O      0.36893  0.43093  0.55827     O
C       0.3697      0.0      0.0     C
H      0.37473  0.16087  0.53117     H
H      0.38033  0.06867  0.53517     H
O      0.38226  0.40286  0.33503     O
C        0.384   0.9727   0.9211     C
H      0.38547  0.93653  0.27873     H
C      0.39173  0.97727  0.65427     C
C      0.39273  0.92627  0.60437     C
H       0.3948   0.2099   0.9613     H
O      0.39533  0.29773  0.22493     O
H       0.3968   0.1156   0.9454     H
H        0.402    0.047   0.1315     H
O      0.40286  0.38226  0.66497     O
C      0.40577  0.19033  0.26123     C
C      0.40707  0.13313  0.27103     C
C      0.40963  0.43277  0.61807     C
C       0.4113   0.0273   0.0789     C
C      0.41447  0.02273  0.34573     C
C      0.41997  0.97103  0.30943     C
O       0.4261   0.4325   0.9158     O
O      0.43093  0.36893  0.44173     O
O       0.4325   0.4261   0.0842     O
C      0.43277  0.40963  0.38193     C
H      0.43917  0.22513  0.22873     H
H      0.44077  0.12963  0.24493     H
H      0.44153  0.54737  0.56207     H
C       0.4418   0.9747   0.9202     C
C      0.44893  0.02897  0.69057     C
H      0.44893  0.06347  0.72127     H
C      0.45123  0.92757  0.59457     C
H      0.45263  0.89417  0.56207     H
H       0.4528   0.9586   0.8645     H
C       0.4543   0.4543      0.0     C
H      0.45677  0.51823  0.29463     H
H      0.46297  0.10743  0.42173     H
C      0.46647  0.07373  0.39563     C
C       0.4671   0.0253   0.0798     C
C      0.47123  0.49197  0.63387     C
C      0.47633  0.54877  0.59457     C
C      0.47817  0.97233  0.32013     C
H      0.48177  0.93853  0.29463     H
C       0.4835      0.0      0.0     C
C      0.49197  0.47123  0.36613     C
C      0.49417  0.52183  0.32013     C
H       0.4942   0.0414   0.1355     H
H       0.5058   0.5472   0.8645     H
C      0.50583  0.02767  0.67987     C
C      0.50803  0.97927  0.63387     C
C       0.5165   0.5165      0.0     C
H      0.51823  0.45677  0.70537     H
C      0.52183  0.49417  0.67987     C
C      0.52367  0.07243  0.40543     C
C      0.52877  0.02073  0.36613     C
C       0.5329   0.5582   0.9202     C
C      0.53353  0.60727  0.60437     C
H      0.53703  0.64447  0.57827     H
H      0.54323  0.06147  0.70537     H
C       0.5457      0.0      0.0     C
H       0.5472   0.5058   0.1355     H
H      0.54737  0.44153  0.43793     H
C      0.54877  0.47633  0.40543     C
C      0.55107  0.58003  0.30943     C
H      0.55107  0.61453  0.27873     H
C       0.5582   0.5329   0.0798     C
H      0.55847  0.10583  0.43793     H
H      0.55923  0.68887  0.75507     H
H      0.56083  0.78597  0.77127     H
C      0.56723  0.97687  0.61807     C
O       0.5675   0.9936   0.9158     O
O      0.56907  0.93801  0.55827     O
O       0.5739   0.0064   0.0842     O
C      0.58003  0.55107  0.69057     C
C      0.58553  0.60827  0.65427     C
C       0.5887    0.616   0.9211     C
C      0.59037  0.02313  0.38193     C
C      0.59293  0.72607  0.72897     C
C      0.59423  0.78457  0.73877     C
O      0.59714  0.97939  0.33503     O
H        0.598    0.645   0.8685     H
H       0.6032   0.7188   0.0546     H
O      0.60467  0.90241  0.77507     O
H       0.6052   0.8151   0.0387     H
C      0.60727  0.53353  0.39563     C
C      0.60827  0.58553  0.34573     C
H      0.61453  0.55107  0.72127     H
C        0.616   0.5887   0.0789     C
O      0.61774  0.02061  0.66497     O
H      0.61967  0.68833  0.46483     H
H      0.62527  0.78613  0.46883     H
C       0.6303   0.6303      0.0     C
O      0.63107  0.06199  0.44173     O
C       0.6377   0.7533   0.0239     C
C        0.639   0.8115   0.0132     C
C      0.63937  0.71733  0.41223     C
C      0.64137  0.77513  0.41313     C
N      0.64333  0.66667  0.66667     N
C      0.64353  0.90057  0.71527     C
C      0.64393  0.72507  0.67907     C
H      0.64447  0.53703  0.42173     H
H        0.645    0.598   0.1315     H
C      0.64593  0.84137  0.69947     C
O      0.64606  0.93047   0.9983     O
La     0.64828  0.98161  0.16667    La
O      0.66027  0.90083  0.41753     O
La     0.66667  0.01839  0.83333    La
N      0.66667  0.64333  0.33333     N
C      0.66667  0.70303  0.33333     C
C      0.66667  0.81683  0.33333     C
C      0.66667  0.87903  0.33333     C
O      0.67307  0.90723  0.24913     O
La     0.68505      0.0      0.5    La
O      0.68727  0.95108  0.66837     O
C       0.6874   0.8621   0.9672     C
H      0.68833  0.61967  0.53517     H
H      0.68887  0.55923  0.24493     H
C       0.6894   0.7478   0.9876     C
C       0.6898   0.9237   0.9514     C
N         0.69     0.69      0.0     N
C      0.69197  0.80043  0.25353     C
C      0.69397  0.74463  0.25443     C
C      0.69433  0.83917  0.65347     C
C      0.69563  0.78227  0.64277     C
O      0.70227  0.09759  0.22493     O
C      0.70303  0.66667  0.66667     C
H      0.70807  0.82753  0.19783     H
H      0.71367  0.73533  0.20183     H
O      0.71559  0.06953   0.0017     O
C      0.71733  0.63937  0.58777     C
H       0.7188   0.6032   0.9454     H
C      0.72507  0.64393  0.32093     C
C      0.72607  0.59293  0.27103     C
H      0.72813  0.87657  0.62797     H
O      0.72866   0.9644   0.8916     O
H      0.73013  0.78227  0.61207     H
H      0.73533  0.71367  0.79817     H
O       0.7362  0.04892  0.33163     O
C       0.7391    0.857   0.9279     C
C       0.7404   0.7998   0.9377     C
C      0.74297  0.09943  0.28473     C
C      0.74463  0.69397  0.74557     C
C       0.7478   0.6894   0.0124     C
C       0.7533   0.6377   0.9761     C
O      0.75943  0.09917  0.58247     O
O      0.76426   0.0356   0.1084     O
O      0.76583  0.09277  0.75087     O
C       0.7661   0.0763   0.0486     C
H       0.7725   0.8918   0.8954     H
H       0.7741   0.7963   0.9116     H
H      0.77487  0.21403  0.22873     H
C      0.77513  0.64137  0.58687     C
C      0.78227  0.69563  0.35723     C
H      0.78227  0.73013  0.38793     H
C      0.78457  0.59423  0.26123     C
H      0.78597  0.56083  0.22873     H
H      0.78613  0.62527  0.53117     H
C      0.78763  0.12097  0.66667     C
H       0.7901   0.1849   0.9613     H
H       0.7963   0.7741   0.0884     H
C       0.7998   0.7404   0.0623     C
C      0.80043  0.69197  0.74647     C
C      0.80457  0.15863  0.30053     C
C      0.80967  0.21543  0.26123     C
C       0.8115    0.639   0.9868     C
H       0.8151   0.6052   0.9613     H
C      0.81683  0.66667  0.66667     C
C       0.8253   0.1379   0.0328     C
C       0.8275   0.1885   0.9868     C
H      0.82753  0.70807  0.80217     H
H      0.83913  0.21387  0.53117     H
C      0.83917  0.69433  0.34653     C
C      0.84137  0.64593  0.30053     C
C      0.84983  0.18317  0.66667     C
H      0.85157  0.12343  0.37203     H
C      0.85517  0.16083  0.34653     C
C        0.857   0.7391   0.0721     C
C       0.8621   0.6874   0.0328     C
C      0.86623  0.22487  0.58687     C
C      0.86687  0.27393  0.27103     C
H      0.87037  0.31113  0.24493     H
H      0.87657  0.72813  0.37203     H
C      0.87903  0.66667  0.66667     C
H      0.88053  0.17247  0.80217     H
H       0.8807   0.1082   0.1046     H
C       0.8821    0.143   0.0721     C
C       0.8844   0.2467   0.9761     C
H       0.8844   0.2812   0.9454     H
C      0.89153  0.19957  0.74647     C
H       0.8918   0.7725   0.1046     H
H      0.89257  0.35553  0.42173     H
H      0.89417  0.45263  0.43793     H
C      0.90057  0.64353  0.28473     C
O      0.90083  0.66027  0.58247     O
O      0.90241  0.60467  0.22493     O
O      0.90723  0.67307  0.75087     O
C      0.91337  0.21773  0.35723     C
C      0.91887  0.27493  0.32093     C
C      0.92203  0.28267  0.58777     C
C       0.9237   0.6898   0.0486     C
C      0.92627  0.39273  0.39563     C
C      0.92757  0.45123  0.40543     C
O      0.93047  0.64606   0.0017     O
H      0.93133  0.31167  0.53517     H
H      0.93653  0.38547  0.72127     H
O      0.93801  0.56907  0.44173     O
H      0.93853  0.48177  0.70537     H
C       0.9406   0.2002   0.0623     C
C       0.9416   0.2522   0.0124     C
H      0.94787  0.21773  0.38793     H
C      0.94933  0.25537  0.74557     C
O      0.95108  0.68727  0.33163     O
H        0.953    0.355   0.1315     H
H       0.9586   0.4528   0.1355     H
C      0.96363  0.29697  0.66667     C
O       0.9644  0.72866   0.1084     O
C      0.97103  0.41997  0.69057     C
C      0.97233  0.47817  0.67987     C
C       0.9727    0.384   0.0789     C
C       0.9747   0.4418   0.0798     C
N      0.97667  0.33333  0.33333     N
C      0.97687  0.56723  0.38193     C
C      0.97727  0.39173  0.34573     C
H       0.9778   0.2037   0.0884     H
H      0.97833  0.26467  0.79817     H
C      0.97927  0.50803  0.36613     C
O      0.97939  0.59714  0.66497     O
La     0.98161  0.64828  0.83333    La
O       0.9936   0.5675   0.0842     O
