data_I
_chemical_name_common  '/home/zhangsd/repos/MofS-CGCNN/ML/data/TSD/clean_cifs/RUYVEO_clean'
_cell_length_a 28.32000
_cell_length_b 28.32000
_cell_length_c 12.83500
_cell_angle_alpha 90.00000
_cell_angle_beta  90.00000
_cell_angle_gamma 120.00000
_space_group_name_H-M_alt      'P 1'


loop_
_space_group_symop_operation_xyz
  'x, y, z' 

loop_
_atom_site_label
_atom_site_fract_x
_atom_site_fract_y
_atom_site_fract_z
_atom_site_type_symbol
La         0.0  0.32245      0.0    La
C          0.0   0.4329      0.5     C
C          0.0  0.48481      0.5     C
C          0.0  0.58157      0.5     C
C          0.0  0.63312      0.5     C
C          0.0  0.72986      0.5     C
H          0.0  0.76517      0.5     H
La     0.01088  0.34422  0.66667    La
C       0.0148  0.71502  0.16396     C
H       0.0148  0.75032  0.16197     H
C      0.01484  0.56678  0.17226     C
C      0.01484  0.61831  0.16937     C
C      0.01486  0.47007  0.17769     C
C      0.01487  0.41819   0.1806     C
O      0.01981  0.42075  0.42458     O
O      0.02309  0.39936  0.86379     O
C      0.02565  0.49907  0.87426     C
C      0.02566  0.54743  0.87697     C
O      0.02912   0.2805  0.56083     O
C      0.03355  0.65187  0.83063     C
C      0.03355  0.70022  0.83333     C
C      0.03795  0.52797  0.44264     C
C      0.03795  0.57634  0.44264     C
O      0.04293  0.31024  0.19712     O
C      0.04835  0.68147  0.50271     C
C      0.04835  0.72986  0.50271     C
O      0.05284  0.41529  0.22749     O
H       0.0552  0.49576   0.9102     H
H      0.05521  0.57942  0.91489     H
C      0.05534  0.56344  0.22421     C
C      0.05536  0.51508  0.22692     C
H      0.05882  0.79114  0.73409     H
C      0.06319  0.66667  0.16667     C
C      0.06319  0.71502  0.16396     C
H      0.06565  0.52416  0.40076     H
H      0.06565  0.60785  0.40076     H
O      0.06602  0.35643  0.46955     O
O       0.0676  0.31352  0.75791     O
H      0.06885  0.65187  0.82864     H
C      0.06999  0.31847  0.51394     C
H      0.07037  0.82194  0.59349     H
O      0.08196  0.38617  0.10584     O
H      0.08365  0.68147   0.5047     H
C      0.08486   0.3482  0.15273     C
H       0.0849  0.59629  0.26015     H
H      0.08491  0.51264  0.26484     H
C       0.0851  0.75177  0.83333     C
H      0.08725  0.80913  0.24822     H
O      0.08741  0.35315  0.90876     O
C      0.09033  0.79495  0.77597     C
H       0.0944  0.24843  0.59818     H
H       0.0985  0.66667  0.16667     H
C      0.09957  0.33333  0.83333     C
C      0.09988  0.78139   0.5056     C
C      0.10322  0.82523  0.55755     C
H      0.10722  0.27813  0.24353     H
C      0.11472  0.76655  0.16107     C
C      0.11924  0.81157   0.2103     C
C      0.12188  0.31848  0.51103     C
H      0.12447  0.72549  0.93258     H
H      0.12517  0.26768  0.73409     H
C      0.12639  0.27798  0.56026     C
C      0.12828    0.757   0.8907     C
C      0.13674  0.34819  0.15564     C
C       0.1387  0.84332  0.77597     C
C      0.14008  0.30768  0.20759     C
H      0.14246  0.75392  0.41845     H
H      0.14251  0.87483  0.73409     H
C       0.1449  0.78591  0.45637     C
C      0.15147  0.33333  0.83333     C
C      0.15158  0.87361  0.56026     C
H      0.15402   0.9056  0.59818     H
H      0.15527  0.73704  0.07318     H
C      0.15668  0.29538  0.77597     C
C      0.15856  0.76989  0.10912     C
H      0.16242  0.38854  0.42314     H
C      0.16573  0.35899  0.45908     C
C       0.1676  0.85992  0.20759     C
H      0.17091  0.89278  0.24353     H
C      0.17477    0.278  0.55755     C
C      0.17665  0.80537   0.8907     C
H      0.17806  0.24844  0.59349     H
H      0.17931  0.41824  0.06849     H
C      0.18175  0.38869  0.10641     C
C      0.18186  0.84853  0.83333     C
C      0.18843  0.30767   0.2103     C
H      0.19082  0.39899  0.93258     H
H      0.19087  0.27812  0.24822     H
C      0.19325  0.83427  0.45908     C
C      0.19463  0.37129   0.8907     C
C      0.19659  0.87812  0.51103     C
C      0.20505  0.29538  0.77597     C
C      0.20694  0.81825  0.10641     C
H      0.20816  0.80918  0.93258     H
H      0.20886  0.26768  0.73409     H
C      0.21145  0.86326  0.15564     C
C      0.21409    0.359  0.45637     C
C      0.21861   0.3185   0.5056     C
H      0.22611  0.83758  0.42314     H
C      0.23011  0.38867  0.10912     C
C      0.23345  0.34817  0.16107     C
C      0.23376  0.90043  0.83333     C
H      0.23483  0.23483      0.5     H
H      0.23893  0.82069  0.06849     H
C        0.243  0.37129   0.8907     C
O      0.24592   0.9324  0.75791     O
H      0.24608  0.38855  0.41845     H
C      0.24823  0.33333  0.83333     C
H      0.24843   0.0944  0.40182     H
H      0.24844  0.17806  0.40651     H
C      0.24847  0.93001  0.51394     C
H      0.24968  0.26448  0.16197     H
O      0.25137  0.97088  0.56083     O
H      0.26296  0.41823  0.07318     H
C      0.26334  0.91514  0.15273     C
H      0.26448  0.24968  0.83803     H
O      0.26573  0.91259  0.90876     O
O      0.26731  0.95707  0.19712     O
H      0.26768  0.12517  0.26591     H
H      0.26768  0.20886  0.26591     H
C      0.27014  0.27014      0.5     C
C      0.27014   0.3185  0.50271     C
H      0.27451  0.39899  0.93258     H
C      0.27798  0.12639  0.43974     C
C        0.278  0.17477  0.44245     C
H      0.27812  0.19087  0.75178     H
H      0.27813  0.10722  0.75647     H
O       0.2805  0.02912  0.43917     O
C      0.28498  0.29978  0.16396     C
C      0.28498  0.34817  0.16396     C
O       0.2904  0.93398  0.46955     O
C      0.29538  0.15668  0.22403     C
C      0.29538  0.20505  0.22403     C
C      0.29978  0.28498  0.83604     C
C      0.29978  0.33333  0.83333     C
O      0.30421  0.91804  0.10584     O
C      0.30767  0.18843   0.7897     C
C      0.30768  0.14008  0.79241     C
O      0.31024  0.04293  0.80288     O
O      0.31352   0.0676  0.24209     O
C      0.31847  0.06999  0.48606     C
C      0.31848  0.12188  0.48897     C
C       0.3185  0.21861   0.4944     C
C       0.3185  0.27014  0.49729     C
C      0.31853  0.36689  0.50271     C
H      0.31853  0.40219   0.5047     H
La     0.32245      0.0      0.0    La
C      0.33333  0.09957  0.16667     C
C      0.33333  0.15147  0.16667     C
C      0.33333  0.24823  0.16667     C
C      0.33333  0.29978  0.16667     C
C      0.33333  0.39652  0.16667     C
H      0.33333  0.43183  0.16667     H
La     0.33333  0.98912  0.66667    La
La     0.34422  0.01088  0.33333    La
C      0.34813  0.38169  0.83063     C
H      0.34813  0.41699  0.82864     H
C      0.34817  0.23345  0.83893     C
C      0.34817  0.28498  0.83604     C
C      0.34819  0.13674  0.84436     C
C       0.3482  0.08486  0.84727     C
O      0.35315  0.08741  0.09124     O
O      0.35643  0.06602  0.53045     O
C      0.35899  0.16573  0.54092     C
C        0.359  0.21409  0.54363     C
O      0.36246  0.94716  0.22749     O
C      0.36688  0.36688      0.5     C
C      0.36689  0.31853  0.49729     C
C      0.37129  0.19463   0.1093     C
C      0.37129    0.243   0.1093     C
O      0.37626  0.97691  0.86379     O
C      0.38169  0.34813  0.16937     C
C      0.38169  0.39652  0.16937     C
O      0.38617  0.08196  0.89416     O
H      0.38854  0.16242  0.57686     H
H      0.38855  0.24608  0.58155     H
C      0.38867  0.23011  0.89088     C
C      0.38869  0.18175  0.89359     C
H      0.39215  0.45781  0.40076     H
C      0.39652  0.33333  0.83333     C
C      0.39652  0.38169  0.83063     C
H      0.39899  0.19082  0.06742     H
H      0.39899  0.27451  0.06742     H
O      0.39936  0.02309  0.13621     O
O      0.40093  0.98019  0.42458     O
H      0.40219  0.31853   0.4953     H
C      0.40333  0.98513   0.1806     C
H      0.40371   0.4886  0.26015     H
O      0.41529  0.05284  0.77251     O
H      0.41699  0.34813  0.17136     H
C      0.41819  0.01487   0.8194     C
H      0.41823  0.26296  0.92682     H
H      0.41824  0.17931  0.93151     H
C      0.41844  0.41844      0.5     C
H      0.42058   0.4758  0.91489     H
O      0.42075  0.01981  0.57542     O
C      0.42366  0.46162  0.44264     C
H      0.42774  0.91509  0.26484     H
H      0.43183  0.33333  0.83333     H
C       0.4329      0.0      0.5     C
C      0.43322  0.44805  0.17226     C
C      0.43656  0.49189  0.22421     C
H      0.44055   0.9448   0.9102     H
C      0.44805  0.43322  0.82774     C
C      0.45257  0.47824  0.87697     C
C      0.45522  0.98514  0.17769     C
H      0.45781  0.39215  0.59924     H
H       0.4585  0.93435  0.40076     H
C      0.45973  0.94464  0.22692     C
C      0.46162  0.42366  0.55736     C
C      0.47007  0.01486  0.82231     C
C      0.47203  0.50999  0.44264     C
C      0.47341  0.97435  0.87426     C
H       0.4758  0.42058  0.08511     H
H      0.47584   0.5415  0.40076     H
C      0.47824  0.45257  0.12303     C
C      0.48481      0.0      0.5     C
C      0.48492  0.54027  0.22692     C
H      0.48736  0.57226  0.26484     H
H       0.4886  0.40371  0.73985     H
C      0.49001  0.96205  0.44264     C
C      0.49189  0.43656  0.77579     C
H      0.49576   0.0552   0.0898     H
C      0.49907  0.02565  0.12574     C
C      0.50093  0.52659  0.87426     C
H      0.50424  0.55945   0.9102     H
C      0.50811  0.94466  0.22421     C
C      0.50999  0.47203  0.55736     C
H       0.5114   0.9151  0.26015     H
H      0.51264  0.08491  0.73516     H
C      0.51508  0.05536  0.77308     C
C      0.51519   0.5152      0.5     C
C      0.52176  0.97434  0.87697     C
H      0.52416  0.06565  0.59924     H
H       0.5242  0.94479  0.91489     H
C      0.52659  0.50093  0.12574     C
C      0.52797  0.03795  0.55736     C
C      0.52993  0.54478  0.17769     C
C      0.53838  0.96205  0.44264     C
C      0.54027  0.48492  0.77308     C
H       0.5415  0.47584  0.59924     H
H      0.54219  0.93435  0.40076     H
C      0.54478  0.52993  0.82231     C
C      0.54743  0.02566  0.12303     C
C      0.55195  0.98516  0.17226     C
H      0.55945  0.50424   0.0898     H
C      0.56344  0.05534  0.77579     C
C      0.56678  0.01484  0.82774     C
C       0.5671   0.5671      0.5     C
H      0.56817   0.9015  0.16667     H
H      0.57226  0.48736  0.73516     H
C      0.57634  0.03795  0.55736     C
O      0.57925  0.59907  0.42458     O
H      0.57942  0.05521  0.08511     H
C      0.58157      0.0      0.5     C
H      0.58176  0.76107  0.06849     H
H      0.58177  0.84473  0.07318     H
C      0.58181  0.59667   0.1806     C
H      0.58301  0.93115  0.82864     H
O      0.58471  0.63754  0.22749     O
H      0.59629   0.0849  0.73985     H
C      0.59667  0.58181   0.8194     C
H      0.59781  0.91635   0.5047     H
O      0.59907  0.57925  0.57542     O
O      0.60064  0.62374  0.86379     O
H      0.60101  0.79184  0.93258     H
H      0.60101  0.87553  0.93258     H
C      0.60348  0.93681  0.16667     C
C      0.60348  0.98516  0.16937     C
H      0.60785  0.06565  0.59924     H
C      0.61131  0.79306  0.10641     C
C      0.61133  0.84144  0.10912     C
H      0.61145  0.85754  0.41845     H
H      0.61146  0.77389  0.42314     H
O      0.61383  0.69579  0.10584     O
C      0.61831  0.01484  0.83063     C
C      0.61831  0.96645  0.83063     C
O      0.62374  0.60064  0.13621     O
C      0.62871  0.82335   0.8907     C
C      0.62871  0.87172   0.8907     C
C      0.63311  0.95165  0.50271     C
C      0.63312      0.0      0.5     C
O      0.63754  0.58471  0.77251     O
C        0.641   0.8551  0.45637     C
C      0.64101  0.80675  0.45908     C
O      0.64357   0.7096  0.46955     O
O      0.64685  0.73427  0.90876     O
C       0.6518  0.73666  0.15273     C
C      0.65181  0.78855  0.15564     C
C      0.65183  0.88528  0.16107     C
C      0.65183  0.93681  0.16396     C
C      0.65187  0.03355  0.16937     C
H      0.65187  0.06885  0.17136     H
La     0.65578  0.66667  0.66667    La
C      0.66667  0.06319  0.83333     C
H      0.66667   0.0985  0.83333     H
La     0.66667  0.65578  0.33333    La
C      0.66667  0.76624  0.83333     C
C      0.66667  0.81814  0.83333     C
C      0.66667   0.9149  0.83333     C
C      0.66667  0.96645  0.83333     C
La     0.67755  0.67755      0.0    La
C      0.68147  0.04835  0.49729     C
H      0.68147  0.08365   0.4953     H
C       0.6815  0.90012   0.5056     C
C       0.6815  0.95165  0.50271     C
C      0.68152  0.80341  0.51103     C
C      0.68153  0.75153  0.51394     C
O      0.68648  0.75408  0.75791     O
O      0.68976  0.73269  0.19712     O
C      0.69232   0.8324  0.20759     C
C      0.69233  0.88076   0.2103     C
O      0.69579  0.61383  0.89416     O
C      0.70022  0.03355  0.16667     C
C      0.70022   0.9852  0.16396     C
C      0.70462   0.8613  0.77597     C
C      0.70462  0.90967  0.77597     C
O       0.7096  0.64357  0.53045     O
C      0.71502   0.0148  0.83604     C
C      0.71502  0.06319  0.83604     C
O       0.7195  0.74863  0.56083     O
H      0.72187  0.82909  0.24353     H
H      0.72188  0.91275  0.24822     H
C        0.722  0.89678  0.55755     C
C      0.72202  0.84842  0.56026     C
H      0.72549  0.12447  0.06742     H
C      0.72986      0.0      0.5     C
C      0.72986  0.04835  0.49729     C
H      0.73232  0.85749  0.73409     H
H      0.73232  0.94118  0.73409     H
O      0.73269  0.68976  0.80288     O
O      0.73427  0.64685  0.09124     O
H      0.73552   0.9852  0.16197     H
C      0.73666   0.6518  0.84727     C
H      0.73704  0.15527  0.92682     H
O      0.74863   0.7195  0.43917     O
H      0.75032   0.0148  0.83803     H
C      0.75153  0.68153  0.48606     C
H      0.75156  0.92963  0.59349     H
H      0.75157  0.84598  0.59818     H
C      0.75177   0.0851  0.16667     C
H      0.75392  0.14246  0.58155     H
O      0.75408  0.68648  0.24209     O
C        0.757  0.12828   0.1093     C
H      0.76107  0.58176  0.93151     H
H      0.76517      0.0      0.5     H
C      0.76624  0.66667  0.16667     C
C      0.76655  0.11472  0.83893     C
C      0.76989  0.15856  0.89088     C
H      0.77389  0.61146  0.57686     H
C      0.78139  0.09988   0.4944     C
C      0.78591   0.1449  0.54363     C
C      0.78855  0.65181  0.84436     C
H      0.79114  0.05882  0.26591     H
H      0.79184  0.60101  0.06742     H
C      0.79306  0.61131  0.89359     C
C      0.79495  0.09033  0.22403     C
C      0.80341  0.68152  0.48897     C
C      0.80537  0.17665   0.1093     C
C      0.80675  0.64101  0.54092     C
H      0.80913  0.08725  0.75178     H
H      0.80918  0.20816  0.06742     H
C      0.81157  0.11924   0.7897     C
C      0.81814  0.66667  0.16667     C
C      0.81825  0.20694  0.89359     C
H      0.82069  0.23893  0.93151     H
H      0.82194  0.07037  0.40651     H
C      0.82335  0.62871   0.1093     C
C      0.82523  0.10322  0.44245     C
H      0.82909  0.72187  0.75647     H
C       0.8324  0.69232  0.79241     C
C      0.83427  0.19325  0.54092     C
H      0.83758  0.22611  0.57686     H
C      0.84144  0.61133  0.89088     C
C      0.84332   0.1387  0.22403     C
H      0.84473  0.58177  0.92682     H
H      0.84598  0.75157  0.40182     H
C      0.84842  0.72202  0.43974     C
C      0.84853  0.18186  0.16667     C
C       0.8551    0.641  0.54363     C
H      0.85749  0.73232  0.26591     H
H      0.85754  0.61145  0.58155     H
C      0.85992   0.1676  0.79241     C
C       0.8613  0.70462  0.22403     C
C      0.86326  0.21145  0.84436     C
C      0.87172  0.62871   0.1093     C
C      0.87361  0.15158  0.43974     C
H      0.87483  0.14251  0.26591     H
H      0.87553  0.60101  0.06742     H
C      0.87812  0.19659  0.48897     C
C      0.88076  0.69233   0.7897     C
C      0.88528  0.65183  0.83893     C
H      0.89278  0.17091  0.75647     H
C      0.89678    0.722  0.44245     C
C      0.90012   0.6815   0.4944     C
C      0.90043  0.23376  0.16667     C
H       0.9015  0.56817  0.83333     H
H       0.9056  0.15402  0.40182     H
C      0.90967  0.70462  0.22403     C
O      0.91259  0.26573  0.09124     O
H      0.91275  0.72188  0.75178     H
C       0.9149  0.66667  0.16667     C
H      0.91509  0.42774  0.73516     H
H       0.9151   0.5114  0.73985     H
C      0.91514  0.26334  0.84727     C
H      0.91635  0.59781   0.4953     H
O      0.91804  0.30421  0.89416     O
H      0.92963  0.75156  0.40651     H
C      0.93001  0.24847  0.48606     C
H      0.93115  0.58301  0.17136     H
O       0.9324  0.24592  0.24209     O
O      0.93398   0.2904  0.53045     O
H      0.93435   0.4585  0.59924     H
H      0.93435  0.54219  0.59924     H
C      0.93681  0.60348  0.83333     C
C      0.93681  0.65183  0.83604     C
H      0.94118  0.73232  0.26591     H
C      0.94464  0.45973  0.77308     C
C      0.94466  0.50811  0.77579     C
H      0.94479   0.5242  0.08511     H
H       0.9448  0.44055   0.0898     H
O      0.94716  0.36246  0.77251     O
C      0.95165  0.63311  0.49729     C
C      0.95165   0.6815  0.49729     C
O      0.95707  0.26731  0.80288     O
C      0.96205  0.49001  0.55736     C
C      0.96205  0.53838  0.55736     C
C      0.96645  0.61831  0.16937     C
C      0.96645  0.66667  0.16667     C
O      0.97088  0.25137  0.43917     O
C      0.97434  0.52176  0.12303     C
C      0.97435  0.47341  0.12574     C
O      0.97691  0.37626  0.13621     O
O      0.98019  0.40093  0.57542     O
C      0.98513  0.40333   0.8194     C
C      0.98514  0.45522  0.82231     C
C      0.98516  0.55195  0.82774     C
C      0.98516  0.60348  0.83063     C
C       0.9852  0.70022  0.83604     C
H       0.9852  0.73552  0.83803     H
La     0.98912  0.33333  0.33333    La
