data_I
_chemical_name_common  '/home/zhangsd/repos/MofS-CGCNN/ML/data/TSD/clean_cifs/SABVOH01_clean'
_cell_length_a 17.01900
_cell_length_b  6.58440
_cell_length_c 12.26200
_cell_angle_alpha 90.00000
_cell_angle_beta  90.00000
_cell_angle_gamma 90.00000
_space_group_name_H-M_alt      'P 1'


loop_
_space_group_symop_operation_xyz
  'x, y, z' 

loop_
_atom_site_label
_atom_site_fract_x
_atom_site_fract_y
_atom_site_fract_z
_atom_site_type_symbol
Al         0.0      0.0      0.0    Al
Al         0.0      0.5      0.0    Al
O      0.00511     0.75  0.06418     O
H        0.017     0.75   0.1284     H
O       0.0723   0.5799  0.89083     O
O       0.0723   0.9201  0.89083     O
O      0.08675   0.0798  0.08606     O
O      0.08675   0.4202  0.08606     O
C      0.09934     0.75   0.8629     C
C      0.11591     0.25   0.1099     C
C      0.17087     0.75   0.7923     C
H       0.1823   0.0541   0.7825     H
H       0.1823   0.4459   0.7825     H
C      0.19135     0.25   0.1723     C
H       0.2034    0.554     0.18     H
H       0.2034    0.946     0.18     H
C      0.20527   0.5682    0.762     C
C      0.20527   0.9318    0.762     C
C      0.22609   0.0683   0.2013     C
C      0.22609   0.4317   0.2013     C
C      0.27391   0.5683   0.7013     C
C      0.27391   0.9317   0.7013     C
C      0.29473   0.0682    0.262     C
C      0.29473   0.4318    0.262     C
H       0.2966    0.054     0.68     H
H       0.2966    0.446     0.68     H
C      0.30865     0.75   0.6723     C
H       0.3177   0.5541   0.2825     H
H       0.3177   0.9459   0.2825     H
C      0.32913     0.25   0.2923     C
C      0.38409     0.75   0.6099     C
C      0.40066     0.25   0.3629     C
O      0.41325   0.5798  0.58606     O
O      0.41325   0.9202  0.58606     O
O       0.4277   0.0799  0.39083     O
O       0.4277   0.4201  0.39083     O
H        0.483     0.25   0.6284     H
O      0.49489     0.25  0.56418     O
Al         0.5      0.0      0.5    Al
Al         0.5      0.5      0.5    Al
O      0.50511     0.75  0.43582     O
H        0.517     0.75   0.3716     H
O       0.5723   0.5799  0.60917     O
O       0.5723   0.9201  0.60917     O
O      0.58675   0.0798  0.41394     O
O      0.58675   0.4202  0.41394     O
C      0.59934     0.75   0.6371     C
C      0.61591     0.25   0.3901     C
C      0.67087     0.75   0.7077     C
H       0.6823   0.0541   0.7175     H
H       0.6823   0.4459   0.7175     H
C      0.69135     0.25   0.3277     C
H       0.7034    0.554     0.32     H
H       0.7034    0.946     0.32     H
C      0.70527   0.5682    0.738     C
C      0.70527   0.9318    0.738     C
C      0.72609   0.0683   0.2987     C
C      0.72609   0.4317   0.2987     C
C      0.77391   0.5683   0.7987     C
C      0.77391   0.9317   0.7987     C
C      0.79473   0.0682    0.238     C
C      0.79473   0.4318    0.238     C
H       0.7966    0.054     0.82     H
H       0.7966    0.446     0.82     H
C      0.80865     0.75   0.8277     C
H       0.8177   0.5541   0.2175     H
H       0.8177   0.9459   0.2175     H
C      0.82913     0.25   0.2077     C
C      0.88409     0.75   0.8901     C
C      0.90066     0.25   0.1371     C
O      0.91325   0.5798  0.91394     O
O      0.91325   0.9202  0.91394     O
O       0.9277   0.0799  0.10917     O
O       0.9277   0.4201  0.10917     O
H        0.983     0.25   0.8716     H
O      0.99489     0.25  0.93582     O
