data_I
_chemical_name_common  '/home/zhangsd/repos/MofS-CGCNN/ML/data/TSD/clean_cifs/SABVOH_manual'
_cell_length_a 17.12900
_cell_length_b  6.62840
_cell_length_c 12.18160
_cell_angle_alpha 90.00000
_cell_angle_beta  90.00000
_cell_angle_gamma 90.00000
_space_group_name_H-M_alt      'P 1'


loop_
_space_group_symop_operation_xyz
  'x, y, z' 

loop_
_atom_site_label
_atom_site_fract_x
_atom_site_fract_y
_atom_site_fract_z
_atom_site_type_symbol
H     -0.00035  0.76007  0.86745     H
O      0.00033  0.75904  0.93824     O
Al      0.0018  0.50804 -0.00372    Al
Al     0.00184  0.00815 -0.00109    Al
O      0.00901  0.25908  0.05589     O
H      0.01841  0.26004  0.12543     H
O      0.06916  0.42744  0.89141     O
O      0.07025  0.08486  0.89497     O
O      0.08295  0.92756  0.08189     O
O      0.08348    0.585    0.079     O
C      0.09648  0.25525  0.85941     C
C       0.1141  0.75578  0.10647     C
C      0.16579   0.2539  0.78301     C
H       0.1761  0.92868  0.77357     H
H      0.17617  0.57802  0.77264     H
C      0.19073  0.75512  0.16757     C
C      0.20191  0.43507  0.75039     C
C      0.20192  0.07178  0.75098     C
H      0.20314  0.43077  0.17175     H
H      0.20344  0.07928    0.171     H
C      0.22857   0.5734  0.19548     C
C      0.22872   0.9367  0.19502     C
C      0.27313  0.43452  0.69225     C
C      0.27318   0.0714  0.69256     C
H      0.29897  0.57742  0.66955     H
H      0.29906  0.92886  0.67006     H
C      0.29926  0.57338  0.25488     C
C      0.29944  0.93681  0.25417     C
C      0.31116  0.25317   0.6651     C
H      0.32534  0.43037  0.27655     H
H      0.32573  0.07955  0.27542     H
C      0.33504  0.75518  0.28738     C
C      0.38857  0.25366  0.60574     C
C      0.40499  0.75581  0.36276     C
O      0.41958   0.0831  0.57835     O
O      0.41998  0.42618  0.58233     O
O      0.43136  0.58522  0.39797     O
O      0.43312  0.92799  0.39387     O
O      0.50121  0.75932  0.55804     O
Al     0.50149  0.50826  0.49995    Al
H      0.50215  0.76047  0.62887     H
Al     0.50246    0.007  0.49631    Al
O      0.50752  0.25915  0.43997     O
H      0.51416  0.26019  0.36979     H
O      0.56964  0.42801   0.6031     O
O      0.57171  0.08591  0.59858     O
O      0.58293  0.92635  0.41246     O
O      0.58352  0.58315  0.41688     O
C      0.59727  0.25599  0.63482     C
C      0.61417  0.75373  0.38894     C
C      0.66547  0.25545    0.713     C
H      0.67486  0.57972  0.72493     H
H      0.67514  0.93071  0.72384     H
C      0.69136  0.75312  0.32891     C
C      0.70082  0.43685  0.74719     C
C      0.70097  0.07362  0.74645     C
H      0.70477   0.4286  0.32652     H
H      0.70489  0.07746  0.32704     H
C      0.72987  0.57114  0.30225     C
C      0.72994   0.9345  0.30253     C
C      0.77142   0.4367  0.80673     C
C      0.77155  0.07344  0.80614     C
H      0.79674  0.57957  0.83025     H
H      0.79709  0.93047  0.82929     H
C      0.80087  0.57158  0.24361     C
C       0.8009  0.93487   0.2442     C
C      0.80956  0.25497  0.83393     C
H      0.82731  0.42877  0.22221     H
H      0.82734  0.07745  0.22321     H
C      0.83658  0.75367  0.21089     C
C       0.8871  0.25546  0.89295     C
C      0.90602  0.75505  0.13439     C
O      0.91829  0.08423  0.91904     O
O      0.91868  0.42746  0.91654     O
O       0.9325  0.58439  0.09914     O
O      0.93337  0.92749  0.10242     O
