data_I
_chemical_name_common  '/home/zhangsd/repos/MofS-CGCNN/ML/data/TSD/clean_cifs/SABWUQ_clean'
_cell_length_a 10.42500
_cell_length_b 10.62000
_cell_length_c 11.32300
_cell_angle_alpha 83.41000
_cell_angle_beta  74.96000
_cell_angle_gamma 69.67000
_space_group_name_H-M_alt      'P 1'


loop_
_space_group_symop_operation_xyz
  'x, y, z' 

loop_
_atom_site_label
_atom_site_fract_x
_atom_site_fract_y
_atom_site_fract_z
_atom_site_type_symbol
Cu         0.0      0.5      0.5    Cu
O       0.0029   0.4411   0.6695     O
H       0.0059   0.8367    0.648     H
C       0.0247   0.3571   0.9046     C
C       0.0282   0.3251   0.0246     C
N       0.0398    0.044   0.7169     N
O       0.0506   0.1516   0.7253     O
O       0.0514   0.3187   0.4545     O
C       0.0678   0.0867   0.3638     C
C       0.0732    0.962   0.3354     C
H       0.0832   0.6739   0.8007     H
C       0.0901   0.6506   0.8811     C
C       0.1057   0.5818   0.1234     C
H       0.1073   0.3384   0.8434     H
C       0.1121   0.5446   0.2536     C
O       0.1287   0.9373   0.7377     O
N       0.1692   0.2613    0.052     N
C       0.1712   0.2318   0.4371     C
C       0.1755    0.095   0.4108     C
O        0.176   0.2477   0.1588     O
C       0.1775   0.8439   0.3553     C
H       0.1778   0.7613   0.3353     H
C       0.2207   0.5901   0.9095     C
C       0.2282   0.5561   0.0305     C
O       0.2292   0.5038   0.2802     O
O       0.2711   0.2341   0.9679     O
C       0.2814   0.8528    0.406     C
C       0.2821    0.978   0.4314     C
O       0.2829   0.2491   0.4396     O
H       0.3154    0.516   0.0494     H
O       0.3417   0.6088   0.7022     O
C        0.352   0.5696   0.8101     C
H       0.3543   0.9834   0.4624     H
C       0.3919   0.7272   0.4373     C
O       0.3966   0.6168   0.4051     O
Dy     0.41301  0.40272  0.36825    Dy
O        0.471   0.5186   0.8351     O
O       0.4716   0.7417   0.4964     O
O       0.5284   0.2583   0.5036     O
O        0.529   0.4814   0.1649     O
Dy     0.58699  0.59728  0.63175    Dy
O       0.6034   0.3832   0.5949     O
C       0.6081   0.2728   0.5627     C
H       0.6457   0.0166   0.5376     H
C        0.648   0.4304   0.1899     C
O       0.6583   0.3912   0.2978     O
H       0.6846    0.484   0.9506     H
O       0.7171   0.7509   0.5604     O
C       0.7179    0.022   0.5686     C
C       0.7186   0.1472    0.594     C
O       0.7289   0.7659   0.0321     O
O       0.7708   0.4962   0.7198     O
C       0.7718   0.4439   0.9695     C
C       0.7793   0.4099   0.0905     C
H       0.8222   0.2387   0.6647     H
C       0.8225   0.1561   0.6447     C
O        0.824   0.7523   0.8412     O
C       0.8245    0.905   0.5892     C
C       0.8288   0.7682   0.5629     C
N       0.8308   0.7387    0.948     N
O       0.8713   0.0627   0.2623     O
C       0.8879   0.4554   0.7464     C
H       0.8927   0.6616   0.1566     H
C       0.8943   0.4182   0.8766     C
C       0.9099   0.3494   0.1189     C
H       0.9168   0.3261   0.1993     H
C       0.9268    0.038   0.6646     C
C       0.9322   0.9133   0.6362     C
O       0.9486   0.6813   0.5455     O
O       0.9494   0.8484   0.2747     O
N       0.9602    0.956   0.2831     N
C       0.9718   0.6749   0.9754     C
C       0.9753   0.6429   0.0954     C
H       0.9941   0.1633    0.352     H
O       0.9971   0.5589   0.3305     O
