data_I
_chemical_name_common  '/home/zhangsd/repos/MofS-CGCNN/ML/data/TSD/clean_cifs/SABXEB_clean'
_cell_length_a 10.44500
_cell_length_b 10.63600
_cell_length_c 11.32600
_cell_angle_alpha 83.28000
_cell_angle_beta  74.83000
_cell_angle_gamma 69.60000
_space_group_name_H-M_alt      'P 1'


loop_
_space_group_symop_operation_xyz
  'x, y, z' 

loop_
_atom_site_label
_atom_site_fract_x
_atom_site_fract_y
_atom_site_fract_z
_atom_site_type_symbol
Cu         0.0      0.5      0.5    Cu
O       0.0035   0.4416   0.6695     O
H       0.0068   0.8373   0.6467     H
C       0.0255   0.3563   0.9043     C
C       0.0299   0.3246   0.0245     C
N       0.0413   0.0432   0.7146     N
O       0.0491   0.1521   0.7257     O
O       0.0506   0.3188   0.4544     O
C       0.0674   0.0864   0.3645     C
C       0.0733   0.9623   0.3357     C
H       0.0839   0.6741   0.8008     H
C       0.0901   0.6508   0.8813     C
C        0.105   0.5827   0.1236     C
H       0.1079   0.3374   0.8428     H
C       0.1104   0.5463   0.2542     C
O       0.1272   0.9384   0.7379     O
N       0.1686   0.2625   0.0526     N
C       0.1706   0.2317   0.4372     C
O        0.174   0.2474   0.1595     O
C        0.175   0.0957   0.4107     C
H       0.1768   0.7621   0.3362     H
C       0.1769   0.8446   0.3557     C
C       0.2203   0.5903   0.9097     C
O       0.2272   0.5058    0.281     O
C       0.2273   0.5566   0.0315     C
O       0.2715   0.2353   0.9689     O
O       0.2811   0.2504   0.4407     O
C       0.2813   0.9793   0.4314     C
C       0.2815   0.8535   0.4062     C
H       0.3142   0.5165   0.0508     H
O       0.3418   0.6089    0.703     O
C       0.3522   0.5691   0.8109     C
H       0.3531    0.985   0.4623     H
C       0.3911    0.729   0.4378     C
O       0.3964   0.6184   0.4062     O
Tb     0.41264  0.40318  0.36838    Tb
O       0.4698    0.518   0.8364     O
O        0.471   0.7438   0.4965     O
O        0.529   0.2562   0.5035     O
O       0.5302    0.482   0.1636     O
Tb     0.58736  0.59682  0.63162    Tb
O       0.6036   0.3816   0.5938     O
C       0.6089    0.271   0.5622     C
H       0.6469    0.015   0.5377     H
C       0.6478   0.4309   0.1891     C
O       0.6582   0.3911    0.297     O
H       0.6858   0.4835   0.9492     H
C       0.7185   0.1465   0.5938     C
C       0.7187   0.0207   0.5686     C
O       0.7189   0.7496   0.5593     O
O       0.7285   0.7647   0.0311     O
C       0.7727   0.4434   0.9685     C
O       0.7728   0.4942    0.719     O
C       0.7797   0.4097   0.0903     C
C       0.8231   0.1554   0.6443     C
H       0.8232   0.2379   0.6638     H
C        0.825   0.9043   0.5893     C
O        0.826   0.7526   0.8405     O
C       0.8294   0.7683   0.5628     C
N       0.8314   0.7375   0.9474     N
O       0.8728   0.0616   0.2621     O
C       0.8896   0.4537   0.7458     C
H       0.8921   0.6626   0.1572     H
C        0.895   0.4173   0.8764     C
C       0.9099   0.3492   0.1187     C
H       0.9161   0.3259   0.1992     H
C       0.9267   0.0377   0.6643     C
C       0.9326   0.9136   0.6355     C
O       0.9494   0.6812   0.5456     O
O       0.9509   0.8479   0.2743     O
N       0.9587   0.9568   0.2854     N
C       0.9701   0.6754   0.9755     C
C       0.9745   0.6437   0.0957     C
H       0.9932   0.1627   0.3533     H
O       0.9965   0.5584   0.3305     O
