data_I
_chemical_name_common  '/home/zhangsd/repos/MofS-CGCNN/ML/data/TSD/clean_cifs/SABYUS_clean'
_cell_length_a 10.50000
_cell_length_b 10.63500
_cell_length_c 11.37300
_cell_angle_alpha 82.98000
_cell_angle_beta  74.42000
_cell_angle_gamma 69.60000
_space_group_name_H-M_alt      'P 1'


loop_
_space_group_symop_operation_xyz
  'x, y, z' 

loop_
_atom_site_label
_atom_site_fract_x
_atom_site_fract_y
_atom_site_fract_z
_atom_site_type_symbol
Cu         0.0      0.5      0.5    Cu
O       0.0048   0.4407   0.6687     O
H       0.0073   0.8359   0.6474     H
C        0.026   0.3557   0.9029     C
C       0.0301   0.3238   0.0225     C
N       0.0383   0.0436   0.7169     N
O        0.046   0.3193   0.4546     O
O       0.0474   0.1516   0.7258     O
C       0.0665   0.0878   0.3638     C
C       0.0748   0.9618   0.3341     C
H        0.084   0.6744   0.8027     H
C       0.0899   0.6521   0.8831     C
C       0.1037   0.5841   0.1247     C
H       0.1082   0.3375   0.8414     H
C       0.1098   0.5462   0.2549     C
O       0.1222   0.9395   0.7423     O
C       0.1668   0.2328    0.439     C
N        0.169    0.262   0.0507     N
C       0.1732   0.0956   0.4111     C
O       0.1744   0.2508   0.1563     O
C       0.1778    0.846   0.3544     C
H       0.1781   0.7633   0.3352     H
C       0.2188   0.5941   0.9112     C
C        0.225   0.5598   0.0325     C
O       0.2254   0.5068   0.2809     O
O       0.2712   0.2329   0.9659     O
O       0.2748   0.2516   0.4457     O
C       0.2791   0.9807   0.4314     C
C       0.2819   0.8544   0.4042     C
H       0.3115   0.5203   0.0514     H
O        0.341   0.6115   0.7035     O
H       0.3492    0.987   0.4635     H
C       0.3507   0.5734    0.812     C
C       0.3918   0.7309   0.4359     C
O        0.397     0.62   0.4058     O
Eu     0.41196  0.40163   0.3702    Eu
O       0.4673   0.5237   0.8369     O
O       0.4727   0.7457   0.4924     O
O       0.5273   0.2543   0.5076     O
O       0.5327   0.4763   0.1631     O
Eu     0.58804  0.59837   0.6298    Eu
O        0.603     0.38   0.5942     O
C       0.6082   0.2691   0.5641     C
C       0.6493   0.4266    0.188     C
H       0.6508    0.013   0.5365     H
O        0.659   0.3885   0.2965     O
H       0.6885   0.4797   0.9486     H
C       0.7181   0.1456   0.5958     C
C       0.7209   0.0193   0.5686     C
O       0.7252   0.7484   0.5543     O
O       0.7288   0.7671   0.0341     O
O       0.7746   0.4932   0.7191     O
C        0.775   0.4402   0.9675     C
C       0.7812   0.4059   0.0888     C
H       0.8219   0.2367   0.6648     H
C       0.8222    0.154   0.6456     C
O       0.8256   0.7492   0.8437     O
C       0.8268   0.9044   0.5889     C
N        0.831    0.738   0.9493     N
C       0.8332   0.7672    0.561     C
O       0.8778   0.0605   0.2577     O
C       0.8902   0.4538   0.7451     C
H       0.8918   0.6625   0.1586     H
C       0.8963   0.4159   0.8753     C
C       0.9101   0.3479   0.1169     C
H        0.916   0.3256   0.1973     H
C       0.9252   0.0382   0.6659     C
C       0.9335   0.9122   0.6362     C
O       0.9526   0.8484   0.2742     O
O        0.954   0.6807   0.5454     O
N       0.9617   0.9564   0.2831     N
C       0.9699   0.6762   0.9775     C
C        0.974   0.6443   0.0971     C
H       0.9927   0.1641   0.3526     H
O       0.9952   0.5593   0.3313     O
