data_I
_chemical_name_common  '/home/zhangsd/repos/MofS-CGCNN/ML/data/TSD/clean_cifs/SABYIG_clean'
_cell_length_a 10.52800
_cell_length_b 10.67100
_cell_length_c 11.37800
_cell_angle_alpha 83.14000
_cell_angle_beta  74.61000
_cell_angle_gamma 69.34000
_space_group_name_H-M_alt      'P 1'


loop_
_space_group_symop_operation_xyz
  'x, y, z' 

loop_
_atom_site_label
_atom_site_fract_x
_atom_site_fract_y
_atom_site_fract_z
_atom_site_type_symbol
Cu         0.0      0.5      0.5    Cu
O       0.0057   0.4409   0.6684     O
H       0.0073   0.8357   0.6461     H
C       0.0266   0.3564    0.903     C
C       0.0311   0.3247   0.0233     C
N       0.0392   0.0432   0.7137     N
O       0.0463   0.1521   0.7256     O
O       0.0467     0.32   0.4548     O
C       0.0668   0.0881   0.3649     C
C       0.0738   0.9632   0.3362     C
H       0.0844   0.6743   0.8023     H
C       0.0898   0.6514   0.8827     C
C       0.1027    0.584   0.1251     C
C       0.1074   0.5482   0.2552     C
H       0.1087   0.3382   0.8417     H
O       0.1259    0.939   0.7369     O
C       0.1674   0.2334   0.4377     C
N       0.1679   0.2645   0.0523     N
O        0.172   0.2491   0.1593     O
C       0.1726   0.0971   0.4106     C
C       0.1771   0.8459   0.3568     C
H       0.1773   0.7632   0.3384     H
C       0.2193   0.5921   0.9119     C
O       0.2237   0.5111   0.2822     O
C       0.2245   0.5587   0.0328     C
O       0.2715   0.2399   0.9681     O
O       0.2756   0.2522   0.4423     O
C       0.2793   0.9815   0.4315     C
C       0.2809   0.8557   0.4061     C
H       0.3108   0.5188   0.0522     H
O       0.3395   0.6113   0.7049     O
H       0.3501   0.9878   0.4626     H
C       0.3508    0.571    0.813     C
C       0.3909   0.7318   0.4381     C
O       0.3959   0.6208   0.4076     O
Sm     0.41205  0.40328  0.36906    Sm
O       0.4672   0.5191   0.8383     O
O       0.4703   0.7478   0.4954     O
O       0.5297   0.2522   0.5046     O
O       0.5328   0.4809   0.1617     O
Sm     0.58795  0.59672  0.63094    Sm
O       0.6041   0.3792   0.5924     O
C       0.6091   0.2682   0.5619     C
C       0.6492    0.429    0.187     C
H       0.6499   0.0122   0.5374     H
O       0.6605   0.3887   0.2951     O
H       0.6892   0.4812   0.9478     H
C       0.7191   0.1443   0.5939     C
C       0.7207   0.0185   0.5685     C
O       0.7244   0.7478   0.5577     O
O       0.7285   0.7601   0.0319     O
C       0.7755   0.4413   0.9672     C
O       0.7763   0.4889   0.7178     O
C       0.7807   0.4079   0.0881     C
H       0.8227   0.2368   0.6616     H
C       0.8229   0.1541   0.6432     C
C       0.8274   0.9029   0.5894     C
O        0.828   0.7509   0.8407     O
N       0.8321   0.7355   0.9477     N
C       0.8326   0.7666   0.5623     C
O       0.8741    0.061   0.2631     O
H       0.8913   0.6618   0.1583     H
C       0.8926   0.4518   0.7448     C
C       0.8973    0.416   0.8749     C
C       0.9102   0.3486   0.1173     C
H       0.9156   0.3257   0.1977     H
C       0.9262   0.0368   0.6638     C
C       0.9332   0.9119   0.6351     C
O       0.9533     0.68   0.5452     O
O       0.9537   0.8479   0.2744     O
N       0.9608   0.9568   0.2863     N
C       0.9689   0.6753   0.9767     C
C       0.9734   0.6436    0.097     C
H       0.9927   0.1643   0.3539     H
O       0.9943   0.5591   0.3316     O
