data_I
_chemical_name_common  '/home/zhangsd/repos/MofS-CGCNN/ML/data/TSD/clean_cifs/SADMUH_SL'
_cell_length_a 15.96230
_cell_length_b  6.93510
_cell_length_c 14.39190
_cell_angle_alpha 90.00000
_cell_angle_beta  90.00000
_cell_angle_gamma 90.00000
_space_group_name_H-M_alt      'P 1'


loop_
_space_group_symop_operation_xyz
  'x, y, z' 

loop_
_atom_site_label
_atom_site_fract_x
_atom_site_fract_y
_atom_site_fract_z
_atom_site_type_symbol
Fe         0.0      0.0      0.0    Fe
H          0.0     0.25  0.86862     H
O          0.0     0.25   0.9381     O
Fe         0.0      0.5      0.0    Fe
O          0.0     0.75   0.0619     O
H          0.0     0.75  0.13138     H
O       0.0873   0.0914    0.088     O
O       0.0873   0.4086    0.088     O
O       0.0873   0.5914    0.912     O
O       0.0873   0.9086    0.912     O
C       0.1169     0.25   0.1175     C
C       0.1169     0.75   0.8825     C
C       0.1854     0.25   0.1857     C
C       0.1854     0.75   0.8143     C
H       0.1949   0.0453   0.8049     H
H       0.1949   0.4547   0.8049     H
H       0.1949   0.5453   0.1951     H
H       0.1949   0.9547   0.1951     H
C       0.2177   0.0771   0.2179     C
C       0.2177   0.4229   0.2179     C
C       0.2177   0.5771   0.7821     C
C       0.2177   0.9229   0.7821     C
C       0.2823   0.0771   0.2821     C
C       0.2823   0.4229   0.2821     C
C       0.2823   0.5771   0.7179     C
C       0.2823   0.9229   0.7179     C
H       0.3051   0.0453   0.6951     H
H       0.3051   0.4547   0.6951     H
H       0.3051   0.5453   0.3049     H
H       0.3051   0.9547   0.3049     H
C       0.3146     0.25   0.3143     C
C       0.3146     0.75   0.6857     C
C       0.3831     0.25   0.3825     C
C       0.3831     0.75   0.6175     C
O       0.4127   0.0914    0.412     O
O       0.4127   0.4086    0.412     O
O       0.4127   0.5914    0.588     O
O       0.4127   0.9086    0.588     O
Fe         0.5      0.0      0.5    Fe
O          0.5     0.25   0.5619     O
H          0.5     0.25  0.63138     H
Fe         0.5      0.5      0.5    Fe
H          0.5     0.75  0.36862     H
O          0.5     0.75   0.4381     O
O       0.5873   0.0914    0.412     O
O       0.5873   0.4086    0.412     O
O       0.5873   0.5914    0.588     O
O       0.5873   0.9086    0.588     O
C       0.6169     0.25   0.3825     C
C       0.6169     0.75   0.6175     C
C       0.6854     0.25   0.3143     C
C       0.6854     0.75   0.6857     C
H       0.6949   0.0453   0.6951     H
H       0.6949   0.4547   0.6951     H
H       0.6949   0.5453   0.3049     H
H       0.6949   0.9547   0.3049     H
C       0.7177   0.0771   0.2821     C
C       0.7177   0.4229   0.2821     C
C       0.7177   0.5771   0.7179     C
C       0.7177   0.9229   0.7179     C
C       0.7823   0.0771   0.2179     C
C       0.7823   0.4229   0.2179     C
C       0.7823   0.5771   0.7821     C
C       0.7823   0.9229   0.7821     C
H       0.8051   0.0453   0.8049     H
H       0.8051   0.4547   0.8049     H
H       0.8051   0.5453   0.1951     H
H       0.8051   0.9547   0.1951     H
C       0.8146     0.25   0.1857     C
C       0.8146     0.75   0.8143     C
C       0.8831     0.25   0.1175     C
C       0.8831     0.75   0.8825     C
O       0.9127   0.0914    0.088     O
O       0.9127   0.4086    0.088     O
O       0.9127   0.5914    0.912     O
O       0.9127   0.9086    0.912     O
