data_I
_chemical_name_common  '/home/zhangsd/repos/MofS-CGCNN/ML/data/TSD/clean_cifs/SAHXAD_clean'
_cell_length_a 20.13700
_cell_length_b 10.70200
_cell_length_c 11.41800
_cell_angle_alpha 90.00000
_cell_angle_beta  90.00000
_cell_angle_gamma 90.00000
_space_group_name_H-M_alt      'P 1'


loop_
_space_group_symop_operation_xyz
  'x, y, z' 

loop_
_atom_site_label
_atom_site_fract_x
_atom_site_fract_y
_atom_site_fract_z
_atom_site_type_symbol
O          0.0   0.0627   0.5342     O
H          0.0   0.1087   0.5919     H
C          0.0   0.3347   0.3517     C
C          0.0   0.4605   0.3032     C
C          0.0   0.7062   0.2204     C
H          0.0   0.7883   0.1936     H
Zn         0.0   0.8607   0.5457    Zn
O       0.0552   0.2828   0.3705     O
C       0.0607   0.6454   0.2402     C
C       0.0608   0.5229   0.2829     C
O       0.0737   0.8383   0.4189     O
Zn     0.07895  0.12913  0.45551    Zn
H       0.1008   0.4825   0.2979     H
C       0.1035   0.8964   0.3426     C
O       0.1047   0.0162   0.3317     O
C       0.1247   0.7074   0.2111     C
C        0.142   0.8257   0.2509     C
O       0.1538   0.1913   0.5388     O
H       0.1594   0.5634   0.1145     H
C       0.1696   0.6439   0.1392     C
O        0.178   0.0174   0.6357     O
C       0.1904   0.1269   0.6036     C
C       0.2035   0.8779   0.2158     C
H       0.2152   0.9568   0.2429     H
C        0.228   0.6963   0.1043     C
H       0.2437   0.3469   0.5543     H
C       0.2452   0.8168   0.1447     C
C       0.2548   0.1832   0.6447     C
H       0.2563   0.6531   0.0543     H
C        0.272   0.3037   0.6043     C
H       0.2848   0.0432   0.7429     H
C       0.2965   0.1221   0.7158     C
C       0.3096   0.8731   0.1036     C
O        0.322   0.9826   0.1357     O
C       0.3304   0.3561   0.6392     C
H       0.3406   0.4366   0.6145     H
O       0.3462   0.8087   0.0388     O
C        0.358   0.1743   0.7509     C
C       0.3753   0.2926   0.7111     C
O       0.3953   0.9838   0.8317     O
C       0.3965   0.1036   0.8426     C
H       0.3992   0.5175   0.7979     H
Zn     0.42105  0.87087  0.95551    Zn
O       0.4263   0.1617   0.9189     O
C       0.4392   0.4771   0.7829     C
C       0.4393   0.3546   0.7402     C
O       0.4448   0.7172   0.8705     O
Zn         0.5   0.1393   0.0457    Zn
H          0.5   0.2117   0.6936     H
C          0.5   0.2938   0.7204     C
C          0.5   0.5395   0.8032     C
C          0.5   0.6653   0.8517     C
H          0.5   0.8913   0.0919     H
O          0.5   0.9373   0.0342     O
O       0.5552   0.7172   0.8705     O
C       0.5607   0.3546   0.7402     C
C       0.5608   0.4771   0.7829     C
O       0.5737   0.1617   0.9189     O
Zn     0.57895  0.87087  0.95551    Zn
H       0.6008   0.5175   0.7979     H
C       0.6035   0.1036   0.8426     C
O       0.6047   0.9838   0.8317     O
C       0.6247   0.2926   0.7111     C
C        0.642   0.1743   0.7509     C
O       0.6538   0.8087   0.0388     O
H       0.6594   0.4366   0.6145     H
C       0.6696   0.3561   0.6392     C
O        0.678   0.9826   0.1357     O
C       0.6904   0.8731   0.1036     C
C       0.7035   0.1221   0.7158     C
H       0.7152   0.0432   0.7429     H
C        0.728   0.3037   0.6043     C
H       0.7437   0.6531   0.0543     H
C       0.7452   0.1832   0.6447     C
C       0.7548   0.8168   0.1447     C
H       0.7563   0.3469   0.5543     H
C        0.772   0.6963   0.1043     C
H       0.7848   0.9568   0.2429     H
C       0.7965   0.8779   0.2158     C
C       0.8096   0.1269   0.6036     C
O        0.822   0.0174   0.6357     O
C       0.8304   0.6439   0.1392     C
H       0.8406   0.5634   0.1145     H
O       0.8462   0.1913   0.5388     O
C        0.858   0.8257   0.2509     C
C       0.8753   0.7074   0.2111     C
O       0.8953   0.0162   0.3317     O
C       0.8965   0.8964   0.3426     C
H       0.8992   0.4825   0.2979     H
Zn     0.92105  0.12913  0.45551    Zn
O       0.9263   0.8383   0.4189     O
C       0.9392   0.5229   0.2829     C
C       0.9393   0.6454   0.2402     C
O       0.9448   0.2828   0.3705     O
