data_I
_chemical_name_common  '/home/zhangsd/repos/MofS-CGCNN/ML/data/TSD/clean_cifs/SAJLOH_clean'
_cell_length_a  8.55300
_cell_length_b  9.11400
_cell_length_c 10.39900
_cell_angle_alpha 105.16000
_cell_angle_beta  97.83000
_cell_angle_gamma 114.41000
_space_group_name_H-M_alt      'P 1'


loop_
_space_group_symop_operation_xyz
  'x, y, z' 

loop_
_atom_site_label
_atom_site_fract_x
_atom_site_fract_y
_atom_site_fract_z
_atom_site_type_symbol
O       0.0805   0.1264   0.3649     O
H       0.1583   0.0339   0.1304     H
Cu     0.17175   0.0421   0.7027    Cu
O       0.1862   0.0247   0.8874     O
O       0.1932   0.9887   0.5139     O
O       0.2173   0.7939   0.7937     O
C       0.2219   0.9036   0.8952     C
C       0.2295   0.9827   0.1466     C
P      0.23604  0.09973  0.42397     P
C       0.2758   0.9028    0.038     C
C       0.2874   0.9881   0.2799     C
C       0.3821   0.8254   0.0618     C
C        0.394   0.9115    0.302     C
O        0.401   0.2705   0.5045     O
H       0.4114   0.7685   0.9885     H
H       0.4325   0.9126   0.3905     H
N       0.4328   0.2315    0.777     N
C       0.4434   0.8335   0.1938     C
H        0.445     0.32    0.855     H
H         0.46    0.283    0.714     H
Cu         0.5      0.5      0.5    Cu
H         0.54    0.717    0.286     H
H        0.555     0.68    0.145     H
C       0.5566   0.1665   0.8062     C
N       0.5672   0.7685    0.223     N
H       0.5675   0.0874   0.6095     H
H       0.5886   0.2315   0.0115     H
O        0.599   0.7295   0.4955     O
C        0.606   0.0885    0.698     C
C       0.6179   0.1746   0.9382     C
C       0.7126   0.0119   0.7201     C
C       0.7242   0.0972    0.962     C
P      0.76396  0.90027  0.57603     P
C       0.7705   0.0173   0.8534     C
C       0.7781   0.0964   0.1048     C
O       0.7827   0.2061   0.2063     O
O       0.8068   0.0113   0.4861     O
O       0.8138   0.9753   0.1126     O
Cu     0.82825   0.9579   0.2973    Cu
H       0.8417   0.9661   0.8696     H
O       0.9195   0.8736   0.6351     O
