data_I
_chemical_name_common  '/home/zhangsd/repos/MofS-CGCNN/ML/data/TSD/clean_cifs/SANHIB_clean'
_cell_length_a 18.17410
_cell_length_b 11.30880
_cell_length_c 18.60050
_cell_angle_alpha 90.00000
_cell_angle_beta  108.16600
_cell_angle_gamma 90.00000
_space_group_name_H-M_alt      'P 1'


loop_
_space_group_symop_operation_xyz
  'x, y, z' 

loop_
_atom_site_label
_atom_site_fract_x
_atom_site_fract_y
_atom_site_fract_z
_atom_site_type_symbol
Tb     0.00125  0.43507   0.8978    Tb
Tb     0.00125  0.56493   0.3978    Tb
O      0.07368   0.3262  0.00115     O
O      0.07368   0.6738  0.50115     O
O       0.0763   0.4005    0.113     O
O       0.0763   0.5995    0.613     O
O       0.0781   0.4301   0.4852     O
O       0.0781   0.5699   0.9852     O
O      0.08744   0.4792  0.83671     O
O      0.08744   0.5208  0.33671     O
O      0.08889   0.4288  0.72184     O
O      0.08889   0.5712  0.22184     O
O       0.0958   0.3128  0.58309     O
O       0.0958   0.6872  0.08309     O
C       0.1007   0.3315   0.0723     C
C       0.1007   0.6685   0.5723     C
C       0.1148   0.3489   0.5273     C
C       0.1148   0.6511   0.0273     C
C       0.1182   0.4296   0.7919     C
C       0.1182   0.5704   0.2919     C
H       0.1225   0.2531   0.2362     H
H       0.1225   0.7469   0.7362     H
N       0.1644    0.291   0.2394     N
N       0.1644    0.709   0.7394     N
C       0.1676    0.253   0.1097     C
C       0.1676    0.747   0.6097     C
H       0.1829   0.4031   0.4267     H
H       0.1829   0.5969   0.9267     H
C       0.1838   0.2954   0.5132     C
C       0.1838   0.7046   0.0132     C
H       0.1841   0.2015   0.0129     H
H       0.1841   0.7985   0.5129     H
C        0.195    0.371   0.8259     C
C        0.195    0.629   0.3259     C
H       0.1958   0.2849   0.2847     H
H       0.1958   0.7151   0.7847     H
C       0.1975   0.2422   0.1886     C
C       0.1975   0.7578   0.6886     C
H       0.2009   0.3959   0.9359     H
H       0.2009   0.6041   0.4359     H
N       0.2017   0.1442   0.6116     N
N       0.2017   0.8558   0.1116     N
H       0.2049   0.0682   0.6068     H
H       0.2049   0.9318   0.1068     H
C       0.2056   0.1979   0.0652     C
C       0.2056   0.8021   0.5652     C
C       0.2101   0.3415   0.4565     C
C       0.2101   0.6585   0.9565     C
H       0.2139   0.3328   0.7283     H
H       0.2139   0.6672   0.2283     H
C       0.2245   0.2014   0.5569     C
C       0.2245   0.7986   0.0569     C
C       0.2261   0.3619   0.9046     C
C       0.2261   0.6381   0.4046     C
H       0.2315   0.1645   0.6562     H
H       0.2315   0.8355   0.1562     H
C       0.2335   0.3227   0.7804     C
C       0.2335   0.6773   0.2804     C
C       0.2665   0.1773   0.2196     C
C       0.2665   0.8227   0.7196     C
H       0.2685   0.3355   0.3438     H
H       0.2685   0.6645   0.8438     H
C       0.2739   0.1381   0.0954     C
C       0.2739   0.8619   0.5954     C
C       0.2755   0.2986   0.4431     C
C       0.2755   0.7014   0.9431     C
H       0.2861   0.1672   0.2717     H
H       0.2861   0.8328   0.7717     H
C       0.2899   0.1585   0.5435     C
C       0.2899   0.8415   0.0435     C
C       0.2944   0.3021   0.9348     C
C       0.2944   0.6979   0.4348     C
H       0.2951   0.4318   0.3932     H
H       0.2951   0.5682   0.8932     H
N       0.2983   0.3558   0.3884     N
N       0.2983   0.6442   0.8884     N
H       0.2991   0.1041   0.0641     H
H       0.2991   0.8959   0.5641     H
C       0.3025   0.2578   0.8114     C
C       0.3025   0.7422   0.3114     C
H       0.3042   0.2151   0.7153     H
H       0.3042   0.7849   0.2153     H
C        0.305    0.129   0.1741     C
C        0.305    0.871   0.6741     C
H       0.3159   0.2985   0.9871     H
H       0.3159   0.7015   0.4871     H
C       0.3162   0.2046   0.4868     C
C       0.3162   0.7954   0.9868     C
H       0.3171   0.0969   0.5733     H
H       0.3171   0.9031   0.0733     H
C       0.3324    0.247   0.8903     C
C       0.3324    0.753   0.3903     C
N       0.3356    0.209   0.7606     N
N       0.3356    0.791   0.2606     N
H       0.3775   0.2469   0.7638     H
H       0.3775   0.7531   0.2638     H
C       0.3818   0.0704   0.2081     C
C       0.3818   0.9296   0.7081     C
C       0.3852   0.1511   0.4727     C
C       0.3852   0.8489   0.9727     C
C       0.3993   0.1685   0.9277     C
C       0.3993   0.8315   0.4277     C
O       0.4042   0.1872  0.41691     O
O       0.4042   0.8128  0.91691     O
O      0.41111   0.0712  0.27816     O
O      0.41111   0.9288  0.77816     O
O      0.41256   0.0208  0.16329     O
O      0.41256   0.9792  0.66329     O
O       0.4219   0.0699   0.5148     O
O       0.4219   0.9301   0.0148     O
O       0.4237   0.0995    0.887     O
O       0.4237   0.9005    0.387     O
O      0.42632   0.1738  0.99885     O
O      0.42632   0.8262  0.49885     O
Tb     0.49875  0.06493   0.1022    Tb
Tb     0.49875  0.93507   0.6022    Tb
Tb     0.50125  0.06493   0.3978    Tb
Tb     0.50125  0.93507   0.8978    Tb
O      0.57368   0.1738  0.50115     O
O      0.57368   0.8262  0.00115     O
O       0.5763   0.0995    0.613     O
O       0.5763   0.9005    0.113     O
O       0.5781   0.0699   0.9852     O
O       0.5781   0.9301   0.4852     O
O      0.58744   0.0208  0.33671     O
O      0.58744   0.9792  0.83671     O
O      0.58889   0.0712  0.22184     O
O      0.58889   0.9288  0.72184     O
O       0.5958   0.1872  0.08309     O
O       0.5958   0.8128  0.58309     O
C       0.6007   0.1685   0.5723     C
C       0.6007   0.8315   0.0723     C
C       0.6148   0.1511   0.0273     C
C       0.6148   0.8489   0.5273     C
C       0.6182   0.0704   0.2919     C
C       0.6182   0.9296   0.7919     C
H       0.6225   0.2469   0.7362     H
H       0.6225   0.7531   0.2362     H
N       0.6644    0.209   0.7394     N
N       0.6644    0.791   0.2394     N
C       0.6676    0.247   0.6097     C
C       0.6676    0.753   0.1097     C
H       0.6829   0.0969   0.9267     H
H       0.6829   0.9031   0.4267     H
C       0.6838   0.2046   0.0132     C
C       0.6838   0.7954   0.5132     C
H       0.6841   0.2985   0.5129     H
H       0.6841   0.7015   0.0129     H
C        0.695    0.129   0.3259     C
C        0.695    0.871   0.8259     C
H       0.6958   0.2151   0.7847     H
H       0.6958   0.7849   0.2847     H
C       0.6975   0.2578   0.6886     C
C       0.6975   0.7422   0.1886     C
H       0.7009   0.1041   0.4359     H
H       0.7009   0.8959   0.9359     H
N       0.7017   0.3558   0.1116     N
N       0.7017   0.6442   0.6116     N
H       0.7049   0.4318   0.1068     H
H       0.7049   0.5682   0.6068     H
C       0.7056   0.3021   0.5652     C
C       0.7056   0.6979   0.0652     C
C       0.7101   0.1585   0.9565     C
C       0.7101   0.8415   0.4565     C
H       0.7139   0.1672   0.2283     H
H       0.7139   0.8328   0.7283     H
C       0.7245   0.2986   0.0569     C
C       0.7245   0.7014   0.5569     C
C       0.7261   0.1381   0.4046     C
C       0.7261   0.8619   0.9046     C
H       0.7315   0.3355   0.1562     H
H       0.7315   0.6645   0.6562     H
C       0.7335   0.1773   0.2804     C
C       0.7335   0.8227   0.7804     C
C       0.7665   0.3227   0.7196     C
C       0.7665   0.6773   0.2196     C
H       0.7685   0.1645   0.8438     H
H       0.7685   0.8355   0.3438     H
C       0.7739   0.3619   0.5954     C
C       0.7739   0.6381   0.0954     C
C       0.7755   0.2014   0.9431     C
C       0.7755   0.7986   0.4431     C
H       0.7861   0.3328   0.7717     H
H       0.7861   0.6672   0.2717     H
C       0.7899   0.3415   0.0435     C
C       0.7899   0.6585   0.5435     C
C       0.7944   0.1979   0.4348     C
C       0.7944   0.8021   0.9348     C
H       0.7951   0.0682   0.8932     H
H       0.7951   0.9318   0.3932     H
N       0.7983   0.1442   0.8884     N
N       0.7983   0.8558   0.3884     N
H       0.7991   0.3959   0.5641     H
H       0.7991   0.6041   0.0641     H
C       0.8025   0.2422   0.3114     C
C       0.8025   0.7578   0.8114     C
H       0.8042   0.2849   0.2153     H
H       0.8042   0.7151   0.7153     H
C        0.805    0.371   0.6741     C
C        0.805    0.629   0.1741     C
H       0.8159   0.2015   0.4871     H
H       0.8159   0.7985   0.9871     H
C       0.8162   0.2954   0.9868     C
C       0.8162   0.7046   0.4868     C
H       0.8171   0.4031   0.0733     H
H       0.8171   0.5969   0.5733     H
C       0.8324    0.253   0.3903     C
C       0.8324    0.747   0.8903     C
N       0.8356    0.291   0.2606     N
N       0.8356    0.709   0.7606     N
H       0.8775   0.2531   0.2638     H
H       0.8775   0.7469   0.7638     H
C       0.8818   0.4296   0.7081     C
C       0.8818   0.5704   0.2081     C
C       0.8852   0.3489   0.9727     C
C       0.8852   0.6511   0.4727     C
C       0.8993   0.3315   0.4277     C
C       0.8993   0.6685   0.9277     C
O       0.9042   0.3128  0.91691     O
O       0.9042   0.6872  0.41691     O
O      0.91111   0.4288  0.77816     O
O      0.91111   0.5712  0.27816     O
O      0.91256   0.4792  0.66329     O
O      0.91256   0.5208  0.16329     O
O       0.9219   0.4301   0.0148     O
O       0.9219   0.5699   0.5148     O
O       0.9237   0.4005    0.387     O
O       0.9237   0.5995    0.887     O
O      0.92632   0.3262  0.49885     O
O      0.92632   0.6738  0.99885     O
Tb     0.99875  0.43507   0.6022    Tb
Tb     0.99875  0.56493   0.1022    Tb
