data_I
_chemical_name_common  '/home/zhangsd/repos/MofS-CGCNN/ML/data/TSD/clean_cifs/SANHOH_clean'
_cell_length_a 18.37800
_cell_length_b 11.41460
_cell_length_c 18.87360
_cell_angle_alpha 90.00000
_cell_angle_beta  108.42600
_cell_angle_gamma 90.00000
_space_group_name_H-M_alt      'P 1'


loop_
_space_group_symop_operation_xyz
  'x, y, z' 

loop_
_atom_site_label
_atom_site_fract_x
_atom_site_fract_y
_atom_site_fract_z
_atom_site_type_symbol
Dy      0.0009  0.06551  0.89795    Dy
Dy      0.0009  0.93449  0.39795    Dy
O       0.0755   0.1734   0.0019     O
O       0.0755   0.8266   0.5019     O
O       0.0767   0.1004   0.1118     O
O       0.0767   0.8996   0.6118     O
O        0.079   0.0715   0.4859     O
O        0.079   0.9285   0.9859     O
O       0.0873   0.0236   0.8358     O
O       0.0873   0.9764   0.3358     O
O       0.0891   0.0712   0.7219     O
O       0.0891   0.9288   0.2219     O
O       0.0966   0.1886   0.5818     O
O       0.0966   0.8114   0.0818     O
C       0.1024   0.1671   0.0721     C
C       0.1024   0.8329   0.5721     C
C       0.1157   0.1517    0.527     C
C       0.1157   0.8483    0.027     C
C       0.1188   0.0709   0.7918     C
C       0.1188   0.9291   0.2918     C
N        0.167   0.2088   0.2387     N
N        0.167   0.7912   0.7387     N
C       0.1694   0.2446   0.1098     C
C       0.1694   0.7554   0.6098     C
H       0.1817   0.0972   0.4264     H
H       0.1817   0.9028   0.9264     H
C        0.185   0.2046   0.5131     C
C        0.185   0.7954   0.0131     C
H       0.1854   0.2953   0.0128     H
H       0.1854   0.7047   0.5128     H
C       0.1948   0.1308   0.8261     C
C       0.1948   0.8692   0.3261     C
C       0.1993   0.2556   0.1891     C
C       0.1993   0.7444   0.6891     C
H       0.2023    0.101   0.9348     H
H       0.2023    0.899   0.4348     H
N        0.203   0.3523   0.6115     N
N        0.203   0.6477   0.1115     N
C       0.2066      0.3   0.0656     C
C       0.2066      0.7   0.5656     C
C         0.21   0.1588   0.4566     C
C         0.21   0.8412   0.9566     C
H       0.2117   0.1727   0.7283     H
H       0.2117   0.8273   0.2283     H
C       0.2244   0.2989   0.5566     C
C       0.2244   0.7011   0.0566     C
C       0.2267   0.1384   0.9034     C
C       0.2267   0.8616   0.4034     C
C       0.2325   0.1812   0.7809     C
C       0.2325   0.8188   0.2809     C
C       0.2675   0.3188   0.2191     C
C       0.2675   0.6812   0.7191     C
C       0.2733   0.3616   0.0966     C
C       0.2733   0.6384   0.5966     C
C       0.2756   0.2011   0.4434     C
C       0.2756   0.7989   0.9434     C
H       0.2883   0.3273   0.2717     H
H       0.2883   0.6727   0.7717     H
C         0.29   0.3412   0.5434     C
C         0.29   0.6588   0.0434     C
C       0.2934      0.2   0.9344     C
C       0.2934      0.8   0.4344     C
N        0.297   0.1477   0.3885     N
N        0.297   0.8523   0.8885     N
H       0.2977    0.399   0.0652     H
H       0.2977    0.601   0.5652     H
C       0.3007   0.2444   0.8109     C
C       0.3007   0.7556   0.3109     C
C       0.3052   0.3692   0.1739     C
C       0.3052   0.6308   0.6739     C
H       0.3146   0.2047   0.9872     H
H       0.3146   0.7953   0.4872     H
C        0.315   0.2954   0.4869     C
C        0.315   0.7046   0.9869     C
H       0.3183   0.4028   0.5736     H
H       0.3183   0.5972   0.0736     H
C       0.3306   0.2554   0.8902     C
C       0.3306   0.7446   0.3902     C
N        0.333   0.2912   0.7613     N
N        0.333   0.7088   0.2613     N
C       0.3812   0.4291   0.2082     C
C       0.3812   0.5709   0.7082     C
C       0.3843   0.3483    0.473     C
C       0.3843   0.6517    0.973     C
C       0.3976   0.3329   0.9279     C
C       0.3976   0.6671   0.4279     C
O       0.4034   0.3114   0.4182     O
O       0.4034   0.6886   0.9182     O
O       0.4109   0.4288   0.2781     O
O       0.4109   0.5712   0.7781     O
O       0.4127   0.4764   0.1642     O
O       0.4127   0.5236   0.6642     O
O        0.421   0.4285   0.5141     O
O        0.421   0.5715   0.0141     O
O       0.4233   0.3996   0.8882     O
O       0.4233   0.6004   0.3882     O
O       0.4245   0.3266   0.9981     O
O       0.4245   0.6734   0.4981     O
Dy      0.4991  0.43449  0.10205    Dy
Dy      0.4991  0.56551  0.60205    Dy
Dy      0.5009  0.43449  0.39795    Dy
Dy      0.5009  0.56551  0.89795    Dy
O       0.5755   0.3266   0.5019     O
O       0.5755   0.6734   0.0019     O
O       0.5767   0.3996   0.6118     O
O       0.5767   0.6004   0.1118     O
O        0.579   0.4285   0.9859     O
O        0.579   0.5715   0.4859     O
O       0.5873   0.4764   0.3358     O
O       0.5873   0.5236   0.8358     O
O       0.5891   0.4288   0.2219     O
O       0.5891   0.5712   0.7219     O
O       0.5966   0.3114   0.0818     O
O       0.5966   0.6886   0.5818     O
C       0.6024   0.3329   0.5721     C
C       0.6024   0.6671   0.0721     C
C       0.6157   0.3483    0.027     C
C       0.6157   0.6517    0.527     C
C       0.6188   0.4291   0.2918     C
C       0.6188   0.5709   0.7918     C
N        0.667   0.2912   0.7387     N
N        0.667   0.7088   0.2387     N
C       0.6694   0.2554   0.6098     C
C       0.6694   0.7446   0.1098     C
H       0.6817   0.4028   0.9264     H
H       0.6817   0.5972   0.4264     H
C        0.685   0.2954   0.0131     C
C        0.685   0.7046   0.5131     C
H       0.6854   0.2047   0.5128     H
H       0.6854   0.7953   0.0128     H
C       0.6948   0.3692   0.3261     C
C       0.6948   0.6308   0.8261     C
C       0.6993   0.2444   0.6891     C
C       0.6993   0.7556   0.1891     C
H       0.7023    0.399   0.4348     H
H       0.7023    0.601   0.9348     H
N        0.703   0.1477   0.1115     N
N        0.703   0.8523   0.6115     N
C       0.7066      0.2   0.5656     C
C       0.7066      0.8   0.0656     C
C         0.71   0.3412   0.9566     C
C         0.71   0.6588   0.4566     C
H       0.7117   0.3273   0.2283     H
H       0.7117   0.6727   0.7283     H
C       0.7244   0.2011   0.0566     C
C       0.7244   0.7989   0.5566     C
C       0.7267   0.3616   0.4034     C
C       0.7267   0.6384   0.9034     C
C       0.7325   0.3188   0.2809     C
C       0.7325   0.6812   0.7809     C
C       0.7675   0.1812   0.7191     C
C       0.7675   0.8188   0.2191     C
C       0.7733   0.1384   0.5966     C
C       0.7733   0.8616   0.0966     C
C       0.7756   0.2989   0.9434     C
C       0.7756   0.7011   0.4434     C
H       0.7883   0.1727   0.7717     H
H       0.7883   0.8273   0.2717     H
C         0.79   0.1588   0.0434     C
C         0.79   0.8412   0.5434     C
C       0.7934      0.3   0.4344     C
C       0.7934      0.7   0.9344     C
N        0.797   0.3523   0.8885     N
N        0.797   0.6477   0.3885     N
H       0.7977    0.101   0.5652     H
H       0.7977    0.899   0.0652     H
C       0.8007   0.2556   0.3109     C
C       0.8007   0.7444   0.8109     C
C       0.8052   0.1308   0.6739     C
C       0.8052   0.8692   0.1739     C
H       0.8146   0.2953   0.4872     H
H       0.8146   0.7047   0.9872     H
C        0.815   0.2046   0.9869     C
C        0.815   0.7954   0.4869     C
H       0.8183   0.0972   0.0736     H
H       0.8183   0.9028   0.5736     H
C       0.8306   0.2446   0.3902     C
C       0.8306   0.7554   0.8902     C
N        0.833   0.2088   0.2613     N
N        0.833   0.7912   0.7613     N
C       0.8812   0.0709   0.7082     C
C       0.8812   0.9291   0.2082     C
C       0.8843   0.1517    0.973     C
C       0.8843   0.8483    0.473     C
C       0.8976   0.1671   0.4279     C
C       0.8976   0.8329   0.9279     C
O       0.9034   0.1886   0.9182     O
O       0.9034   0.8114   0.4182     O
O       0.9109   0.0712   0.7781     O
O       0.9109   0.9288   0.2781     O
O       0.9127   0.0236   0.6642     O
O       0.9127   0.9764   0.1642     O
O        0.921   0.0715   0.0141     O
O        0.921   0.9285   0.5141     O
O       0.9233   0.1004   0.3882     O
O       0.9233   0.8996   0.8882     O
O       0.9245   0.1734   0.4981     O
O       0.9245   0.8266   0.9981     O
Dy      0.9991  0.06551  0.60205    Dy
Dy      0.9991  0.93449  0.10205    Dy
