data_I
_chemical_name_common  '/home/zhangsd/repos/MofS-CGCNN/ML/data/TSD/clean_cifs/SEFSOM_clean'
_cell_length_a 10.08000
_cell_length_b 13.06300
_cell_length_c 17.81500
_cell_angle_alpha 79.02900
_cell_angle_beta  86.32500
_cell_angle_gamma 78.21100
_space_group_name_H-M_alt      'P 1'


loop_
_space_group_symop_operation_xyz
  'x, y, z' 

loop_
_atom_site_label
_atom_site_fract_x
_atom_site_fract_y
_atom_site_fract_z
_atom_site_type_symbol
C       0.0029   0.6794   0.1563     C
C       0.0061  0.41258  0.79128     C
N       0.0065   0.7602  0.74817     N
C       0.0155   0.9743  0.57644     C
N       0.0215  0.37552  0.30102     N
H       0.0267   0.9552    0.629     H
C       0.0287   0.9214  0.45511     C
H       0.0303   0.1665   0.6159     H
N       0.0318   0.8576  0.04225     N
H       0.0332    0.351    0.535     H
H       0.0358   0.4725   0.3725     H
Cd     0.04291  0.09656  0.19901    Cd
C       0.0438   0.8965  0.53131     C
N       0.0448   0.1211  0.07355     N
C       0.0554   0.8391  0.40317     C
C       0.0585   0.6501  0.46684     C
H       0.0606   0.2961    0.882     H
C       0.0625    0.852  0.96989     C
H       0.0726   0.4508    0.796     H
H       0.0738   0.8259   0.5541     H
C       0.0785   0.2964   0.2679     C
C       0.0835  0.45266  0.32679     C
O       0.0842  0.02237  0.75746     O
C       0.0843  0.55246  0.26822     C
C       0.1018   0.1098  0.95379     C
C        0.104    0.735   0.1599     C
H       0.1082    0.893   0.1339     H
H       0.1106   0.8638   0.3595     H
C       0.1183    0.626  0.69187     C
C       0.1227   0.8334   0.1071     C
N       0.1229  0.73439  0.43996     N
C       0.1322   0.7124  0.72134     C
C       0.1476   0.0949  0.02437     C
H       0.1486   0.5005   0.5198     H
H       0.1505   0.8313   0.9515     H
H       0.1538   0.0994   0.9099     H
C        0.161   0.5682  0.49702     C
H        0.171   0.2811   0.2566     H
H       0.1757   0.4185   0.3405     H
C       0.1839   0.6086   0.2753     C
H       0.1862   0.5786   0.6715     H
C       0.1947   0.6999   0.2226     C
H       0.1967   0.1771   0.7048     H
C       0.2046   0.9755  0.77211     C
O       0.2127  0.95778  0.24743     O
H       0.2131   0.7355   0.7232     H
H       0.2152   0.8237    0.087     H
O       0.2277  0.34037  0.60888     O
O       0.2313  0.88182  0.80544     O
H       0.2377     0.07   0.0377     H
H       0.2436   0.5853   0.3155     H
C       0.2522   0.7006   0.4538     C
H       0.2607   0.7382   0.2279     H
H       0.2622    0.173   0.3955     H
H       0.2685   0.0359   0.4982     H
N       0.2805   0.5988  0.48925     N
O       0.2815  0.10453  0.20342     O
C       0.2857   0.1432  0.71556     C
C       0.3055   0.0101  0.23183     C
C       0.3122   0.0354  0.75197     C
H       0.3172   0.7427   0.4405     H
O       0.3251  0.39309  0.70982     O
S      0.34497  0.33415  0.65077     S
C       0.3584   0.1618  0.38258     C
C       0.3627   0.0222  0.49873     C
H       0.3686   0.2927   0.4858     H
H       0.3717   0.1388   0.3335     H
H       0.3767   0.9095   0.5914     H
C       0.3871   0.1987  0.69581     C
C       0.4036   0.3146  0.43711     C
N       0.4067   0.2624  0.37715     N
H       0.4068   0.8124   0.3038     H
C       0.4277   0.9455  0.55403     C
C       0.4326   0.0787  0.44151     C
C       0.4488   0.9549  0.25199     C
C       0.4489   0.9889  0.76658     C
N       0.4567   0.4001  0.41649     N
O       0.4579  0.35669  0.60061     O
C       0.4621   0.3181  0.31688     C
H       0.4654   0.5427   0.6869     H
H       0.4708   0.9177   0.7896     H
C       0.4762   0.8498   0.2892     C
H       0.4765   0.3026   0.2678     H
C        0.494   0.4048  0.34267     C
Cd         0.5      0.5      0.5    Cd
C        0.506   0.5952  0.65733     C
H       0.5235   0.6974   0.7322     H
C       0.5238   0.1502   0.7108     C
H       0.5292   0.0823   0.2104     H
H       0.5346   0.4573   0.3131     H
C       0.5379   0.6819  0.68312     C
O       0.5421  0.64331  0.39939     O
N       0.5433   0.5999  0.58351     N
C       0.5511   0.0111  0.23342     C
C       0.5512   0.0451  0.74801     C
C       0.5674   0.9213  0.55849     C
C       0.5723   0.0545  0.44597     C
H       0.5932   0.1876   0.6962     H
N       0.5933   0.7376  0.62285     N
C       0.5964   0.6854  0.56289     C
C       0.6129   0.8013  0.30419     C
H       0.6233   0.0905   0.4086     H
H       0.6283   0.8612   0.6665     H
H       0.6314   0.7073   0.5142     H
C       0.6373   0.9778  0.50127     C
C       0.6416   0.8382  0.61742     C
S      0.65503  0.66585  0.34923     S
O       0.6749  0.60691  0.29018     O
H       0.6828   0.2573   0.5595     H
C       0.6878   0.9646  0.24803     C
C       0.6945   0.9899  0.76817     C
C       0.7143   0.8568  0.28444     C
O       0.7185  0.89547  0.79658     O
N       0.7195   0.4012  0.51075     N
H       0.7315   0.9641   0.5018     H
H       0.7378    0.827   0.6045     H
H       0.7393   0.2618   0.7721     H
C       0.7478   0.2994   0.5462     C
H       0.7564   0.4147   0.6845     H
H       0.7623     0.93   0.9623     H
O       0.7687  0.11818  0.19456     O
O       0.7723  0.65963  0.39112     O
H       0.7848   0.1763    0.913     H
H       0.7869   0.2645   0.2768     H
O       0.7873  0.04222  0.75257     O
C       0.7954   0.0245  0.22789     C
H       0.8033   0.8229   0.2952     H
C       0.8053   0.3001   0.7774     C
H       0.8138   0.4214   0.3285     H
C       0.8161   0.3914   0.7247     C
H       0.8243   0.5815   0.6595     H
H        0.829   0.7189   0.7434     H
C        0.839   0.4318  0.50298     C
H       0.8462   0.9006   0.0901     H
H       0.8495   0.1687   0.0485     H
H       0.8514   0.4995   0.4802     H
C       0.8524   0.9051  0.97563     C
C       0.8678   0.2876  0.27866     C
N       0.8771  0.26561  0.56004     N
C       0.8773   0.1666   0.8929     C
C       0.8817    0.374  0.30813     C
H       0.8894   0.1362   0.6405     H
H       0.8918    0.107   0.8661     H
C        0.896    0.265   0.8401     C
C       0.8982   0.8902  0.04621     C
C       0.9157  0.44754  0.73178     C
O       0.9158  0.97763  0.24254     O
C       0.9165  0.54734  0.67321     C
C       0.9215   0.7036   0.7321     C
H       0.9262   0.1741   0.4459     H
H       0.9274   0.5492    0.204     H
C       0.9375    0.148  0.03011     C
H       0.9394   0.7039    0.118     H
C       0.9415   0.3499  0.53316     C
C       0.9446   0.1609  0.59683     C
N       0.9552   0.8789  0.92645     N
C       0.9562   0.1035  0.46869     C
Cd     0.95709  0.90344  0.80099    Cd
H       0.9642   0.5275   0.6275     H
H       0.9668    0.649    0.465     H
N       0.9682   0.1424  0.95775     N
H       0.9697   0.8335   0.3841     H
C       0.9713   0.0786  0.54489     C
H       0.9733   0.0448    0.371     H
N       0.9785  0.62448  0.69898     N
C       0.9845   0.0257  0.42356     C
N       0.9935   0.2398  0.25183     N
C       0.9939  0.58742  0.20872     C
C       0.9971   0.3206   0.8437     C
