data_I
_chemical_name_common  '/home/zhangsd/repos/MofS-CGCNN/ML/data/TSD/clean_cifs/SETDUS_clean'
_cell_length_a 12.81300
_cell_length_b 18.55700
_cell_length_c  7.25900
_cell_angle_alpha 90.00000
_cell_angle_beta  111.97300
_cell_angle_gamma 90.00000
_space_group_name_H-M_alt      'P 1'


loop_
_space_group_symop_operation_xyz
  'x, y, z' 

loop_
_atom_site_label
_atom_site_fract_x
_atom_site_fract_y
_atom_site_fract_z
_atom_site_type_symbol
Cu         0.0      0.0      0.0    Cu
Cu         0.0      0.0      0.5    Cu
H       0.0988   0.3424   0.3627     H
H       0.0988   0.6576   0.8627     H
H       0.1108   0.3244   0.5856     H
H       0.1108   0.6756   0.0856     H
N       0.1146   0.0484    0.235     N
N       0.1146   0.9516    0.735     N
N        0.118   0.0448    0.423     N
N        0.118   0.9552    0.923     N
H       0.1492   0.2225   0.4419     H
H       0.1492   0.7775   0.9419     H
C        0.153   0.3287    0.496     C
C        0.153   0.6713    0.996     C
C        0.198   0.0886    0.245     C
C        0.198   0.9114    0.745     C
C        0.203   0.2602    0.484     C
C        0.203   0.7398    0.984     C
C        0.205   0.0847    0.537     C
C        0.205   0.9153    0.037     C
H       0.2162   0.1001   0.1325     H
H       0.2162   0.8999   0.6325     H
H       0.2269   0.0919   0.6759     H
H       0.2269   0.9081   0.1759     H
N        0.242   0.3873    0.574     N
N        0.242   0.6127    0.074     N
N        0.258   0.1127    0.426     N
N        0.258   0.8873    0.926     N
H       0.2731   0.4081   0.3241     H
H       0.2731   0.5919   0.8241     H
H       0.2838   0.3999   0.8675     H
H       0.2838   0.6001   0.3675     H
C        0.295   0.4153    0.463     C
C        0.295   0.5847    0.963     C
C        0.297   0.2398    0.516     C
C        0.297   0.7602    0.016     C
C        0.302   0.4114    0.755     C
C        0.302   0.5886    0.255     C
C        0.347   0.1713    0.504     C
C        0.347   0.8287    0.004     C
H       0.3508   0.2775   0.5581     H
H       0.3508   0.7225   0.0581     H
N        0.382   0.4552    0.577     N
N        0.382   0.5448    0.077     N
N       0.3854   0.4516    0.765     N
N       0.3854   0.5484    0.265     N
H       0.3892   0.1756   0.4144     H
H       0.3892   0.8244   0.9144     H
H       0.4012   0.1576   0.6373     H
H       0.4012   0.8424   0.1373     H
Cu         0.5      0.5      0.0    Cu
Cu         0.5      0.5      0.5    Cu
H       0.5988   0.1576   0.8627     H
H       0.5988   0.8424   0.3627     H
H       0.6108   0.1756   0.0856     H
H       0.6108   0.8244   0.5856     H
N       0.6146   0.4516    0.735     N
N       0.6146   0.5484    0.235     N
N        0.618   0.4552    0.923     N
N        0.618   0.5448    0.423     N
H       0.6492   0.2775   0.9419     H
H       0.6492   0.7225   0.4419     H
C        0.653   0.1713    0.996     C
C        0.653   0.8287    0.496     C
C        0.698   0.4114    0.745     C
C        0.698   0.5886    0.245     C
C        0.703   0.2398    0.984     C
C        0.703   0.7602    0.484     C
C        0.705   0.4153    0.037     C
C        0.705   0.5847    0.537     C
H       0.7162   0.3999   0.6325     H
H       0.7162   0.6001   0.1325     H
H       0.7269   0.4081   0.1759     H
H       0.7269   0.5919   0.6759     H
N        0.742   0.1127    0.074     N
N        0.742   0.8873    0.574     N
N        0.758   0.3873    0.926     N
N        0.758   0.6127    0.426     N
H       0.7731   0.0919   0.8241     H
H       0.7731   0.9081   0.3241     H
H       0.7838   0.1001   0.3675     H
H       0.7838   0.8999   0.8675     H
C        0.795   0.0847    0.963     C
C        0.795   0.9153    0.463     C
C        0.797   0.2602    0.016     C
C        0.797   0.7398    0.516     C
C        0.802   0.0886    0.255     C
C        0.802   0.9114    0.755     C
C        0.847   0.3287    0.004     C
C        0.847   0.6713    0.504     C
H       0.8508   0.2225   0.0581     H
H       0.8508   0.7775   0.5581     H
N        0.882   0.0448    0.077     N
N        0.882   0.9552    0.577     N
N       0.8854   0.0484    0.265     N
N       0.8854   0.9516    0.765     N
H       0.8892   0.3244   0.9144     H
H       0.8892   0.6756   0.4144     H
H       0.9012   0.3424   0.1373     H
H       0.9012   0.6576   0.6373     H
