data_I
_chemical_name_common  '/home/zhangsd/repos/MofS-CGCNN/ML/data/TSD/clean_cifs/SETQOZ_SL'
_cell_length_a  6.90350
_cell_length_b 15.99590
_cell_length_c 14.34060
_cell_angle_alpha 90.00000
_cell_angle_beta  90.00000
_cell_angle_gamma 90.00000
_space_group_name_H-M_alt      'P 1'


loop_
_space_group_symop_operation_xyz
  'x, y, z' 

loop_
_atom_site_label
_atom_site_fract_x
_atom_site_fract_y
_atom_site_fract_z
_atom_site_type_symbol
C          0.0  0.06436  0.43541     C
C          0.0  0.13268  0.36686     C
H         -0.0     0.25  0.11785     H
O         -0.0     0.25  0.18758     O
C         -0.0  0.36732  0.36686     C
C         -0.0  0.43564  0.43541     C
C         -0.0  0.56436  0.56459     C
C         -0.0  0.63268  0.63314     C
O         -0.0     0.75  0.81242     O
H         -0.0     0.75  0.88215     H
C          0.0  0.86732  0.63314     C
C          0.0  0.93564  0.56459     C
O      0.15918  0.16219  0.33724     O
O      0.15918  0.33781  0.33724     O
O      0.15918  0.66219  0.66276     O
O      0.15918  0.83781  0.66276     O
C      0.17373  0.03218  0.46771     C
C      0.17373  0.46782  0.46771     C
C      0.17373  0.53218  0.53229     C
C      0.17373  0.96782  0.53229     C
H      0.20334  0.05495  0.05515     H
H      0.20334  0.44505  0.05515     H
H      0.20334  0.55495  0.94485     H
H      0.20334  0.94505  0.94485     H
Fe        0.25     0.25     0.25    Fe
Fe        0.25     0.75     0.75    Fe
H      0.29666  0.05495  0.44485     H
H      0.29666  0.44505  0.44485     H
H      0.29666  0.55495  0.55515     H
H      0.29666  0.94505  0.55515     H
C      0.32627  0.03218  0.03229     C
C      0.32627  0.46782  0.03229     C
C      0.32627  0.53218  0.96771     C
C      0.32627  0.96782  0.96771     C
O      0.34082  0.16219  0.16276     O
O      0.34082  0.33781  0.16276     O
O      0.34082  0.66219  0.83724     O
O      0.34082  0.83781  0.83724     O
C          0.5  0.06436  0.06459     C
C          0.5  0.13268  0.13314     C
O          0.5     0.25  0.31242     O
H          0.5     0.25  0.38215     H
C          0.5  0.36732  0.13314     C
C          0.5  0.43564  0.06459     C
C          0.5  0.56436  0.93541     C
C          0.5  0.63268  0.86686     C
H          0.5     0.75  0.61785     H
O          0.5     0.75  0.68758     O
C          0.5  0.86732  0.86686     C
C          0.5  0.93564  0.93541     C
O      0.65918  0.16219  0.16276     O
O      0.65918  0.33781  0.16276     O
O      0.65918  0.66219  0.83724     O
O      0.65918  0.83781  0.83724     O
C      0.67373  0.03218  0.03229     C
C      0.67373  0.46782  0.03229     C
C      0.67373  0.53218  0.96771     C
C      0.67373  0.96782  0.96771     C
H      0.70334  0.05495  0.44485     H
H      0.70334  0.44505  0.44485     H
H      0.70334  0.55495  0.55515     H
H      0.70334  0.94505  0.55515     H
Fe        0.75     0.25     0.25    Fe
Fe        0.75     0.75     0.75    Fe
H      0.79666  0.05495  0.05515     H
H      0.79666  0.44505  0.05515     H
H      0.79666  0.55495  0.94485     H
H      0.79666  0.94505  0.94485     H
C      0.82627  0.03218  0.46771     C
C      0.82627  0.46782  0.46771     C
C      0.82627  0.53218  0.53229     C
C      0.82627  0.96782  0.53229     C
O      0.84082  0.16219  0.33724     O
O      0.84082  0.33781  0.33724     O
O      0.84082  0.66219  0.66276     O
O      0.84082  0.83781  0.66276     O
