data_I
_chemical_name_common  '/home/zhangsd/repos/MofS-CGCNN/ML/data/TSD/clean_cifs/SETQEP_clean'
_cell_length_a 20.46330
_cell_length_b  9.28760
_cell_length_c  6.88390
_cell_angle_alpha 90.00000
_cell_angle_beta  112.71800
_cell_angle_gamma 90.00000
_space_group_name_H-M_alt      'P 1'


loop_
_space_group_symop_operation_xyz
  'x, y, z' 

loop_
_atom_site_label
_atom_site_fract_x
_atom_site_fract_y
_atom_site_fract_z
_atom_site_type_symbol
Fe       0.005   0.0105   0.0147    Fe
Fe       0.005   0.9895   0.5147    Fe
O       0.0052   0.0967   0.2629     O
O       0.0052   0.9033   0.7629     O
O        0.069   0.1271   0.6937     O
O        0.069   0.8729   0.1937     O
O       0.0853   0.0984   0.0264     O
O       0.0853   0.9016   0.5264     O
C       0.1089   0.1347   0.8878     C
C       0.1089   0.8653   0.3878     C
H       0.1809   0.2034   0.6539     H
H       0.1809   0.7966   0.1539     H
C       0.1835   0.1865    0.953     C
C       0.1835   0.8135    0.453     C
H       0.2057   0.1831   0.2691     H
H       0.2057   0.8169   0.7691     H
C       0.2105   0.2161   0.8036     C
C       0.2105   0.7839   0.3036     C
C       0.2249   0.2043   0.1622     C
C       0.2249   0.7957   0.6622     C
C       0.2789   0.2636   0.8633     C
C       0.2789   0.7364   0.3633     C
C       0.2933   0.2517    0.222     C
C       0.2933   0.7483    0.722     C
H       0.2982   0.2848   0.7564     H
H       0.2982   0.7152   0.2564     H
C       0.3203   0.2814   0.0725     C
C       0.3203   0.7186   0.5725     C
H        0.323   0.2645   0.3716     H
H        0.323   0.7355   0.8716     H
C        0.395   0.3331   0.1378     C
C        0.395   0.6669   0.6378     C
O       0.4185   0.3695   0.9991     O
O       0.4185   0.6305   0.4991     O
O       0.4348   0.3408   0.3318     O
O       0.4348   0.6592   0.8318     O
Fe       0.505   0.4895   0.5147    Fe
Fe       0.505   0.5105   0.0147    Fe
O       0.5052   0.4033   0.7629     O
O       0.5052   0.5967   0.2629     O
O        0.569   0.3729   0.1937     O
O        0.569   0.6271   0.6937     O
O       0.5853   0.4016   0.5264     O
O       0.5853   0.5984   0.0264     O
C       0.6089   0.3653   0.3878     C
C       0.6089   0.6347   0.8878     C
H       0.6809   0.2966   0.1539     H
H       0.6809   0.7034   0.6539     H
C       0.6835   0.3135    0.453     C
C       0.6835   0.6865    0.953     C
H       0.7057   0.3169   0.7691     H
H       0.7057   0.6831   0.2691     H
C       0.7105   0.2839   0.3036     C
C       0.7105   0.7161   0.8036     C
C       0.7249   0.2957   0.6622     C
C       0.7249   0.7043   0.1622     C
C       0.7789   0.2364   0.3633     C
C       0.7789   0.7636   0.8633     C
C       0.7933   0.2483    0.722     C
C       0.7933   0.7517    0.222     C
H       0.7982   0.2152   0.2564     H
H       0.7982   0.7848   0.7564     H
C       0.8203   0.2186   0.5725     C
C       0.8203   0.7814   0.0725     C
H        0.823   0.2355   0.8716     H
H        0.823   0.7645   0.3716     H
C        0.895   0.1669   0.6378     C
C        0.895   0.8331   0.1378     C
O       0.9185   0.1305   0.4991     O
O       0.9185   0.8695   0.9991     O
O       0.9348   0.1592   0.8318     O
O       0.9348   0.8408   0.3318     O
