data_I
_chemical_name_common  '/home/zhangsd/repos/MofS-CGCNN/ML/data/TSD/clean_cifs/SETQUF_SL'
_cell_length_a 11.25770
_cell_length_b 11.25770
_cell_length_c 15.90490
_cell_angle_alpha 115.84750
_cell_angle_beta  115.84750
_cell_angle_gamma 90.86570
_space_group_name_H-M_alt      'P 1'


loop_
_space_group_symop_operation_xyz
  'x, y, z' 

loop_
_atom_site_label
_atom_site_fract_x
_atom_site_fract_y
_atom_site_fract_z
_atom_site_type_symbol
Fe        -0.0      0.5      0.5    Fe
H      0.01858  0.13224  0.12747     H
C      0.04892   0.3172   0.3132     C
O      0.07394  0.75346  0.74977     O
H      0.07956   0.1837  0.57355     H
O      0.08255  0.41633  0.40531     O
O      0.09777  0.41261  0.58788     O
C      0.11446  0.18282  0.17775     C
H      0.13224  0.01858  0.62747     H
O      0.14795  0.66183  0.59335     O
C       0.1521   0.2107  0.64631     C
C      0.15221  0.28423  0.27947     C
C      0.18282  0.11446  0.67775     C
H       0.1837  0.07956  0.07355     H
C      0.18985  0.44803  0.68288     C
H      0.19949  0.70703  0.56569     H
C       0.2107   0.1521  0.14631     C
C      0.22282  0.34474  0.71661     C
O      0.24654  0.92606  0.75023     O
Fe     0.24823  0.75177     0.75    Fe
O      0.25345  0.57267  0.74873     O
C      0.28423  0.15221  0.77947     C
C      0.28624  0.35494  0.34976     C
H      0.29297  0.80051  0.93431     H
H      0.31325  0.42749  0.42253     H
C       0.3172  0.04892   0.8132     C
C      0.32423  0.38249  0.81833     C
O      0.33817  0.85205  0.90665     O
C      0.34474  0.22282  0.21661     C
C      0.35494  0.28624  0.84976     C
H      0.37481  0.47837  0.86861     H
C      0.38249  0.32423  0.31833     C
O      0.41261  0.09777  0.08788     O
O      0.41633  0.08255  0.90531     O
O      0.42733  0.74655  0.75127     O
H      0.42749  0.31325  0.92253     H
C      0.44803  0.18985  0.18288     C
H      0.47837  0.37481  0.36861     H
Fe         0.5     -0.0     -0.0    Fe
H      0.52163  0.62519  0.63139     H
C      0.55197  0.81015  0.81712     C
H      0.57251  0.68675  0.07747     H
O      0.57267  0.25345  0.24873     O
O      0.58367  0.91745  0.09469     O
O      0.58739  0.90223  0.91212     O
C      0.61751  0.67577  0.68167     C
H      0.62519  0.52163  0.13139     H
C      0.64506  0.71376  0.15024     C
C      0.65526  0.77718  0.78339     C
O      0.66183  0.14795  0.09335     O
C      0.67577  0.61751  0.18167     C
C       0.6828  0.95108   0.1868     C
H      0.68675  0.57251  0.57747     H
H      0.70703  0.19949  0.06569     H
C      0.71376  0.64506  0.65024     C
C      0.71577  0.84779  0.22053     C
O      0.74655  0.42733  0.25127     O
Fe     0.75177  0.24823     0.25    Fe
O      0.75346  0.07394  0.24977     O
C      0.77718  0.65526  0.28339     C
C       0.7893   0.8479  0.85369     C
H      0.80051  0.29297  0.43431     H
C      0.81015  0.55197  0.31712     C
H       0.8163  0.92044  0.92645     H
C      0.81718  0.88554  0.32225     C
C      0.84779  0.71577  0.72053     C
C       0.8479   0.7893  0.35369     C
O      0.85205  0.33817  0.40665     O
H      0.86776  0.98142  0.37253     H
C      0.88554  0.81718  0.82225     C
O      0.90223  0.58739  0.41212     O
O      0.91745  0.58367  0.59469     O
H      0.92044   0.8163  0.42645     H
O      0.92606  0.24654  0.25023     O
C      0.95108   0.6828   0.6868     C
H      0.98142  0.86776  0.87253     H
