data_I
_chemical_name_common  '/home/zhangsd/repos/MofS-CGCNN/ML/data/TSD/clean_cifs/SETQAL_clean'
_cell_length_a 20.52660
_cell_length_b  9.19250
_cell_length_c  6.87630
_cell_angle_alpha 90.00000
_cell_angle_beta  113.08400
_cell_angle_gamma 90.00000
_space_group_name_H-M_alt      'P 1'


loop_
_space_group_symop_operation_xyz
  'x, y, z' 

loop_
_atom_site_label
_atom_site_fract_x
_atom_site_fract_y
_atom_site_fract_z
_atom_site_type_symbol
O       0.0617   0.1267   0.6357     O
O       0.0617   0.8733   0.1357     O
O        0.079   0.0973   0.9698     O
O        0.079   0.9027   0.4698     O
C       0.1021   0.1337   0.8304     C
C       0.1021   0.8663   0.3304     C
H       0.1723   0.2041   0.5944     H
H       0.1723   0.7959   0.0944     H
C       0.1763   0.1844    0.895     C
C       0.1763   0.8156    0.395     C
H       0.1998    0.178   0.2126     H
H       0.1998    0.822   0.7126     H
C       0.2025   0.2154   0.7446     C
C       0.2025   0.7846   0.2446     C
C       0.2185   0.2002    0.105     C
C       0.2185   0.7998    0.605     C
C        0.271   0.2622   0.8042     C
C        0.271   0.7378   0.3042     C
C        0.287    0.247   0.1646     C
C        0.287    0.753   0.6646     C
H       0.2897   0.2843   0.6966     H
H       0.2897   0.7157   0.1966     H
C       0.3132    0.278   0.0142     C
C       0.3132    0.722   0.5142     C
H       0.3173   0.2583   0.3149     H
H       0.3173   0.7417   0.8149     H
C       0.3874   0.3287   0.0788     C
C       0.3874   0.6713   0.5788     C
O       0.4106   0.3651   0.9394     O
O       0.4106   0.6349   0.4394     O
O       0.4278   0.3356   0.2735     O
O       0.4278   0.6644   0.7735     O
Fe      0.4959   0.4947   0.4612    Fe
Fe      0.4959   0.5053   0.9612    Fe
O       0.4968   0.4031    0.703     O
O       0.4968   0.5969    0.203     O
O       0.5617   0.3733   0.1357     O
O       0.5617   0.6267   0.6357     O
O        0.579   0.4027   0.4698     O
O        0.579   0.5973   0.9698     O
C       0.6021   0.3663   0.3304     C
C       0.6021   0.6337   0.8304     C
H       0.6723   0.2959   0.0944     H
H       0.6723   0.7041   0.5944     H
C       0.6763   0.3156    0.395     C
C       0.6763   0.6844    0.895     C
H       0.6998    0.322   0.7126     H
H       0.6998    0.678   0.2126     H
C       0.7025   0.2846   0.2446     C
C       0.7025   0.7154   0.7446     C
C       0.7185   0.2998    0.605     C
C       0.7185   0.7002    0.105     C
C        0.771   0.2378   0.3042     C
C        0.771   0.7622   0.8042     C
C        0.787    0.253   0.6646     C
C        0.787    0.747   0.1646     C
H       0.7897   0.2157   0.1966     H
H       0.7897   0.7843   0.6966     H
C       0.8132    0.222   0.5142     C
C       0.8132    0.778   0.0142     C
H       0.8173   0.2417   0.8149     H
H       0.8173   0.7583   0.3149     H
C       0.8874   0.1713   0.5788     C
C       0.8874   0.8287   0.0788     C
O       0.9106   0.1349   0.4394     O
O       0.9106   0.8651   0.9394     O
O       0.9278   0.1644   0.7735     O
O       0.9278   0.8356   0.2735     O
Fe      0.9959   0.0053   0.9612    Fe
Fe      0.9959   0.9947   0.4612    Fe
O       0.9968   0.0969    0.203     O
O       0.9968   0.9031    0.703     O
