data_I
_chemical_name_common  '/home/zhangsd/repos/MofS-CGCNN/ML/data/TSD/clean_cifs/SEVLEM_clean'
_cell_length_a 32.74650
_cell_length_b 32.74650
_cell_length_c 32.74650
_cell_angle_alpha 109.47100
_cell_angle_beta  109.47100
_cell_angle_gamma 109.47100
_space_group_name_H-M_alt      'P 1'


loop_
_space_group_symop_operation_xyz
  'x, y, z' 

loop_
_atom_site_label
_atom_site_fract_x
_atom_site_fract_y
_atom_site_fract_z
_atom_site_type_symbol
C       0.0012   0.1373   0.1427     C
C       0.0012   0.8639   0.3585     C
H       0.0019   0.0157   0.1862     H
H       0.0019   0.9862   0.3157     H
C       0.0026  0.11283  0.25865     C
C       0.0026  0.88977  0.24395     C
N       0.0042   0.1245   0.1765     N
N       0.0042   0.8797   0.3277     N
C       0.0054   0.3627   0.3639     C
C       0.0054   0.6427   0.1415     C
N      0.00592  0.33401  0.42119     N
N      0.00592  0.67191  0.08473     N
H       0.0073   0.2029   0.9624     H
H       0.0073   0.8044   0.5449     H
C      0.00786  0.11579  0.80203     C
C      0.00786  0.89207  0.70583     C
H       0.0118   0.3774   0.8488     H
H       0.0118   0.6344    0.663     H
H       0.0138   0.1843   0.4981     H
H       0.0138   0.8295   0.0157     H
C      0.01422  0.30855  0.98407     C
C      0.01422  0.70567  0.53015     C
H       0.0145   0.1983   0.3572     H
H       0.0145   0.8162   0.1573     H
H       0.0157   0.3295   0.0138     H
H       0.0157   0.6862   0.5019     H
C      0.01593  0.19145  0.98578     C
C      0.01593  0.82448  0.53015     C
H       0.0173   0.2502   0.3709     H
H       0.0173   0.7671   0.1464     H
H        0.019   0.2992   0.4806     H
H        0.019   0.7198   0.0384     H
H       0.0194   0.0384   0.3186     H
H       0.0194    0.981   0.2008     H
C      0.01958  0.36414  0.90724     C
C      0.01958  0.65544  0.61234     C
N      0.02036  0.12267  0.92783     N
N      0.02036  0.89769  0.59253     N
C      0.02705  0.33757   0.9591     C
C      0.02705  0.68948  0.56795     C
H       0.0286    0.163   0.6512     H
H       0.0286   0.8656   0.8774     H
C      0.03015  0.01422  0.20567     C
C      0.03015  0.01593  0.32448     C
H       0.0303   0.1729   0.0796     H
H       0.0303   0.8574   0.4507     H
N      0.03568   0.1249  0.33512     N
N      0.03568  0.91078  0.20056     N
C      0.03662  0.23373  0.37415     C
C      0.03662  0.80289  0.16247     C
H       0.0376   0.2971   0.9927     H
H       0.0376   0.7405   0.5449     H
H       0.0384   0.2198    0.019     H
H       0.0384   0.8186   0.5194     H
H       0.0394   0.1346   0.8304     H
H       0.0394   0.9048    0.709     H
C       0.0397    0.134   0.7495     C
C       0.0397   0.9057   0.7902     C
C       0.0409  0.16243  0.97295     C
C       0.0409  0.87847  0.56795     C
N       0.0426   0.1452   0.7156     N
N       0.0426   0.8974    0.827     N
C       0.0431  0.15544  0.13586     C
C       0.0431  0.88766  0.40724     C
H       0.0449   0.0073   0.3044     H
H       0.0449   0.0376   0.2405     H
H       0.0493   0.0796   0.9067     H
H       0.0493   0.9697   0.6426     H
N        0.052   0.3755   0.3797     N
N        0.052   0.6765   0.1723     N
Cd     0.05278  0.14064  0.41337    Cd
Cd     0.05278  0.91214  0.13941    Cd
C      0.05284  0.10651  0.93215     C
C      0.05284  0.94633  0.62069     C
C      0.05367  0.17436  0.10651     C
C      0.05367  0.87931  0.44716     C
N      0.05395  0.13445   0.2777     N
N      0.05395   0.9195  0.27625     N
H       0.0572   0.2408   0.3596     H
H       0.0572   0.8164   0.1976     H
C      0.06785  0.39349  0.94716     C
C      0.06785  0.67436  0.62069     C
C      0.06795  0.02705  0.18948     C
C      0.06795   0.0409  0.37847     C
C      0.06907  0.25235   0.4283     C
C      0.06907  0.81672  0.14077     C
H       0.0704   0.1428   0.7746     H
N       0.0704   0.3974   0.3548     N
N       0.0704    0.673   0.2156     N
H       0.0704   0.9276   0.7958     H
C       0.0717  0.14077  0.32405     C
C       0.0717  0.93093  0.24765     C
N      0.07217  0.37733  0.97964     N
N      0.07217  0.69484  0.59253     N
H       0.0724   0.3682   0.1428     H
H       0.0724   0.7042   0.4296     H
N      0.07881  0.08473  0.41282     N
N      0.07881  0.99408  0.16599     N
H       0.0796   0.4067   0.5493     H
H       0.0796   0.6729   0.0303     H
N       0.0805  0.22375  0.44605     N
N       0.0805  0.85675  0.13445     N
N      0.08473  0.17191  0.00592     N
N      0.08473  0.91282  0.57881     N
Cd     0.08663  0.13941  0.22727    Cd
Cd     0.08663  0.94722  0.35936    Cd
N      0.08718  0.16599  0.17191     N
N      0.08718  0.92119  0.41527     N
Cd     0.08786  0.36059  0.44722    Cd
Cd     0.08786  0.72727  0.14064    Cd
N      0.08922  0.29944  0.46432     N
N      0.08922  0.78978   0.1249     N
N      0.09253  0.02036  0.39769     N
N      0.09253  0.07217  0.19484     N
C      0.09276  0.13586  0.98042     C
C      0.09276   0.9569  0.61234     C
H       0.0933   0.4204   0.9507     H
H       0.0933   0.6729   0.6426     H
C       0.0943   0.3845    0.134     C
C       0.0943   0.7098   0.4603     C
H       0.0952   0.3042   0.1346     H
H       0.0952    0.791   0.4606     H
N      0.10231  0.19484  0.12267     N
N      0.10231  0.90747  0.47964     N
N       0.1026   0.4296   0.1452     N
N       0.1026    0.673   0.4574     N
C      0.10651  0.43215  0.55284     C
C      0.10651  0.67436  0.05367     C
C      0.10793  0.31376  0.11579     C
C      0.10793  0.79417  0.49214     C
C      0.11023  0.25605   0.4974     C
C      0.11023  0.85418  0.11283     C
C      0.11234  0.01958  0.15544     C
C      0.11234  0.09276   0.4569     C
C      0.11283  0.35418  0.11023     C
C      0.11283  0.75865   0.5026     C
C       0.1155   0.4057    0.366     C
C       0.1155   0.7098   0.2495     C
C      0.11579  0.30203  0.50786     C
C      0.11579  0.81376  0.10793     C
H       0.1188   0.2592   0.3164     H
H       0.1188   0.8596   0.3024     H
N       0.1203   0.1723   0.4958     N
N       0.1203    0.948   0.1245     N
C      0.12069  0.05284  0.44633     C
C      0.12069  0.06785  0.17436     C
H       0.1207   0.2498   0.2671     H
H       0.1207   0.8709   0.3536     H
C      0.12153  0.18948  0.16243     C
C      0.12153  0.93205   0.4591     C
H       0.1226   0.4882   0.6512     H
H       0.1226   0.6344   0.9714     H
N      0.12267  0.42783  0.52036     N
N      0.12267  0.69484  0.10231     N
N       0.1245    0.448   0.1203     N
N       0.1245   0.6765   0.5042     N
N       0.1249  0.28978  0.08922     N
N       0.1249  0.83512  0.53568     N
C      0.12585  0.16247  0.35958     C
C      0.12585  0.96338  0.26627     C
H       0.1291   0.1464   0.3793     H
H       0.1291   0.9827   0.2498     H
H       0.1318   0.4276   0.3572     H
H       0.1318   0.7042   0.2746     H
C        0.134   0.2495   0.5397     C
C        0.134   0.8845   0.0943     C
H       0.1344   0.5118    0.163     H
H       0.1344   0.6226   0.4714     H
N      0.13445  0.35675   0.0805     N
N      0.13445   0.7777  0.55395     N
H       0.1346   0.3304   0.5394     H
H       0.1346   0.8042   0.0952     H
C      0.13586  0.48042  0.59276     C
C      0.13586  0.65544   0.0431     C
C       0.1361   0.1415   0.4988     C
C       0.1361   0.9946   0.1373     C
C       0.1373   0.4946   0.1361     C
C       0.1373   0.6427   0.5012     C
Cd     0.13941  0.41214  0.05278    Cd
Cd     0.13941  0.72727  0.58663    Cd
H       0.1404   0.1976   0.3812     H
H       0.1404   0.9428   0.2592     H
C      0.14042  0.26627  0.30289     C
C      0.14042  0.87415  0.33753     C
Cd     0.14064  0.22727  0.08786    Cd
Cd     0.14064  0.91337  0.55278    Cd
C      0.14077  0.31672  0.06907     C
C      0.14077  0.82405   0.5717     C
C       0.1415   0.1427   0.0054     C
C       0.1415   0.9988   0.6361     C
H       0.1426   0.0493   0.4697     H
H       0.1426   0.0933   0.1729     H
C       0.1427   0.5054   0.6415     C
C       0.1427   0.6373   0.0012     C
H       0.1428   0.1573   0.3411     H
H       0.1428   0.2746   0.5704     H
H       0.1428   0.8682   0.0724     H
H       0.1428   0.9855   0.3017     H
N      0.14325  0.36555   0.4195     N
N      0.14325   0.7777  0.22375     N
N       0.1452   0.2156   0.5426     N
N       0.1452   0.9296   0.1026     N
C      0.14582  0.38717  0.38977     C
C      0.14582  0.75865  0.25605     C
H       0.1464   0.2671   0.0173     H
H       0.1464   0.8793   0.6291     H
H       0.1512   0.0286    0.663     H
H       0.1512   0.1226   0.9882     H
C      0.15544  0.51958  0.11234     C
C      0.15544  0.63586   0.5431     C
H       0.1573   0.3162   0.0145     H
H       0.1573   0.8411   0.6428     H
H       0.1589   0.3017   0.3162     H
H       0.1589   0.8572   0.3427     H
C      0.16243  0.47295   0.5409     C
C      0.16243  0.68948  0.12153     C
C      0.16247  0.30289  0.03662     C
C      0.16247  0.85958  0.62585     C
H        0.163   0.0118   0.1344     H
H        0.163   0.1512   0.5286     H
N      0.16488  0.20056  0.28978     N
N      0.16488  0.96432   0.3751     N
N      0.16599  0.49408  0.07881     N
N      0.16599  0.67191  0.58718     N
H       0.1696   0.3654   0.9606     H
H       0.1696   0.8042    0.709     H
H       0.1705   0.4843   0.4862     H
H       0.1705   0.6862   0.1843     H
N      0.17191  0.50592  0.58473     N
N      0.17191  0.66599  0.08718     N
N       0.1723   0.1765    0.052     N
N       0.1723   0.9958   0.6203     N
H       0.1729   0.5796   0.5303     H
H       0.1729   0.5933   0.1426     H
N        0.173   0.5704   0.7156     N
N        0.173   0.6026   0.9574     N
C      0.17436  0.56785  0.12069     C
C      0.17436  0.60651  0.55367     C
C      0.17552  0.20567  0.19145     C
C      0.17552  0.96985  0.48407     C
C      0.17595  0.24765  0.31672     C
C      0.17595   0.9283  0.35923     C
N       0.1765    0.552   0.6723     N
N       0.1765   0.6245   0.0042     N
H       0.1814   0.2008   0.2198     H
H       0.1814   0.9806   0.4616     H
C      0.18328  0.35923  0.43093     C
C      0.18328  0.82405  0.25235     C
H       0.1836   0.3024   0.4428     H
H       0.1836   0.8812   0.2408     H
H       0.1838   0.3427   0.4855     H
H       0.1838   0.8411   0.1983     H
H       0.1843   0.1862   0.1705     H
H       0.1843   0.9981   0.5138     H
H       0.1862   0.5157   0.0019     H
H       0.1862   0.6705   0.6843     H
C      0.18624  0.39207  0.38421     C
C      0.18624  0.79417  0.30203     C
C      0.18948  0.52705  0.06795     C
C      0.18948  0.66243  0.62153     C
C      0.19145  0.48578  0.51593     C
C      0.19145  0.70567  0.17552     C
N      0.19484  0.57217  0.09253     N
N      0.19484  0.62267  0.60231     N
H       0.1956   0.2405   0.2029     H
H       0.1956   0.9551   0.4927     H
H       0.1958   0.4048   0.3654     H
H       0.1958    0.791   0.3304     H
C      0.19711  0.33753  0.46338     C
C      0.19711  0.85958  0.23373     C
H       0.1976   0.3164   0.0572     H
H       0.1976   0.8812   0.6404     H
C      0.19797  0.38421  0.99214     C
C      0.19797  0.81376  0.70583     C
H       0.1983   0.3411   0.1838     H
H       0.1983   0.8572   0.5145     H
N      0.20056  0.41078  0.03568     N
N      0.20056  0.78978  0.66488     N
H       0.2008    0.481   0.0194     H
H       0.2008   0.7198   0.6814     H
H       0.2029   0.4624   0.5073     H
H       0.2029   0.7405   0.1956     H
H       0.2042   0.5724   0.9296     H
H       0.2042   0.6318   0.7746     H
C      0.20567  0.51422  0.03015     C
C      0.20567  0.69145  0.67552     C
C      0.20583  0.00786  0.39207     C
C      0.20583  0.19797  0.31376     C
H        0.209   0.0394   0.4048     H
H        0.209   0.1696   0.3042     H
C       0.2098   0.5943   0.9603     C
C       0.2098   0.6155   0.7495     C
N      0.21022   0.3751  0.41078     N
N      0.21022  0.83512  0.29944     N
N       0.2156   0.0426   0.6452     N
N       0.2156    0.173   0.0704     N
H       0.2198    0.519   0.5384     H
H       0.2198   0.7008   0.1814     H
N       0.2223  0.27625  0.35675     N
N       0.2223  0.94605  0.36555     N
N      0.22375   0.2777  0.14325     N
N      0.22375  0.94605   0.5805     N
H       0.2254   0.3572   0.9296     H
H       0.2254   0.8682   0.7958     H
Cd     0.22727  0.58786  0.64064    Cd
Cd     0.22727  0.63941  0.08663    Cd
H       0.2329   0.3536   0.4827     H
H       0.2329   0.8793   0.2502     H
C      0.23373  0.35958  0.19711     C
C      0.23373  0.87415  0.53662     C
H       0.2405   0.5376   0.0449     H
H       0.2405   0.7029   0.6956     H
H       0.2408   0.3812   0.1836     H
H       0.2408   0.8596   0.5572     H
C      0.24135  0.24395  0.35418     C
C      0.24135   0.9974  0.38717     C
C      0.24395  0.38977   0.0026     C
C      0.24395  0.85418  0.74135     C
C      0.24765  0.43093   0.0717     C
C      0.24765  0.81672  0.67595     C
C       0.2495   0.0397    0.634     C
C       0.2495   0.2098   0.1155     C
H       0.2498   0.4827   0.1291     H
H       0.2498   0.7671   0.6207     H
H       0.2502   0.3793   0.2329     H
H       0.2502   0.8709   0.5173     H
C       0.2505    0.366   0.9603     C
C       0.2505   0.8845   0.7902     C
C      0.25235  0.32405  0.18328     C
C      0.25235   0.9283  0.56907     C
C      0.25605  0.25865  0.14582     C
C      0.25605   0.9974  0.61023     C
C      0.25865  0.61283   0.0026     C
C      0.25865  0.64582  0.75605     C
H       0.2592   0.4428   0.1404     H
H       0.2592   0.8164   0.6188     H
H       0.2595   0.3044   0.2971     H
H       0.2595   0.9551   0.4624     H
C      0.26627  0.46338  0.12585     C
C      0.26627  0.80289  0.64042     C
H       0.2671   0.5173   0.6464     H
H       0.2671   0.7498   0.1207     H
Cd     0.27273  0.35936  0.41214    Cd
Cd     0.27273  0.91337  0.36059    Cd
H       0.2746   0.0704   0.6428     H
H       0.2746   0.2042   0.1318     H
N      0.27625   0.4195  0.05395     N
N      0.27625  0.85675   0.7223     N
N       0.2777  0.63445  0.05395     N
N       0.2777  0.64325  0.72375     N
H       0.2802   0.4616    0.481     H
H       0.2802   0.8186   0.2992     H
N       0.2844   0.3548   0.9574     N
N       0.2844   0.9296    0.827     N
N      0.28978  0.58922   0.6249     N
N      0.28978  0.70056  0.16488     N
C       0.2902   0.0397   0.4057     C
C       0.2902   0.2505   0.3845     C
H        0.291   0.5952   0.9606     H
H        0.291   0.6958   0.8304     H
C      0.29417  0.60793  0.99214     C
C      0.29417  0.68624  0.80203     C
C      0.29433  0.32448  0.30855     C
C      0.29433  0.96985  0.48578     C
H       0.2958   0.0704   0.4276     H
H       0.2958   0.2254   0.3682     H
H       0.2971   0.4927   0.5376     H
H       0.2971   0.8044   0.2595     H
H       0.2992   0.3186   0.2802     H
H       0.2992   0.9806    0.519     H
N      0.29944  0.33512  0.21022     N
N      0.29944  0.96432  0.58922     N
H       0.3017   0.4855   0.1428     H
H       0.3017   0.8162   0.6589     H
C      0.30203  0.00786  0.61579     C
C      0.30203  0.29417  0.18624     C
H       0.3024   0.3596   0.1188     H
H       0.3024   0.9428   0.6836     H
C      0.30289  0.53662  0.66247     C
C      0.30289  0.76627  0.14042     C
H       0.3042   0.6346   0.5952     H
H       0.3042   0.6696    0.209     H
H       0.3044   0.5073   0.0449     H
H       0.3044   0.7971   0.7595     H
N      0.30516  0.39769  0.37733     N
N      0.30516  0.90747  0.42783     N
C      0.30855  0.48407  0.51422     C
C      0.30855  0.82448  0.29433     C
C      0.31052  0.37847  0.33757     C
C      0.31052  0.93205  0.47295     C
C      0.31376  0.61579  0.60793     C
C      0.31376  0.69797  0.20583     C
H       0.3138   0.3157   0.3295     H
H       0.3138   0.9981   0.4843     H
H       0.3157   0.4862   0.0019     H
H       0.3157   0.8295   0.8138     H
H       0.3162   0.5145   0.6573     H
H       0.3162   0.8017   0.1589     H
H       0.3164   0.5572   0.6976     H
H       0.3164   0.7592   0.1188     H
C      0.31672  0.56907  0.64077     C
C      0.31672  0.74765  0.17595     C
H       0.3186   0.5384   0.0194     H
H       0.3186   0.7802   0.7992     H
N       0.3235   0.3277    0.448     N
N       0.3235   0.9958   0.3755     N
C      0.32405  0.64077   0.0717     C
C      0.32405  0.68328  0.75235     C
C      0.32448  0.51593  0.03015     C
C      0.32448  0.80855  0.79433     C
C      0.32564  0.44633  0.39349     C
C      0.32564  0.87931  0.43215     C
N        0.327   0.0426   0.3974     N
N        0.327   0.2844   0.4296     N
H       0.3271   0.4697   0.4204     H
H       0.3271   0.8574   0.4067     H
N       0.3277   0.3797   0.0042     N
N       0.3277    0.948   0.8235     N
N      0.32809  0.41527  0.49408     N
N      0.32809  0.91282  0.33401     N
H       0.3295   0.5138   0.5157     H
H       0.3295   0.8157   0.3138     H
H       0.3304   0.0394   0.6346     H
H       0.3304    0.291   0.1958     H
N      0.33401  0.41282  0.32809     N
N      0.33401  0.92119  0.50592     N
N      0.33512   0.6249  0.03568     N
N      0.33512  0.71022  0.79944     N
H        0.337   0.4714   0.8488     H
H        0.337   0.8656   0.9882     H
C      0.33753  0.37415  0.14042     C
C      0.33753  0.96338  0.69711     C
C      0.33757   0.4591  0.52705     C
C      0.33757  0.87847  0.31052     C
H       0.3411   0.6573   0.1428     H
H       0.3411   0.6838   0.6983     H
H       0.3427   0.3572   0.1589     H
H       0.3427   0.9855   0.6838     H
C      0.34456   0.4569  0.36414     C
C      0.34456  0.88766  0.48042     C
H       0.3488   0.0118   0.8774     H
H       0.3488    0.337   0.9714     H
H       0.3536   0.3709   0.1207     H
H       0.3536   0.9827   0.7329     H
C      0.35418  0.61023  0.61283     C
C      0.35418  0.74395  0.24135     C
N       0.3548   0.4574   0.7844     N
N       0.3548   0.8974   0.0704     N
N      0.35675   0.5805  0.63445     N
N      0.35675  0.77625   0.2223     N
H       0.3572   0.4296   0.7254     H
H       0.3572   0.6589   0.8427     H
H       0.3572   0.6983   0.0145     H
H       0.3572   0.9276   0.1318     H
C       0.3573   0.3585   0.4946     C
C       0.3573   0.9988   0.3627     C
H       0.3574   0.5303   0.9507     H
H       0.3574   0.8271   0.9067     H
C       0.3585   0.3639   0.0012     C
C       0.3585   0.9946   0.8573     C
C      0.35923   0.4283  0.17595     C
C      0.35923  0.93093  0.68328     C
Cd     0.35936  0.44722  0.08663    Cd
Cd     0.35936  0.91214  0.77273    Cd
C      0.35958  0.66247  0.12585     C
C      0.35958  0.69711  0.73373     C
H       0.3596   0.6188   0.8024     H
H       0.3596   0.7408   0.0572     H
Cd     0.36059  0.41337  0.27273    Cd
Cd     0.36059  0.94722  0.58786    Cd
C       0.3627   0.4988   0.3573     C
C       0.3627   0.8639   0.5054     C
C       0.3639   0.5012   0.8585     C
C       0.3639   0.8627   0.0054     C
C      0.36414  0.40724  0.51958     C
C      0.36414   0.9569  0.34456     C
H       0.3654   0.4606   0.6696     H
H       0.3654   0.9048   0.1958     H
N      0.36555  0.44605   0.2223     N
N      0.36555   0.9195  0.64325     N
H       0.3656   0.5286   0.3774     H
H       0.3656    0.837   0.4882     H
C        0.366   0.4603   0.7505     C
C        0.366   0.9057   0.1155     C
H       0.3682   0.6428   0.5724     H
H       0.3682   0.7254   0.2958     H
H       0.3709   0.6207   0.8536     H
H       0.3709   0.7502   0.0173     H
C      0.37415  0.64042  0.83753     C
C      0.37415  0.73373  0.03662     C
N       0.3751  0.46432  0.16488     N
N       0.3751  0.91078  0.71022     N
N       0.3755   0.4958   0.3235     N
N       0.3755   0.8797    0.552     N
N      0.37733  0.47964  0.57217     N
N      0.37733  0.89769  0.30516     N
H       0.3774   0.0286   0.3656     H
H       0.3774   0.3488   0.5118     H
C      0.37847   0.5409  0.06795     C
C      0.37847  0.83757  0.81052     C
H       0.3793   0.6464   0.1291     H
H       0.3793   0.7329   0.7502     H
C      0.37931  0.55367  0.94716     C
C      0.37931  0.82564  0.93215     C
N       0.3797   0.5042   0.8277     N
N       0.3797   0.8755    0.052     N
H       0.3812   0.6836   0.7408     H
H       0.3812   0.6976   0.1404     H
C      0.38421  0.49214  0.69797     C
C      0.38421  0.89207  0.18624     C
C       0.3845    0.634   0.5943     C
C       0.3845   0.7505   0.2902     C
C      0.38717   0.4974  0.24135     C
C      0.38717  0.88977  0.64582     C
C      0.38766   0.5431  0.90724     C
C      0.38766  0.84456  0.98042     C
C      0.38977   0.5026  0.74395     C
C      0.38977  0.88717  0.14582     C
C      0.39207  0.50786  0.20583     C
C      0.39207  0.88421  0.68624     C
C      0.39349  0.44716  0.56785     C
C      0.39349  0.94633  0.32564     C
N       0.3974   0.5426    0.327     N
N       0.3974   0.8548   0.5704     N
N      0.39769  0.52036  0.09253     N
N      0.39769  0.87733  0.80516     N
H       0.4048   0.5394    0.209     H
H       0.4048   0.8654   0.6958     H
C       0.4057   0.5397   0.2902     C
C       0.4057    0.866   0.6155     C
H       0.4067   0.0493   0.5796     H
H       0.4067   0.3574   0.3271     H
C      0.40724  0.01958  0.86414     C
C      0.40724  0.38766   0.0431     C
N      0.40747  0.60231  0.97964     N
N      0.40747  0.80516  0.92783     N
N      0.41078  0.53568  0.70056     N
N      0.41078   0.8751  0.21022     N
Cd     0.41214  0.55278  0.63941    Cd
Cd     0.41214  0.85936  0.27273    Cd
N      0.41282  0.58473  0.07881     N
N      0.41282  0.82809  0.83401     N
Cd     0.41337  0.64064  0.05278    Cd
Cd     0.41337  0.77273  0.86059    Cd
N      0.41527  0.42119  0.08718     N
N      0.41527  0.99408  0.82809     N
N       0.4195  0.55395  0.77625     N
N       0.4195  0.86555  0.14325     N
H       0.4204   0.4507   0.5933     H
H       0.4204   0.9697   0.3271     H
N      0.42119  0.58718  0.91527     N
N      0.42119  0.83401  0.00592     N
H       0.4276   0.5704   0.2958     H
H       0.4276   0.8572   0.6318     H
N      0.42783  0.02036  0.62267     N
N      0.42783  0.40747  0.30516     N
C       0.4283  0.67595  0.85923     C
C       0.4283  0.75235  0.06907     C
H       0.4296   0.2042   0.0724     H
H       0.4296   0.2254   0.8572     H
N       0.4296   0.6452   0.6026     N
N       0.4296   0.7844    0.327     N
C      0.43093   0.5717  0.74765     C
C      0.43093  0.85923  0.18328     C
C      0.43205  0.62153   0.9591     C
C      0.43205  0.81052  0.97295     C
C      0.43215  0.05284  0.60651     C
C      0.43215  0.37931  0.32564     C
H       0.4428   0.6404   0.7592     H
H       0.4428   0.8024   0.1836     H
N      0.44605   0.7223  0.86555     N
N      0.44605  0.72375   0.0805     N
C      0.44633  0.55284  0.12069     C
C      0.44633  0.89349  0.82564     C
C      0.44716  0.06785  0.89349     C
C      0.44716  0.37931  0.05367     C
Cd     0.44722  0.58663  0.85936    Cd
Cd     0.44722  0.86059  0.08786    Cd
N        0.448   0.6203   0.6245     N
N        0.448   0.8277   0.3235     N
H       0.4507   0.0933   0.9204     H
H       0.4507   0.3574   0.0303     H
H       0.4551   0.6956   0.9927     H
H       0.4551   0.7595   0.9624     H
C       0.4569  0.59276  0.11234     C
C       0.4569  0.86414  0.84456     C
N       0.4574    0.173   0.1026     N
N       0.4574   0.2844   0.8548     N
C       0.4591  0.02705  0.83757     C
C       0.4591  0.43205  0.12153     C
C       0.4603   0.2098   0.0943     C
C       0.4603   0.2505    0.866     C
H       0.4606   0.1696   0.8654     H
H       0.4606    0.291   0.0952     H
H       0.4616   0.4806   0.1814     H
H       0.4616    0.981   0.7802     H
H       0.4624   0.0073   0.7029     H
H       0.4624   0.4551   0.2595     H
C      0.46338  0.62585  0.76627     C
C      0.46338  0.83753  0.19711     C
N      0.46432  0.66488   0.8751     N
N      0.46432  0.79944  0.08922     N
H       0.4697   0.5493   0.1426     H
H       0.4697   0.9204   0.8271     H
C      0.46985  0.67552  0.98407     C
C      0.46985  0.79433  0.98578     C
H       0.4714   0.1226   0.1344     H
H       0.4714   0.3488    0.837     H
C      0.47295   0.0409  0.66243     C
C      0.47295  0.43205  0.31052     C
N      0.47964  0.07217  0.87733     N
N      0.47964  0.40747  0.10231     N
C      0.48042  0.09276  0.63586     C
C      0.48042  0.38766  0.34456     C
H       0.4806   0.6814   0.9616     H
H       0.4806   0.7992    0.019     H
H        0.481   0.5194   0.7008     H
H        0.481   0.9616   0.2802     H
H       0.4827   0.6291   0.7498     H
H       0.4827   0.8536   0.2329     H
C      0.48407  0.01422  0.80855     C
C      0.48407  0.46985  0.17552     C
H       0.4843   0.4981   0.3138     H
H       0.4843   0.9862   0.6705     H
H       0.4855   0.6428   0.8017     H
H       0.4855   0.8427   0.1838     H
C      0.48578  0.01593  0.69145     C
C      0.48578  0.46985  0.29433     C
H       0.4862   0.5019   0.8157     H
H       0.4862   0.9843   0.1705     H
H       0.4882   0.1512   0.6226     H
H       0.4882    0.337   0.3656     H
C      0.49214  0.19797  0.88421     C
C      0.49214  0.29417  0.10793     C
H       0.4927   0.0376   0.7971     H
H       0.4927   0.4551   0.1956     H
N      0.49408  0.57881  0.66599     N
N      0.49408  0.91527  0.32809     N
C       0.4946   0.6361   0.6373     C
C       0.4946   0.8585   0.3573     C
N       0.4958   0.6723   0.1203     N
N       0.4958   0.8235   0.8755     N
C       0.4974  0.74135  0.88717     C
C       0.4974  0.75605  0.11023     C
H       0.4981   0.6843   0.0138     H
H       0.4981   0.8138   0.9843     H
C       0.4988   0.6415   0.1361     C
C       0.4988   0.8573   0.8627     C
C       0.5012   0.1427   0.1373     C
C       0.5012   0.3585   0.8639     C
H       0.5019   0.1862   0.0157     H
H       0.5019   0.3157   0.9862     H
C       0.5026  0.24395  0.88977     C
C       0.5026  0.25865  0.11283     C
N       0.5042   0.1765   0.1245     N
N       0.5042   0.3277   0.8797     N
C       0.5054   0.1415   0.6427     C
C       0.5054   0.3639   0.3627     C
N      0.50592  0.08473  0.67191     N
N      0.50592  0.42119  0.33401     N
H       0.5073   0.5449   0.8044     H
H       0.5073   0.9624   0.2029     H
C      0.50786  0.70583  0.89207     C
C      0.50786  0.80203  0.11579     C
H       0.5118    0.663   0.6344     H
H       0.5118   0.8488   0.3774     H
H       0.5138   0.0157   0.8295     H
H       0.5138   0.4981   0.1843     H
C      0.51422  0.53015  0.70567     C
C      0.51422  0.98407  0.30855     C
H       0.5145   0.1573   0.8162     H
H       0.5145   0.3572   0.1983     H
H       0.5157   0.0138   0.3295     H
H       0.5157   0.5019   0.6862     H
C      0.51593  0.53015  0.82448     C
C      0.51593  0.98578  0.19145     C
H       0.5173   0.1464   0.7671     H
H       0.5173   0.3709   0.2502     H
H        0.519   0.0384   0.7198     H
H        0.519   0.4806   0.2992     H
H       0.5194   0.2008    0.981     H
H       0.5194   0.3186   0.0384     H
C      0.51958  0.61234  0.65544     C
C      0.51958  0.90724  0.36414     C
N      0.52036  0.59253  0.89769     N
N      0.52036  0.92783  0.12267     N
C      0.52705  0.56795  0.68948     C
C      0.52705   0.9591  0.33757     C
H       0.5286   0.6512    0.163     H
H       0.5286   0.8774   0.8656     H
C      0.53015  0.20567  0.01422     C
C      0.53015  0.32448  0.01593     C
H       0.5303   0.0796   0.1729     H
H       0.5303   0.4507   0.8574     H
N      0.53568  0.20056  0.91078     N
N      0.53568  0.33512   0.1249     N
C      0.53662  0.16247  0.80289     C
C      0.53662  0.37415  0.23373     C
H       0.5376   0.5449   0.7405     H
H       0.5376   0.9927   0.2971     H
H       0.5384    0.019   0.2198     H
H       0.5384   0.5194   0.8186     H
H       0.5394    0.709   0.9048     H
H       0.5394   0.8304   0.1346     H
C       0.5397   0.7495    0.134     C
C       0.5397   0.7902   0.9057     C
C       0.5409  0.56795  0.87847     C
C       0.5409  0.97295  0.16243     C
N       0.5426   0.7156   0.1452     N
N       0.5426    0.827   0.8974     N
C       0.5431  0.13586  0.15544     C
C       0.5431  0.40724  0.88766     C
H       0.5449   0.2405   0.0376     H
H       0.5449   0.3044   0.0073     H
H       0.5493   0.6426   0.9697     H
H       0.5493   0.9067   0.0796     H
N        0.552   0.1723   0.6765     N
N        0.552   0.3797   0.3755     N
Cd     0.55278  0.13941  0.91214    Cd
Cd     0.55278  0.41337  0.14064    Cd
C      0.55284  0.62069  0.94633     C
C      0.55284  0.93215  0.10651     C
C      0.55367  0.10651  0.17436     C
C      0.55367  0.44716  0.87931     C
N      0.55395  0.27625   0.9195     N
N      0.55395   0.2777  0.13445     N
H       0.5572   0.1976   0.8164     H
H       0.5572   0.3596   0.2408     H
C      0.56785  0.62069  0.67436     C
C      0.56785  0.94716  0.39349     C
C      0.56795  0.18948  0.02705     C
C      0.56795  0.37847   0.0409     C
C      0.56907  0.14077  0.81672     C
C      0.56907   0.4283  0.25235     C
N       0.5704   0.2156    0.673     N
N       0.5704   0.3548   0.3974     N
H       0.5704   0.7746   0.1428     H
H       0.5704   0.7958   0.9276     H
C       0.5717  0.24765  0.93093     C
C       0.5717  0.32405  0.14077     C
N      0.57217  0.59253  0.69484     N
N      0.57217  0.97964  0.37733     N
H       0.5724   0.1428   0.3682     H
H       0.5724   0.4296   0.7042     H
N      0.57881  0.16599  0.99408     N
N      0.57881  0.41282  0.08473     N
H       0.5796   0.0303   0.6729     H
H       0.5796   0.5493   0.4067     H
N       0.5805  0.13445  0.85675     N
N       0.5805  0.44605  0.22375     N
N      0.58473  0.00592  0.17191     N
N      0.58473  0.57881  0.91282     N
Cd     0.58663  0.22727  0.13941    Cd
Cd     0.58663  0.35936  0.94722    Cd
N      0.58718  0.17191  0.16599     N
N      0.58718  0.41527  0.92119     N
Cd     0.58786  0.14064  0.72727    Cd
Cd     0.58786  0.44722  0.36059    Cd
N      0.58922   0.1249  0.78978     N
N      0.58922  0.46432  0.29944     N
N      0.59253  0.19484  0.07217     N
N      0.59253  0.39769  0.02036     N
C      0.59276  0.61234   0.9569     C
C      0.59276  0.98042  0.13586     C
H       0.5933   0.6426   0.6729     H
H       0.5933   0.9507   0.4204     H
C       0.5943    0.134   0.3845     C
C       0.5943   0.4603   0.7098     C
H       0.5952   0.1346   0.3042     H
H       0.5952   0.4606    0.791     H
N      0.60231  0.12267  0.19484     N
N      0.60231  0.47964  0.90747     N
N       0.6026   0.1452   0.4296     N
N       0.6026   0.4574    0.673     N
C      0.60651  0.05367  0.67436     C
C      0.60651  0.55284  0.43215     C
C      0.60793  0.11579  0.31376     C
C      0.60793  0.49214  0.79417     C
C      0.61023  0.11283  0.85418     C
C      0.61023   0.4974  0.25605     C
C      0.61234  0.15544  0.01958     C
C      0.61234   0.4569  0.09276     C
C      0.61283  0.11023  0.35418     C
C      0.61283   0.5026  0.75865     C
C       0.6155   0.2495   0.7098     C
C       0.6155    0.366   0.4057     C
C      0.61579  0.10793  0.81376     C
C      0.61579  0.50786  0.30203     C
H       0.6188   0.3024   0.8596     H
H       0.6188   0.3164   0.2592     H
N       0.6203   0.1245    0.948     N
N       0.6203   0.4958   0.1723     N
C      0.62069  0.17436  0.06785     C
C      0.62069  0.44633  0.05284     C
H       0.6207   0.2671   0.2498     H
H       0.6207   0.3536   0.8709     H
C      0.62153  0.16243  0.18948     C
C      0.62153   0.4591  0.93205     C
H       0.6226   0.6512   0.4882     H
H       0.6226   0.9714   0.6344     H
N      0.62267  0.10231  0.69484     N
N      0.62267  0.52036  0.42783     N
N       0.6245   0.1203    0.448     N
N       0.6245   0.5042   0.6765     N
N       0.6249  0.08922  0.28978     N
N       0.6249  0.53568  0.83512     N
C      0.62585  0.26627  0.96338     C
C      0.62585  0.35958  0.16247     C
H       0.6291   0.2498   0.9827     H
H       0.6291   0.3793   0.1464     H
H       0.6318   0.2746   0.7042     H
H       0.6318   0.3572   0.4276     H
C        0.634   0.0943   0.8845     C
C        0.634   0.5397   0.2495     C
H       0.6344    0.163   0.5118     H
H       0.6344   0.4714   0.6226     H
N      0.63445   0.0805  0.35675     N
N      0.63445  0.55395   0.7777     N
H       0.6346   0.0952   0.8042     H
H       0.6346   0.5394   0.3304     H
C      0.63586   0.0431  0.65544     C
C      0.63586  0.59276  0.48042     C
C       0.6361   0.1373   0.9946     C
C       0.6361   0.4988   0.1415     C
C       0.6373   0.1361   0.4946     C
C       0.6373   0.5012   0.6427     C
Cd     0.63941  0.05278  0.41214    Cd
Cd     0.63941  0.58663  0.72727    Cd
H       0.6404   0.2592   0.9428     H
H       0.6404   0.3812   0.1976     H
C      0.64042  0.30289  0.26627     C
C      0.64042  0.33753  0.87415     C
Cd     0.64064  0.08786  0.22727    Cd
Cd     0.64064  0.55278  0.91337    Cd
C      0.64077  0.06907  0.31672     C
C      0.64077   0.5717  0.82405     C
C       0.6415   0.0054   0.1427     C
C       0.6415   0.6361   0.9988     C
H       0.6426   0.1729   0.0933     H
H       0.6426   0.4697   0.0493     H
C       0.6427   0.0012   0.6373     C
C       0.6427   0.6415   0.5054     C
H       0.6428   0.0724   0.8682     H
H       0.6428   0.3017   0.9855     H
H       0.6428   0.3411   0.1573     H
H       0.6428   0.5704   0.2746     H
N      0.64325  0.22375   0.7777     N
N      0.64325   0.4195  0.36555     N
N       0.6452   0.1026   0.9296     N
N       0.6452   0.5426   0.2156     N
C      0.64582  0.25605  0.75865     C
C      0.64582  0.38977  0.38717     C
H       0.6464   0.0173   0.2671     H
H       0.6464   0.6291   0.8793     H
H       0.6512    0.663   0.0286     H
H       0.6512   0.9882   0.1226     H
C      0.65544  0.11234  0.51958     C
C      0.65544   0.5431  0.63586     C
H       0.6573   0.0145   0.3162     H
H       0.6573   0.6428   0.8411     H
H       0.6589   0.3162   0.3017     H
H       0.6589   0.3427   0.8572     H
C      0.66243  0.12153  0.68948     C
C      0.66243   0.5409  0.47295     C
C      0.66247  0.03662  0.30289     C
C      0.66247  0.62585  0.85958     C
H        0.663   0.1344   0.0118     H
H        0.663   0.5286   0.1512     H
N      0.66488  0.28978  0.20056     N
N      0.66488   0.3751  0.96432     N
N      0.66599  0.07881  0.49408     N
N      0.66599  0.58718  0.67191     N
H       0.6696    0.709   0.8042     H
H       0.6696   0.9606   0.3654     H
H       0.6705   0.1843   0.6862     H
H       0.6705   0.4862   0.4843     H
N      0.67191  0.08718  0.66599     N
N      0.67191  0.58473  0.50592     N
N       0.6723    0.052   0.1765     N
N       0.6723   0.6203   0.9958     N
H       0.6729   0.1426   0.5933     H
H       0.6729   0.5303   0.5796     H
N        0.673   0.7156   0.5704     N
N        0.673   0.9574   0.6026     N
C      0.67436  0.12069  0.56785     C
C      0.67436  0.55367  0.60651     C
C      0.67552  0.19145  0.20567     C
C      0.67552  0.48407  0.96985     C
C      0.67595  0.31672  0.24765     C
C      0.67595  0.35923   0.9283     C
N       0.6765   0.0042   0.6245     N
N       0.6765   0.6723    0.552     N
H       0.6814   0.2198   0.2008     H
H       0.6814   0.4616   0.9806     H
C      0.68328  0.25235  0.82405     C
C      0.68328  0.43093  0.35923     C
H       0.6836   0.2408   0.8812     H
H       0.6836   0.4428   0.3024     H
H       0.6838   0.1983   0.8411     H
H       0.6838   0.4855   0.3427     H
H       0.6843   0.1705   0.1862     H
H       0.6843   0.5138   0.9981     H
H       0.6862   0.0019   0.5157     H
H       0.6862   0.6843   0.6705     H
C      0.68624  0.30203  0.79417     C
C      0.68624  0.38421  0.39207     C
C      0.68948  0.06795  0.52705     C
C      0.68948  0.62153  0.66243     C
C      0.69145  0.17552  0.70567     C
C      0.69145  0.51593  0.48578     C
N      0.69484  0.09253  0.57217     N
N      0.69484  0.60231  0.62267     N
H       0.6956   0.2029   0.2405     H
H       0.6956   0.4927   0.9551     H
H       0.6958   0.3304    0.791     H
H       0.6958   0.3654   0.4048     H
C      0.69711  0.23373  0.85958     C
C      0.69711  0.46338  0.33753     C
H       0.6976   0.0572   0.3164     H
H       0.6976   0.6404   0.8812     H
C      0.69797  0.70583  0.81376     C
C      0.69797  0.99214  0.38421     C
H       0.6983   0.1838   0.3411     H
H       0.6983   0.5145   0.8572     H
N      0.70056  0.03568  0.41078     N
N      0.70056  0.66488  0.78978     N
H       0.7008   0.0194    0.481     H
H       0.7008   0.6814   0.7198     H
H       0.7029   0.1956   0.7405     H
H       0.7029   0.5073   0.4624     H
H       0.7042   0.7746   0.6318     H
H       0.7042   0.9296   0.5724     H
C      0.70567  0.03015  0.51422     C
C      0.70567  0.67552  0.69145     C
C      0.70583  0.31376  0.19797     C
C      0.70583  0.39207  0.00786     C
H        0.709   0.3042   0.1696     H
H        0.709   0.4048   0.0394     H
C       0.7098   0.7495   0.6155     C
C       0.7098   0.9603   0.5943     C
N      0.71022  0.29944  0.83512     N
N      0.71022  0.41078   0.3751     N
N       0.7156   0.0704    0.173     N
N       0.7156   0.6452   0.0426     N
H       0.7198   0.1814   0.7008     H
H       0.7198   0.5384    0.519     H
N       0.7223  0.35675  0.27625     N
N       0.7223  0.36555  0.94605     N
N      0.72375  0.14325   0.2777     N
N      0.72375   0.5805  0.94605     N
H       0.7254   0.7958   0.8682     H
H       0.7254   0.9296   0.3572     H
Cd     0.72727  0.08663  0.63941    Cd
Cd     0.72727  0.64064  0.58786    Cd
H       0.7329   0.2502   0.8793     H
H       0.7329   0.4827   0.3536     H
C      0.73373  0.19711  0.35958     C
C      0.73373  0.53662  0.87415     C
H       0.7405   0.0449   0.5376     H
H       0.7405   0.6956   0.7029     H
H       0.7408   0.1836   0.3812     H
H       0.7408   0.5572   0.8596     H
C      0.74135  0.35418  0.24395     C
C      0.74135  0.38717   0.9974     C
C      0.74395   0.0026  0.38977     C
C      0.74395  0.74135  0.85418     C
C      0.74765   0.0717  0.43093     C
C      0.74765  0.67595  0.81672     C
C       0.7495   0.1155   0.2098     C
C       0.7495    0.634   0.0397     C
H       0.7498   0.1291   0.4827     H
H       0.7498   0.6207   0.7671     H
H       0.7502   0.2329   0.3793     H
H       0.7502   0.5173   0.8709     H
C       0.7505   0.7902   0.8845     C
C       0.7505   0.9603    0.366     C
C      0.75235  0.18328  0.32405     C
C      0.75235  0.56907   0.9283     C
C      0.75605  0.14582  0.25865     C
C      0.75605  0.61023   0.9974     C
C      0.75865   0.0026  0.61283     C
C      0.75865  0.75605  0.64582     C
H       0.7592   0.1404   0.4428     H
H       0.7592   0.6188   0.8164     H
H       0.7595   0.2971   0.3044     H
H       0.7595   0.4624   0.9551     H
C      0.76627  0.12585  0.46338     C
C      0.76627  0.64042  0.80289     C
H       0.7671   0.1207   0.7498     H
H       0.7671   0.6464   0.5173     H
Cd     0.77273  0.36059  0.91337    Cd
Cd     0.77273  0.41214  0.35936    Cd
H       0.7746   0.1318   0.2042     H
H       0.7746   0.6428   0.0704     H
N      0.77625  0.05395   0.4195     N
N      0.77625   0.7223  0.85675     N
N       0.7777  0.05395  0.63445     N
N       0.7777  0.72375  0.64325     N
H       0.7802   0.2992   0.8186     H
H       0.7802    0.481   0.4616     H
N       0.7844    0.827   0.9296     N
N       0.7844   0.9574   0.3548     N
N      0.78978  0.16488  0.70056     N
N      0.78978   0.6249  0.58922     N
C       0.7902   0.3845   0.2505     C
C       0.7902   0.4057   0.0397     C
H        0.791   0.8304   0.6958     H
H        0.791   0.9606   0.5952     H
C      0.79417  0.80203  0.68624     C
C      0.79417  0.99214  0.60793     C
C      0.79433  0.30855  0.32448     C
C      0.79433  0.48578  0.96985     C
H       0.7958   0.3682   0.2254     H
H       0.7958   0.4276   0.0704     H
H       0.7971   0.2595   0.8044     H
H       0.7971   0.5376   0.4927     H
H       0.7992   0.2802   0.3186     H
H       0.7992    0.519   0.9806     H
N      0.79944  0.21022  0.33512     N
N      0.79944  0.58922  0.96432     N
H       0.8017   0.1428   0.4855     H
H       0.8017   0.6589   0.8162     H
C      0.80203  0.18624  0.29417     C
C      0.80203  0.61579  0.00786     C
H       0.8024   0.1188   0.3596     H
H       0.8024   0.6836   0.9428     H
C      0.80289  0.14042  0.76627     C
C      0.80289  0.66247  0.53662     C
H       0.8042    0.209   0.6696     H
H       0.8042   0.5952   0.6346     H
H       0.8044   0.0449   0.5073     H
H       0.8044   0.7595   0.7971     H
N      0.80516  0.37733  0.39769     N
N      0.80516  0.42783  0.90747     N
C      0.80855  0.29433  0.82448     C
C      0.80855  0.51422  0.48407     C
C      0.81052  0.33757  0.37847     C
C      0.81052  0.47295  0.93205     C
C      0.81376  0.20583  0.69797     C
C      0.81376  0.60793  0.61579     C
H       0.8138   0.3295   0.3157     H
H       0.8138   0.4843   0.9981     H
H       0.8157   0.0019   0.4862     H
H       0.8157   0.8138   0.8295     H
H       0.8162   0.1589   0.8017     H
H       0.8162   0.6573   0.5145     H
H       0.8164   0.1188   0.7592     H
H       0.8164   0.6976   0.5572     H
C      0.81672  0.17595  0.74765     C
C      0.81672  0.64077  0.56907     C
H       0.8186   0.0194   0.5384     H
H       0.8186   0.7992   0.7802     H
N       0.8235   0.3755   0.9958     N
N       0.8235    0.448   0.3277     N
C      0.82405   0.0717  0.64077     C
C      0.82405  0.75235  0.68328     C
C      0.82448  0.03015  0.51593     C
C      0.82448  0.79433  0.80855     C
C      0.82564  0.39349  0.44633     C
C      0.82564  0.43215  0.87931     C
N        0.827   0.3974   0.0426     N
N        0.827   0.4296   0.2844     N
H       0.8271   0.4067   0.8574     H
H       0.8271   0.4204   0.4697     H
N       0.8277   0.0042   0.3797     N
N       0.8277   0.8235    0.948     N
N      0.82809  0.33401  0.91282     N
N      0.82809  0.49408  0.41527     N
H       0.8295   0.3138   0.8157     H
H       0.8295   0.5157   0.5138     H
H       0.8304   0.1958    0.291     H
H       0.8304   0.6346   0.0394     H
N      0.83401  0.32809  0.41282     N
N      0.83401  0.50592  0.92119     N
N      0.83512  0.03568   0.6249     N
N      0.83512  0.79944  0.71022     N
H        0.837   0.8488   0.4714     H
H        0.837   0.9882   0.8656     H
C      0.83753  0.14042  0.37415     C
C      0.83753  0.69711  0.96338     C
C      0.83757  0.31052  0.87847     C
C      0.83757  0.52705   0.4591     C
H       0.8411   0.1428   0.6573     H
H       0.8411   0.6983   0.6838     H
H       0.8427   0.1589   0.3572     H
H       0.8427   0.6838   0.9855     H
C      0.84456  0.36414   0.4569     C
C      0.84456  0.48042  0.88766     C
H       0.8488   0.8774   0.0118     H
H       0.8488   0.9714    0.337     H
H       0.8536   0.1207   0.3709     H
H       0.8536   0.7329   0.9827     H
C      0.85418  0.24135  0.74395     C
C      0.85418  0.61283  0.61023     C
N       0.8548   0.0704   0.8974     N
N       0.8548   0.7844   0.4574     N
N      0.85675   0.2223  0.77625     N
N      0.85675  0.63445   0.5805     N
H       0.8572   0.0145   0.6983     H
H       0.8572   0.1318   0.9276     H
H       0.8572   0.7254   0.4296     H
H       0.8572   0.8427   0.6589     H
C       0.8573   0.3627   0.9988     C
C       0.8573   0.4946   0.3585     C
H       0.8574   0.9067   0.8271     H
H       0.8574   0.9507   0.5303     H
C       0.8585   0.0012   0.3639     C
C       0.8585   0.8573   0.9946     C
C      0.85923  0.17595   0.4283     C
C      0.85923  0.68328  0.93093     C
Cd     0.85936  0.08663  0.44722    Cd
Cd     0.85936  0.77273  0.91214    Cd
C      0.85958  0.12585  0.66247     C
C      0.85958  0.73373  0.69711     C
H       0.8596   0.0572   0.7408     H
H       0.8596   0.8024   0.6188     H
Cd     0.86059  0.27273  0.41337    Cd
Cd     0.86059  0.58786  0.94722    Cd
C       0.8627   0.3573   0.4988     C
C       0.8627   0.5054   0.8639     C
C       0.8639   0.0054   0.8627     C
C       0.8639   0.8585   0.5012     C
C      0.86414  0.34456   0.9569     C
C      0.86414  0.51958  0.40724     C
H       0.8654   0.1958   0.9048     H
H       0.8654   0.6696   0.4606     H
N      0.86555   0.2223  0.44605     N
N      0.86555  0.64325   0.9195     N
H       0.8656   0.3774   0.5286     H
H       0.8656   0.4882    0.837     H
C        0.866   0.1155   0.9057     C
C        0.866   0.7505   0.4603     C
H       0.8682   0.2958   0.7254     H
H       0.8682   0.5724   0.6428     H
H       0.8709   0.0173   0.7502     H
H       0.8709   0.8536   0.6207     H
C      0.87415  0.03662  0.73373     C
C      0.87415  0.83753  0.64042     C
N       0.8751  0.16488  0.46432     N
N       0.8751  0.71022  0.91078     N
N       0.8755   0.3235   0.4958     N
N       0.8755    0.552   0.8797     N
N      0.87733  0.30516  0.89769     N
N      0.87733  0.57217  0.47964     N
H       0.8774   0.3656   0.0286     H
H       0.8774   0.5118   0.3488     H
C      0.87847  0.06795   0.5409     C
C      0.87847  0.81052  0.83757     C
H       0.8793   0.1291   0.6464     H
H       0.8793   0.7502   0.7329     H
C      0.87931  0.93215  0.82564     C
C      0.87931  0.94716  0.55367     C
N       0.8797    0.052   0.8755     N
N       0.8797   0.8277   0.5042     N
H       0.8812   0.1404   0.6976     H
H       0.8812   0.7408   0.6836     H
C      0.88421  0.18624  0.89207     C
C      0.88421  0.69797  0.49214     C
C       0.8845   0.2902   0.7505     C
C       0.8845   0.5943    0.634     C
C      0.88717  0.24135   0.4974     C
C      0.88717  0.64582  0.88977     C
C      0.88766  0.90724   0.5431     C
C      0.88766  0.98042  0.84456     C
C      0.88977  0.14582  0.88717     C
C      0.88977  0.74395   0.5026     C
C      0.89207  0.20583  0.50786     C
C      0.89207  0.68624  0.88421     C
C      0.89349  0.32564  0.94633     C
C      0.89349  0.56785  0.44716     C
N       0.8974    0.327   0.5426     N
N       0.8974   0.5704   0.8548     N
N      0.89769  0.09253  0.52036     N
N      0.89769  0.80516  0.87733     N
H       0.9048    0.209   0.5394     H
H       0.9048   0.6958   0.8654     H
C       0.9057   0.2902   0.5397     C
C       0.9057   0.6155    0.866     C
H       0.9067   0.3271   0.3574     H
H       0.9067   0.5796   0.0493     H
C      0.90724   0.0431  0.38766     C
C      0.90724  0.86414  0.01958     C
N      0.90747  0.92783  0.80516     N
N      0.90747  0.97964  0.60231     N
N      0.91078  0.21022   0.8751     N
N      0.91078  0.70056  0.53568     N
Cd     0.91214  0.27273  0.85936    Cd
Cd     0.91214  0.63941  0.55278    Cd
N      0.91282  0.07881  0.58473     N
N      0.91282  0.83401  0.82809     N
Cd     0.91337  0.05278  0.64064    Cd
Cd     0.91337  0.86059  0.77273    Cd
N      0.91527  0.08718  0.42119     N
N      0.91527  0.82809  0.99408     N
N       0.9195  0.14325  0.86555     N
N       0.9195  0.77625  0.55395     N
H       0.9204   0.3271   0.9697     H
H       0.9204   0.5933   0.4507     H
N      0.92119  0.00592  0.83401     N
N      0.92119  0.91527  0.58718     N
H       0.9276   0.2958   0.5704     H
H       0.9276   0.6318   0.8572     H
N      0.92783  0.30516  0.40747     N
N      0.92783  0.62267  0.02036     N
C       0.9283  0.06907  0.75235     C
C       0.9283  0.85923  0.67595     C
H       0.9296   0.0724   0.2042     H
N       0.9296    0.327   0.7844     N
N       0.9296   0.6026   0.6452     N
H       0.9296   0.8572   0.2254     H
C      0.93093  0.18328  0.85923     C
C      0.93093  0.74765   0.5717     C
C      0.93205   0.9591  0.62153     C
C      0.93205  0.97295  0.81052     C
C      0.93215  0.32564  0.37931     C
C      0.93215  0.60651  0.05284     C
H       0.9428   0.1836   0.8024     H
H       0.9428   0.7592   0.6404     H
N      0.94605   0.0805  0.72375     N
N      0.94605  0.86555   0.7223     N
C      0.94633  0.12069  0.55284     C
C      0.94633  0.82564  0.89349     C
C      0.94716  0.05367  0.37931     C
C      0.94716  0.89349  0.06785     C
Cd     0.94722  0.08786  0.86059    Cd
Cd     0.94722  0.85936  0.58663    Cd
N        0.948   0.3235   0.8277     N
N        0.948   0.6245   0.6203     N
H       0.9507   0.0303   0.3574     H
H       0.9507   0.9204   0.0933     H
H       0.9551   0.9624   0.7595     H
H       0.9551   0.9927   0.6956     H
C       0.9569  0.11234  0.59276     C
C       0.9569  0.84456  0.86414     C
N       0.9574   0.1026    0.173     N
N       0.9574   0.8548   0.2844     N
C       0.9591  0.12153  0.43205     C
C       0.9591  0.83757  0.02705     C
C       0.9603   0.0943   0.2098     C
C       0.9603    0.866   0.2505     C
H       0.9606   0.0952    0.291     H
H       0.9606   0.8654   0.1696     H
H       0.9616   0.1814   0.4806     H
H       0.9616   0.7802    0.981     H
H       0.9624   0.2595   0.4551     H
H       0.9624   0.7029   0.0073     H
C      0.96338  0.19711  0.83753     C
C      0.96338  0.76627  0.62585     C
N      0.96432  0.08922  0.79944     N
N      0.96432   0.8751  0.66488     N
H       0.9697   0.1426   0.5493     H
H       0.9697   0.8271   0.9204     H
C      0.96985  0.98407  0.67552     C
C      0.96985  0.98578  0.79433     C
H       0.9714   0.1344   0.1226     H
H       0.9714    0.837   0.3488     H
C      0.97295  0.31052  0.43205     C
C      0.97295  0.66243   0.0409     C
N      0.97964  0.10231  0.40747     N
N      0.97964  0.87733  0.07217     N
C      0.98042  0.34456  0.38766     C
C      0.98042  0.63586  0.09276     C
H       0.9806    0.019   0.7992     H
H       0.9806   0.9616   0.6814     H
H        0.981   0.2802   0.9616     H
H        0.981   0.7008   0.5194     H
H       0.9827   0.2329   0.8536     H
H       0.9827   0.7498   0.6291     H
C      0.98407  0.17552  0.46985     C
C      0.98407  0.80855  0.01422     C
H       0.9843   0.3138   0.4981     H
H       0.9843   0.6705   0.9862     H
H       0.9855   0.1838   0.8427     H
H       0.9855   0.8017   0.6428     H
C      0.98578  0.29433  0.46985     C
C      0.98578  0.69145  0.01593     C
H       0.9862   0.1705   0.9843     H
H       0.9862   0.8157   0.5019     H
H       0.9882   0.3656    0.337     H
H       0.9882   0.6226   0.1512     H
C      0.99214  0.10793  0.29417     C
C      0.99214  0.88421  0.19797     C
H       0.9927   0.1956   0.4551     H
H       0.9927   0.7971   0.0376     H
N      0.99408  0.32809  0.91527     N
N      0.99408  0.66599  0.57881     N
C       0.9946   0.3573   0.8585     C
C       0.9946   0.6373   0.6361     C
N       0.9958   0.1203   0.6723     N
N       0.9958   0.8755   0.8235     N
C       0.9974  0.11023  0.75605     C
C       0.9974  0.88717  0.74135     C
H       0.9981   0.0138   0.6843     H
H       0.9981   0.9843   0.8138     H
C       0.9988   0.1361   0.6415     C
C       0.9988   0.8627   0.8573     C
