data_I
_chemical_name_common  '/home/zhangsd/repos/MofS-CGCNN/ML/data/TSD/clean_cifs/SIDCAL_clean'
_cell_length_a  9.85230
_cell_length_b 19.52440
_cell_length_c 19.66990
_cell_angle_alpha 89.71500
_cell_angle_beta  83.05800
_cell_angle_gamma 87.77600
_space_group_name_H-M_alt      'P 1'


loop_
_space_group_symop_operation_xyz
  'x, y, z' 

loop_
_atom_site_label
_atom_site_fract_x
_atom_site_fract_y
_atom_site_fract_z
_atom_site_type_symbol
Cd         0.0      0.0      0.0    Cd
Cd         0.0      0.5      0.5    Cd
H       0.0001   0.3411   0.4324     H
Cd     0.00076  0.84584  0.92316    Cd
C       0.0029   0.6799   0.6098     C
O        0.003   0.7436   0.8589     O
H       0.0052   0.9275   0.1527     H
C       0.0055   0.3293   0.2663     C
C       0.0076   0.8323   0.0625     C
C       0.0094   0.3599   0.3299     C
C       0.0111   0.9501   0.2884     C
C        0.012   0.9443   0.3601     C
H       0.0121   0.9892   0.3797     H
C       0.0143   0.7413   0.7362     C
H       0.0149   0.8901   0.5138     H
H       0.0159   0.3553   0.2263     H
C        0.016   0.8679   0.5574     C
C       0.0161   0.7777    0.804     C
C       0.0161   0.8859    0.175     C
O       0.0174   0.1093   0.9623     O
C       0.0193   0.7492   0.6126     C
O       0.0217    0.779   0.0257     O
C       0.0241    0.827   0.1388     C
C       0.0242   0.8851   0.2464     C
C       0.0256   0.7924   0.5476     C
O       0.0279   0.8398   0.8035     O
C       0.0293   0.7796   0.6763     C
H       0.0308   0.8165    0.323     H
C       0.0334   0.4344   0.3326     C
C       0.0341   0.8196   0.2757     C
C       0.0425   0.7642    0.168     C
O       0.0455   0.4713   0.2812     O
H       0.0462    0.826   0.6784     H
O        0.048   0.4584   0.3923     O
C       0.0486   0.7595   0.2381     C
H       0.0508   0.7248   0.1411     H
O       0.0599    0.637   0.2409     O
Cd     0.06366  0.57392  0.34431    Cd
H       0.0664   0.1197   0.4134     H
C       0.0668   0.6934    0.274     C
H       0.0685   0.0784   0.6204     H
O       0.0739   0.6935   0.3368     O
H       0.0829    0.197   0.5339     H
H       0.0918   0.2703   0.5012     H
H       0.0919   0.9182   0.3695     H
C        0.092   0.2221   0.4916     C
H       0.0937   0.8821   0.5782     H
O       0.0993   0.4136   0.5564     O
H       0.0998    0.044    0.281     H
H       0.1051   0.9626   0.7011     H
C        0.111   0.0065   0.7221     C
H       0.1151   0.0005   0.7703     H
H        0.116    0.005   0.2109     H
C        0.119   0.0002   0.2593     C
O       0.1309   0.9456   0.9115     O
H       0.1533   0.7945   0.4592     H
C        0.154   0.7726    0.503     C
H       0.1593   0.7237    0.497     H
O       0.1616   0.0194   0.0649     O
H       0.1766   0.2084   0.4648     H
O       0.1798   0.5655   0.4785     O
H       0.1917   0.0282   0.7018     H
O       0.2015   0.4227   0.6502     O
C       0.2052   0.4173    0.588     C
H       0.2077   0.9829   0.2676     H
O       0.2247   0.1272   0.0728     O
H       0.2311   0.7867    0.524     H
C       0.2476   0.9153   0.9163     C
C       0.2488   0.0628   0.0736     C
H       0.2589   0.1492   0.8732     H
O       0.2609   0.8506   0.9253     O
H       0.2688   0.3859   0.4591     H
O       0.2761   0.5696   0.3704     O
H       0.2773   0.0448   0.8859     H
C       0.2802   0.5712   0.4355     C
H       0.3068   0.3929   0.3485     H
H       0.3146   0.6869   0.6374     H
H       0.3197   0.6074   0.5586     H
H       0.3217    0.152   0.7962     H
H       0.3241   0.9395   0.1062     H
H       0.3251   0.3129    0.344     H
H       0.3275   0.2159   0.8435     H
C        0.332   0.1667   0.8417     C
H       0.3353    0.844   0.1428     H
H       0.3415   0.5781   0.6563     H
C       0.3429   0.4109   0.5466     C
C       0.3489    0.392   0.4786     C
H       0.3584   0.1673    0.954     H
C       0.3625   0.0251   0.8918     C
C        0.367   0.3554   0.3316     C
C       0.3739   0.9552   0.9106     C
H       0.3839   0.8511   0.2154     H
H       0.3855   0.3584   0.2826     H
C       0.3872   0.0348   0.0849     C
H       0.3882     0.71   0.6993     H
H       0.3968   0.6012   0.7237     H
C          0.4   0.6994   0.6513     C
C       0.4013   0.9659   0.1035     C
C       0.4048    0.604   0.5324     C
C        0.407   0.8321   0.1703     C
C       0.4121   0.5838   0.4628     C
H        0.417   0.7832   0.1734     H
C        0.422   0.5864   0.6773     C
H       0.4325   0.7389   0.6258     H
H       0.4355    0.229   0.9182     H
C        0.442   0.1809   0.9281     C
H        0.453   0.4342    0.622     H
C       0.4595   0.4223    0.576     C
C       0.4658   0.1404   0.8609     C
H       0.4781   0.5449    0.677     H
C       0.4793   0.0651   0.8821     C
C       0.4814   0.3815   0.4379     C
H       0.4831   0.8283   0.0458     H
H       0.4921   0.1195   0.0676     H
C        0.498   0.3586   0.3621     C
C          0.5   0.0733   0.0789     C
C          0.5   0.9267   0.9211     C
C        0.502   0.6414   0.6379     C
H       0.5079   0.8805   0.9324     H
H       0.5169   0.1717   0.9542     H
C       0.5186   0.6185   0.5621     C
C       0.5207   0.9349   0.1179     C
H       0.5219   0.4551    0.323     H
C       0.5342   0.8596   0.1391     C
C       0.5405   0.5777    0.424     C
H        0.547   0.5658    0.378     H
C        0.558   0.8191   0.0719     C
H       0.5645    0.771   0.0818     H
H       0.5675   0.2611   0.3742     H
C        0.578   0.4136   0.3227     C
H        0.583   0.2168   0.8266     H
C       0.5879   0.4162   0.5372     C
C        0.593   0.1679   0.8297     C
C       0.5952    0.396   0.4676     C
C       0.5987   0.0341   0.8965     C
C          0.6   0.3006   0.3487     C
H       0.6032   0.3988   0.2763     H
H       0.6118     0.29   0.3007     H
C       0.6128   0.9652   0.9151     C
H       0.6145   0.6416   0.7174     H
H       0.6161   0.1489   0.7846     H
C       0.6261   0.0448   0.0894     C
C        0.633   0.6446   0.6684     C
C       0.6375   0.9749   0.1082     C
H       0.6416   0.8327    0.046     H
C       0.6511    0.608   0.5214     C
C       0.6571   0.5891   0.4534     C
H       0.6585   0.4219   0.3437     H
H       0.6647    0.156   0.8572     H
C        0.668   0.8333   0.1583     C
H       0.6725   0.7841   0.1565     H
H       0.6749   0.6871    0.656     H
H       0.6759   0.0605   0.8938     H
H       0.6783    0.848   0.2038     H
H       0.6803   0.3926   0.4414     H
H       0.6854   0.3131   0.3626     H
H       0.6932   0.6071   0.6515     H
C       0.7198   0.4288   0.5645     C
H       0.7227   0.9552   0.1141     H
O       0.7239   0.4304   0.6296     O
H       0.7312   0.6141   0.5409     H
O       0.7391   0.1494   0.0747     O
H       0.7411   0.8508   0.1268     H
C       0.7512   0.9372   0.9264     C
C       0.7524   0.0847   0.0837     C
H       0.7689   0.2133    0.476     H
O       0.7753   0.8728   0.9272     O
H       0.7923   0.0171   0.7324     H
C       0.7948   0.5827    0.412     C
O       0.7985   0.5773   0.3498     O
H       0.8083   0.9718   0.2982     H
O       0.8202   0.4345   0.5215     O
H       0.8234   0.7916   0.5352     H
O       0.8384   0.9806   0.9351     O
H       0.8407   0.2763    0.503     H
C        0.846   0.2274    0.497     C
H       0.8467   0.2055   0.5408     H
O       0.8691   0.0544   0.0885     O
C        0.881   0.9998   0.7407     C
H        0.884    0.995   0.7891     H
H       0.8849   0.9995   0.2297     H
C        0.889   0.9935   0.2779     C
H       0.8949   0.0374   0.2989     H
H       0.9002    0.956    0.719     H
O       0.9007   0.5864   0.4436     O
H       0.9063   0.1179   0.4218     H
C        0.908   0.7779   0.5084     C
H       0.9081   0.0818   0.6305     H
H       0.9082   0.7297   0.4988     H
H       0.9171    0.803   0.4661     H
O       0.9261   0.3065   0.6632     O
H       0.9315   0.9216   0.3796     H
C       0.9332   0.3066    0.726     C
H       0.9336   0.8803   0.5866     H
Cd     0.93634  0.42608  0.65569    Cd
O       0.9401    0.363   0.7591     O
H       0.9492   0.2752   0.8589     H
C       0.9514   0.2405   0.7619     C
O        0.952   0.5416   0.6077     O
H       0.9538    0.174   0.3216     H
O       0.9545   0.5287   0.7188     O
C       0.9575   0.2358    0.832     C
C       0.9659   0.1804   0.7243     C
C       0.9666   0.5656   0.6674     C
H       0.9692   0.1835    0.677     H
C       0.9707   0.2204   0.3237     C
O       0.9721   0.1602   0.1965     O
C       0.9744   0.2076   0.4524     C
C       0.9758   0.1149   0.7536     C
C       0.9759    0.173   0.8612     C
O       0.9783    0.221   0.9743     O
C       0.9807   0.2508   0.3874     C
O       0.9826   0.8907   0.0377     O
C       0.9839   0.1141    0.825     C
C       0.9839   0.2223    0.196     C
C        0.984   0.1321   0.4426     C
H       0.9841   0.6447   0.7737     H
H       0.9851   0.1099   0.4862     H
C       0.9857   0.2587   0.2638     C
H       0.9879   0.0108   0.6203     H
C        0.988   0.0557   0.6399     C
C       0.9889   0.0499   0.7116     C
C       0.9906   0.6401   0.6701     C
C       0.9924   0.1677   0.9375     C
C       0.9945   0.6707   0.7337     C
H       0.9948   0.0725   0.8473     H
O        0.997   0.2564   0.1411     O
C       0.9971   0.3201   0.3902     C
Cd     0.99924  0.15416  0.07684    Cd
H       0.9999   0.6589   0.5676     H
