data_I
_chemical_name_common  '/home/zhangsd/repos/MofS-CGCNN/ML/data/TSD/clean_cifs/SIRBIG06_clean'
_cell_length_a  8.39570
_cell_length_b  8.39570
_cell_length_c 21.73320
_cell_angle_alpha 90.00000
_cell_angle_beta  90.00000
_cell_angle_gamma 120.00000
_space_group_name_H-M_alt      'P 1'


loop_
_space_group_symop_operation_xyz
  'x, y, z' 

loop_
_atom_site_label
_atom_site_fract_x
_atom_site_fract_y
_atom_site_fract_z
_atom_site_type_symbol
Mg         0.0      0.0      0.0    Mg
Mg         0.0      0.0      0.5    Mg
O      0.00833  0.20447  0.55663     O
C      0.00893  0.53997  0.75517     C
O       0.0114   0.7994  0.05282     O
H      0.03343  0.44807  0.76727     H
H       0.0813   0.2999   0.1006     H
H      0.11473  0.74797  0.56607     H
O      0.12133  0.65527  0.71949     O
C       0.1267   0.8023   0.0885     C
O      0.12887  0.47053  0.22329     O
O      0.13273  0.45467  0.61385     O
C      0.13563  0.34227  0.57817     C
O       0.1372    0.675  0.11004     O
O      0.19613  0.99167  0.55663     O
C       0.1977   0.3244   0.0885     C
O       0.2006    0.212  0.05282     O
O      0.20447  0.19613  0.44337     O
C      0.20663  0.86437  0.57817     C
O        0.212   0.0114  0.94718     O
H       0.2186   0.9187   0.1006     H
H      0.25203  0.36677  0.56607     H
H       0.2999   0.2186   0.8994     H
O      0.32193  0.86727  0.61385     O
C       0.3244   0.1267   0.9115     C
O        0.325   0.4622  0.11004     O
Mg     0.33333  0.66667  0.16667    Mg
Mg     0.33333  0.66667  0.66667    Mg
O      0.34167  0.87113  0.22329     O
C      0.34227  0.20663  0.42183     C
O      0.34473  0.46607  0.71949     O
H      0.36677  0.11473  0.43393     H
H      0.41463  0.96657  0.76727     H
H      0.44807  0.41463  0.23273     H
O      0.45467  0.32193  0.38615     O
C      0.46003  0.46897  0.75517     C
O       0.4622   0.1372  0.88996     O
O      0.46607  0.12133  0.28051     O
C      0.46897  0.00893  0.24483     C
O      0.47053  0.34167  0.77671     O
O      0.52947  0.65833  0.22329     O
C      0.53103  0.99107  0.75517     C
O      0.53393  0.87867  0.71949     O
O       0.5378   0.8628  0.11004     O
C      0.53997  0.53103  0.24483     C
O      0.54533  0.67807  0.61385     O
H      0.55193  0.58537  0.76727     H
H      0.58537  0.03343  0.23273     H
H      0.63323  0.88527  0.56607     H
O      0.65527  0.53393  0.28051     O
C      0.65773  0.79337  0.57817     C
O      0.65833  0.12887  0.77671     O
Mg     0.66667  0.33333  0.33333    Mg
Mg     0.66667  0.33333  0.83333    Mg
O        0.675   0.5378  0.88996     O
C       0.6756   0.8733   0.0885     C
O      0.67807  0.13273  0.38615     O
H       0.7001   0.7814   0.1006     H
H      0.74797  0.63323  0.43393     H
H       0.7814   0.0813   0.8994     H
O        0.788   0.9886  0.05282     O
C      0.79337  0.13563  0.42183     C
O      0.79553  0.80387  0.55663     O
O       0.7994    0.788  0.94718     O
C       0.8023   0.6756   0.9115     C
O      0.80387  0.00833  0.44337     O
O       0.8628    0.325  0.88996     O
C      0.86437  0.65773  0.42183     C
O      0.86727  0.54533  0.38615     O
O      0.87113  0.52947  0.77671     O
C       0.8733   0.1977   0.9115     C
O      0.87867  0.34473  0.28051     O
H      0.88527  0.25203  0.43393     H
H       0.9187   0.7001   0.8994     H
H      0.96657  0.55193  0.23273     H
O       0.9886   0.2006  0.94718     O
C      0.99107  0.46003  0.24483     C
O      0.99167  0.79553  0.44337     O
