data_I
_chemical_name_common  '/home/zhangsd/repos/MofS-CGCNN/ML/data/TSD/clean_cifs/SIVGIP_clean'
_cell_length_a 13.29250
_cell_length_b 13.66000
_cell_length_c  9.56310
_cell_angle_alpha 90.00000
_cell_angle_beta  126.84000
_cell_angle_gamma 90.00000
_space_group_name_H-M_alt      'P 1'


loop_
_space_group_symop_operation_xyz
  'x, y, z' 

loop_
_atom_site_label
_atom_site_fract_x
_atom_site_fract_y
_atom_site_fract_z
_atom_site_type_symbol
H       0.0143   0.3673   0.4639     H
H       0.0143   0.6327   0.9639     H
C        0.033   0.4232   0.4223     C
C        0.033   0.5768   0.9223     C
H       0.0418   0.1036   0.7936     H
H       0.0418   0.8964   0.2936     H
H       0.0572   0.1198   0.6451     H
H       0.0572   0.8802   0.1451     H
H       0.0652   0.4017   0.3606     H
H       0.0652   0.5983   0.8606     H
C       0.1277   0.4845   0.5718     C
C       0.1277   0.5155   0.0718     C
Zn      0.1664  0.35645   0.8701    Zn
Zn      0.1664  0.64355   0.3701    Zn
N       0.1763   0.4323   0.0622     N
N       0.1763   0.5677   0.5622     N
N       0.1807    0.465   0.7382     N
N       0.1807    0.535   0.2382     N
N        0.261   0.4017   0.2296     N
N        0.261   0.5983   0.7296     N
N       0.2629   0.4622   0.3348     N
N       0.2629   0.5378   0.8348     N
N       0.2957   0.1707   0.0261     N
N       0.2957   0.8293   0.5261     N
N       0.3125   0.2682   0.0207     N
N       0.3125   0.7318   0.5207     N
N       0.4023   0.1303   0.1369     N
N       0.4023   0.8697   0.6369     N
C       0.4356   0.2833   0.1323     C
C       0.4356   0.7167   0.6323     C
H       0.4359   0.4308   0.1025     H
H       0.4359   0.5692   0.6025     H
H       0.4577   0.0394   0.8451     H
H       0.4577   0.9606   0.3451     H
N       0.4941   0.2004   0.2089     N
N       0.4941   0.7996   0.7089     N
C       0.4983   0.3816    0.172     C
C       0.4983   0.6184    0.672     C
H       0.5143   0.1327   0.9639     H
H       0.5143   0.8673   0.4639     H
C        0.533   0.0768   0.9223     C
C        0.533   0.9232   0.4223     C
H       0.5418   0.3964   0.2936     H
H       0.5418   0.6036   0.7936     H
H       0.5572   0.3802   0.1451     H
H       0.5572   0.6198   0.6451     H
H       0.5652   0.0983   0.8606     H
H       0.5652   0.9017   0.3606     H
C       0.6277   0.0155   0.0718     C
C       0.6277   0.9845   0.5718     C
Zn      0.6664  0.14355   0.3701    Zn
Zn      0.6664  0.85645   0.8701    Zn
N       0.6763   0.0677   0.5622     N
N       0.6763   0.9323   0.0622     N
N       0.6807    0.035   0.2382     N
N       0.6807    0.965   0.7382     N
N        0.761   0.0983   0.7296     N
N        0.761   0.9017   0.2296     N
N       0.7629   0.0378   0.8348     N
N       0.7629   0.9622   0.3348     N
N       0.7957   0.3293   0.5261     N
N       0.7957   0.6707   0.0261     N
N       0.8125   0.2318   0.5207     N
N       0.8125   0.7682   0.0207     N
N       0.9023   0.3697   0.6369     N
N       0.9023   0.6303   0.1369     N
C       0.9356   0.2167   0.6323     C
C       0.9356   0.7833   0.1323     C
H       0.9359   0.0692   0.6025     H
H       0.9359   0.9308   0.1025     H
H       0.9577   0.4606   0.3451     H
H       0.9577   0.5394   0.8451     H
N       0.9941   0.2996   0.7089     N
N       0.9941   0.7004   0.2089     N
C       0.9983   0.1184    0.672     C
C       0.9983   0.8816    0.172     C
