data_I
_chemical_name_common  '/home/zhangsd/repos/MofS-CGCNN/ML/data/TSD/clean_cifs/SIVGUB_clean'
_cell_length_a 17.49300
_cell_length_b 15.09200
_cell_length_c 23.74500
_cell_angle_alpha 90.00000
_cell_angle_beta  97.06000
_cell_angle_gamma 90.00000
_space_group_name_H-M_alt      'P 1'


loop_
_space_group_symop_operation_xyz
  'x, y, z' 

loop_
_atom_site_label
_atom_site_fract_x
_atom_site_fract_y
_atom_site_fract_z
_atom_site_type_symbol
C       0.0347   0.2134   0.4533     C
C       0.0347   0.2866   0.9533     C
H       0.0448   0.0816    0.458     H
H       0.0448   0.4184    0.958     H
H        0.045    0.155    0.939     H
H        0.045    0.345    0.439     H
C       0.0452   0.7198   0.0278     C
C       0.0452   0.7802   0.5278     C
C       0.0694   0.1332   0.4486     C
C       0.0694   0.3668   0.9486     C
C       0.0697   0.2093   0.9371     C
C       0.0697   0.2907   0.4371     C
O       0.0702   0.6441   0.0127     O
O       0.0702   0.8559   0.5127     O
O       0.0773    0.711   0.5257     O
O       0.0773    0.789   0.0257     O
H       0.1018   0.0527   0.8847     H
H       0.1018   0.4473   0.3847     H
C       0.1405   0.1288   0.4299     C
C       0.1405   0.3712   0.9299     C
C        0.141   0.2135   0.9183     C
C        0.141   0.2865   0.4183     C
H       0.1427   0.0491   0.9476     H
H       0.1427   0.4509   0.4476     H
O       0.1448   0.5264    0.937     O
O       0.1448   0.9736    0.437     O
C       0.1508   0.0588   0.9084     C
C       0.1508   0.4412   0.4084     C
Zn     0.16625  0.63331  0.98219    Zn
Zn     0.16625  0.86669  0.48219    Zn
H       0.1693   0.6089   0.4335     H
H       0.1693   0.8911   0.9335     H
C       0.1753   0.2055   0.4137     C
C       0.1753   0.2945   0.9137     C
O       0.1817   0.1434   0.9019     O
O       0.1817   0.3566   0.4019     O
C       0.1834   0.0412   0.4294     C
C       0.1834   0.4588   0.9294     C
O       0.1917   0.7303    0.937     O
O       0.1917   0.7697    0.437     O
C       0.2052   0.5938   0.4093     C
C       0.2052   0.9062   0.9093     C
C       0.2091   0.5083   0.3906     C
C       0.2091   0.9917   0.8906     C
H       0.2225    0.202   0.3996     H
H       0.2225    0.298   0.8996     H
O       0.2432   0.5994  0.04255     O
O       0.2432   0.9006  0.54255     O
C       0.2482   0.7486   0.9122     C
C       0.2482   0.7514   0.4122     C
O       0.2497   0.0419   0.4188     O
O       0.2497   0.4581   0.9188     O
C       0.2541   0.6576   0.3925     C
C       0.2541   0.8424   0.8925     C
C       0.2634    0.015   0.8556     C
C       0.2634    0.485   0.3556     C
H        0.266   0.0731   0.8428     H
H        0.266   0.4269   0.3428     H
H       0.2751   0.5787   0.1453     H
H       0.2751   0.9213   0.6453     H
O       0.3005   0.6948   0.9031     O
O       0.3005   0.8052   0.4031     O
C       0.3099   0.6342   0.3581     C
C       0.3099   0.8658   0.8581     C
Zn     0.31019  0.56647   0.9103    Zn
Zn     0.31019  0.93353   0.4103    Zn
C       0.3134    0.578   0.0405     C
C       0.3134    0.922   0.5405     C
C       0.3145   0.5484   0.3394     C
C       0.3145   0.9516   0.8394     C
C       0.3262   0.5614    0.146     C
C       0.3262   0.9386    0.646     C
O       0.3315   0.5485  0.24357     O
O       0.3315   0.9515  0.74357     O
H       0.3441   0.6767   0.3478     H
H       0.3441   0.8233   0.8478     H
O       0.3448   0.5715  0.99717     O
O       0.3448   0.9285  0.49717     O
C       0.3608   0.5563   0.0953     C
C       0.3608   0.9437   0.5953     C
C       0.3694   0.5253   0.2968     C
C       0.3694   0.9747   0.7968     C
C        0.371   0.5397   0.1979     C
C        0.371   0.9603   0.6979     C
H       0.3811   0.0375   0.7982     H
H       0.3811   0.4625   0.2982     H
O       0.4008   0.5411   0.8015     O
O       0.4008   0.9589   0.3015     O
O       0.4138   0.5302  0.89596     O
O       0.4138   0.9698  0.39596     O
H       0.4171   0.5583   0.3048     H
H       0.4171   0.9417   0.8048     H
C       0.4367    0.527   0.0983     C
C       0.4367    0.973   0.5983     C
C        0.438   0.5248   0.8485     C
C        0.438   0.9752   0.3485     C
C       0.4456   0.5116   0.1996     C
C       0.4456   0.9884   0.6996     C
H       0.4594   0.5222    0.065     H
H       0.4594   0.9778    0.565     H
H       0.4743    0.003    0.734     H
H       0.4743    0.497    0.234     H
C       0.4782   0.5052   0.1482     C
C       0.4782   0.9948   0.6482     C
C       0.5218   0.0052   0.3518     C
C       0.5218   0.4948   0.8518     C
H       0.5257    0.503    0.766     H
H       0.5257    0.997    0.266     H
H       0.5406   0.0222    0.435     H
H       0.5406   0.4778    0.935     H
C       0.5544   0.0116   0.3004     C
C       0.5544   0.4884   0.8004     C
C        0.562   0.0248   0.6515     C
C        0.562   0.4752   0.1515     C
C       0.5633    0.027   0.4017     C
C       0.5633    0.473   0.9017     C
H       0.5829   0.0583   0.1952     H
H       0.5829   0.4417   0.6952     H
O       0.5862   0.0302  0.60404     O
O       0.5862   0.4698  0.10404     O
O       0.5992   0.0411   0.6985     O
O       0.5992   0.4589   0.1985     O
H       0.6189   0.5375   0.7018     H
H       0.6189   0.9625   0.2018     H
C        0.629   0.0397   0.3021     C
C        0.629   0.4603   0.8021     C
C       0.6306   0.0253   0.2032     C
C       0.6306   0.4747   0.7032     C
C       0.6392   0.0563   0.4047     C
C       0.6392   0.4437   0.9047     C
O       0.6552   0.0715  0.50283     O
O       0.6552   0.4285  0.00283     O
H       0.6559   0.1767   0.1522     H
H       0.6559   0.3233   0.6522     H
O       0.6685   0.0485  0.25643     O
O       0.6685   0.4515  0.75643     O
C       0.6738   0.0614    0.354     C
C       0.6738   0.4386    0.854     C
C       0.6855   0.0484   0.1606     C
C       0.6855   0.4516   0.6606     C
C       0.6866    0.078   0.4595     C
C       0.6866    0.422   0.9595     C
Zn     0.68981  0.06647   0.5897    Zn
Zn     0.68981  0.43353   0.0897    Zn
C       0.6901   0.1342   0.1419     C
C       0.6901   0.3658   0.6419     C
O       0.6995   0.1948   0.5969     O
O       0.6995   0.3052   0.0969     O
H       0.7249   0.0787   0.3547     H
H       0.7249   0.4213   0.8547     H
H        0.734   0.5731   0.6572     H
H        0.734   0.9269   0.1572     H
C       0.7366    0.515   0.6444     C
C       0.7366    0.985   0.1444     C
C       0.7459   0.1576   0.1075     C
C       0.7459   0.3424   0.6075     C
O       0.7503   0.5419   0.0812     O
O       0.7503   0.9581   0.5812     O
C       0.7518   0.2486   0.5878     C
C       0.7518   0.2514   0.0878     C
O       0.7568   0.0994  0.45745     O
O       0.7568   0.4006  0.95745     O
H       0.7775    0.702   0.1004     H
H       0.7775    0.798   0.6004     H
C       0.7909   0.0083   0.1094     C
C       0.7909   0.4917   0.6094     C
C       0.7948   0.0938   0.0907     C
C       0.7948   0.4062   0.5907     C
O       0.8083   0.2303    0.563     O
O       0.8083   0.2697    0.063     O
C       0.8166   0.5412   0.0706     C
C       0.8166   0.9588   0.5706     C
O       0.8183   0.6434   0.5981     O
O       0.8183   0.8566   0.0981     O
C       0.8247   0.7055   0.0863     C
C       0.8247   0.7945   0.5863     C
H       0.8307   0.1089   0.0665     H
H       0.8307   0.3911   0.5665     H
Zn     0.83375  0.13331  0.51781    Zn
Zn     0.83375  0.36669  0.01781    Zn
C       0.8492   0.5588   0.5916     C
C       0.8492   0.9412   0.0916     C
O       0.8552   0.0264    0.563     O
O       0.8552   0.4736    0.063     O
H       0.8573   0.5491   0.5524     H
H       0.8573   0.9509   0.0524     H
C        0.859   0.7135   0.5817     C
C        0.859   0.7865   0.0817     C
C       0.8595   0.6288   0.0701     C
C       0.8595   0.8712   0.5701     C
H       0.8982   0.5527   0.6153     H
H       0.8982   0.9473   0.1153     H
O       0.9227    0.211   0.9743     O
O       0.9227    0.289   0.4743     O
O       0.9298   0.1441   0.4873     O
O       0.9298   0.3559   0.9873     O
C       0.9303   0.7093   0.5629     C
C       0.9303   0.7907   0.0629     C
C       0.9306   0.6332   0.0514     C
C       0.9306   0.8668   0.5514     C
C       0.9548   0.2198   0.4722     C
C       0.9548   0.2802   0.9722     C
H        0.955    0.655    0.561     H
H        0.955    0.845    0.061     H
H       0.9552   0.5816    0.042     H
H       0.9552   0.9184    0.542     H
C       0.9653   0.7134   0.0467     C
C       0.9653   0.7866   0.5467     C
