data_I
_chemical_name_common  '/home/zhangsd/repos/MofS-CGCNN/ML/data/TSD/clean_cifs/SIVQAR_clean'
_cell_length_a 10.39000
_cell_length_b 12.29500
_cell_length_c 12.49700
_cell_angle_alpha 79.31000
_cell_angle_beta  68.20000
_cell_angle_gamma 69.58000
_space_group_name_H-M_alt      'P 1'


loop_
_space_group_symop_operation_xyz
  'x, y, z' 

loop_
_atom_site_label
_atom_site_fract_x
_atom_site_fract_y
_atom_site_fract_z
_atom_site_type_symbol
H       0.0044   0.9296   0.9389     H
C       0.0157   0.7769   0.8924     C
H       0.0246   0.6293   0.4253     H
O       0.0295   0.5785   0.6302     O
C       0.0457   0.1075   0.0825     C
Cd     0.04869  0.52707  0.81438    Cd
N       0.0492   0.2803   0.1426     N
H       0.1063   0.7367      0.9     H
H       0.1155   0.6732   0.2307     H
C       0.1221   0.6251     0.39     C
C       0.1595   0.5689   0.5841     C
O       0.1734   0.4957    0.931     O
C       0.1788   0.6495    0.273     C
O       0.1789   0.4915   0.1155     O
C       0.1807   0.2233   0.1488     C
C       0.1834   0.0474   0.0896     C
O       0.1907   0.8679   0.0407     O
C       0.2168   0.5938   0.4538     C
H        0.228   0.2624   0.1712     H
O        0.247   0.5415   0.6381     O
C       0.2503   0.1086   0.1236     C
C       0.2585    0.922   0.0632     C
S       0.2648  0.48507  0.99508     S
N       0.3173   0.6415   0.2167     N
O       0.3313   0.5779   0.9577     O
H       0.3426   0.0718   0.1293     H
C       0.3611   0.5867   0.3968     C
O       0.3703   0.3711   0.9732     O
O       0.3835   0.8766   0.0645     O
Cd     0.40038  0.69632  0.02158    Cd
C       0.4074   0.6106   0.2796     C
H       0.4261    0.566   0.4374     H
H        0.495   0.3948   0.7582     H
H        0.505   0.6052   0.2418     H
H       0.5739    0.434   0.5626     H
C       0.5926   0.3894   0.7204     C
Cd     0.59962  0.30368  0.97842    Cd
O       0.6165   0.1234   0.9355     O
O       0.6297   0.6289   0.0268     O
C       0.6389   0.4133   0.6032     C
H       0.6574   0.9282   0.8707     H
O       0.6687   0.4221   0.0423     O
N       0.6827   0.3585   0.7833     N
S       0.7352  0.51493  0.00492     S
C       0.7415    0.078   0.9368     C
C       0.7497   0.8914   0.8764     C
O        0.753   0.4585   0.3619     O
H        0.772   0.7376   0.8288     H
C       0.7832   0.4062   0.5462     C
O       0.8093   0.1321   0.9593     O
C       0.8166   0.9526   0.9104     C
C       0.8193   0.7767   0.8512     C
O       0.8211   0.5085   0.8845     O
C       0.8212   0.3505    0.727     C
O       0.8266   0.5043    0.069     O
C       0.8405   0.4311   0.4159     C
C       0.8779   0.3749     0.61     C
H       0.8845   0.3268   0.7693     H
H       0.8937   0.2633      0.1     H
N       0.9508   0.7197   0.8574     N
Cd     0.95131  0.47293  0.18562    Cd
C       0.9543   0.8925   0.9175     C
O       0.9705   0.4215   0.3698     O
H       0.9754   0.3707   0.5747     H
C       0.9843   0.2231   0.1076     C
H       0.9956   0.0704   0.0611     H
