data_I
_chemical_name_common  '/home/zhangsd/repos/MofS-CGCNN/ML/data/TSD/clean_cifs/SIWZOP01_clean'
_cell_length_a  7.89280
_cell_length_b 13.76930
_cell_length_c  7.40070
_cell_angle_alpha 90.00000
_cell_angle_beta  90.00000
_cell_angle_gamma 90.00000
_space_group_name_H-M_alt      'P 1'


loop_
_space_group_symop_operation_xyz
  'x, y, z' 

loop_
_atom_site_label
_atom_site_fract_x
_atom_site_fract_y
_atom_site_fract_z
_atom_site_type_symbol
H        0.005   0.2753   0.5022     H
O       0.0072   0.1471   0.4213     O
C       0.0104  0.76463   0.5044     C
C       0.0548  0.71542   0.9938     C
H        0.057   0.7022   0.5271     H
O      0.07053  0.83374  0.59137     O
O      0.10437  0.26952  0.10876     O
O      0.11838  0.04813  0.11935     O
O      0.13429  0.92851  0.91926     O
O      0.18908  0.71401  0.90248     O
H       0.1917   0.9853   0.4784     H
C        0.194  0.99787   0.0037     C
Mg     0.22279  0.16466  0.25959    Mg
Mg     0.27721  0.83534  0.75959    Mg
C        0.306  0.00213   0.5037     C
H       0.3083   0.0147   0.9784     H
O      0.31092  0.28599  0.40248     O
O      0.36571  0.07149  0.41926     O
O      0.38162  0.95187  0.61935     O
O      0.39563  0.73048  0.60876     O
O      0.42947  0.16626  0.09137     O
H        0.443   0.2978   0.0271     H
C       0.4452  0.28458   0.4938     C
C       0.4896  0.23537   0.0044     C
O       0.4928   0.8529   0.9213     O
H        0.495   0.7247   0.0022     H
H        0.505   0.2247   0.4978     H
O       0.5072   0.3529   0.5787     O
C       0.5104  0.73537   0.4956     C
C       0.5548  0.78458   0.0062     C
H        0.557   0.7978   0.4729     H
O      0.57053  0.66626  0.40863     O
O      0.60437  0.23048  0.89124     O
O      0.61838  0.45187  0.88065     O
O      0.63429  0.57149  0.08074     O
O      0.68908  0.78599  0.09752     O
H       0.6917   0.5147   0.5216     H
C        0.694  0.50213   0.9963     C
Mg     0.72279  0.33534  0.74041    Mg
Mg     0.77721  0.66466  0.24041    Mg
C        0.806  0.49787   0.4963     C
H       0.8083   0.4853   0.0216     H
O      0.81092  0.21401  0.59752     O
O      0.86571  0.42851  0.58074     O
O      0.88162  0.54813  0.38065     O
O      0.89563  0.76952  0.39124     O
O      0.92947  0.33374  0.90863     O
H        0.943   0.2022   0.9729     H
C       0.9452  0.21542   0.5062     C
C       0.9896  0.26463   0.9956     C
O       0.9928   0.6471   0.0787     O
H        0.995   0.7753   0.9978     H
