data_I
_chemical_name_common  '/home/zhangsd/repos/MofS-CGCNN/ML/data/TSD/clean_cifs/SIZPUN_clean'
_cell_length_a 29.70200
_cell_length_b 29.70200
_cell_length_c 29.70200
_cell_angle_alpha 60.00000
_cell_angle_beta  60.00000
_cell_angle_gamma 60.00000
_space_group_name_H-M_alt      'P 1'


loop_
_space_group_symop_operation_xyz
  'x, y, z' 

loop_
_atom_site_label
_atom_site_fract_x
_atom_site_fract_y
_atom_site_fract_z
_atom_site_type_symbol
N       0.0153   0.2243   0.2243     N
N       0.0153   0.2243   0.5361     N
N       0.0153   0.5361   0.2243     N
O       0.0269   0.1447   0.2827     O
O       0.0269   0.1447   0.5457     O
O       0.0269   0.2827   0.1447     O
O       0.0269   0.2827   0.5457     O
O       0.0269   0.5457   0.1447     O
O       0.0269   0.5457   0.2827     O
C       0.0391   0.4675   0.7467     C
C       0.0391   0.7467   0.4675     C
C       0.0391   0.7467   0.7467     C
H       0.0433   0.4771   0.6737     H
H       0.0433   0.4771   0.8059     H
H       0.0433   0.6737   0.4771     H
H       0.0433   0.6737   0.8059     H
H       0.0433   0.8059   0.4771     H
H       0.0433   0.8059   0.6737     H
C       0.0522   0.1734   0.2372     C
C       0.0522   0.1734   0.5372     C
C       0.0522   0.2372   0.1734     C
C       0.0522   0.2372   0.5372     C
C       0.0522   0.5372   0.1734     C
C       0.0522   0.5372   0.2372     C
C       0.0639   0.4747   0.6915     C
C       0.0639   0.4747   0.7699     C
C       0.0639   0.6915   0.4747     C
C       0.0639   0.6915   0.7699     C
C       0.0639   0.7699   0.4747     C
C       0.0639   0.7699   0.6915     C
C       0.1081   0.1537   0.2015     C
C       0.1081   0.1537   0.5367     C
C       0.1081   0.2015   0.1537     C
C       0.1081   0.2015   0.5367     C
C       0.1081   0.5367   0.1537     C
C       0.1081   0.5367   0.2015     C
C       0.1152   0.4786    0.659     C
C       0.1152   0.4786   0.7472     C
C       0.1152    0.659   0.4786     C
C       0.1152    0.659   0.7472     C
C       0.1152   0.7472   0.4786     C
C       0.1152   0.7472    0.659     C
O       0.1164  0.48632   0.5772     O
O       0.1164  0.48632  0.82008     O
O       0.1164   0.5772  0.48632     O
O       0.1164   0.5772  0.82008     O
O       0.1164  0.82008  0.48632     O
O       0.1164  0.82008   0.5772     O
Zn     0.13537      0.5      0.5    Zn
Zn     0.13537      0.5  0.86463    Zn
Zn     0.13537  0.86463      0.5    Zn
C       0.1387   0.4907   0.6003     C
C       0.1387   0.4907   0.7703     C
C       0.1387   0.6003   0.4907     C
C       0.1387   0.6003   0.7703     C
C       0.1387   0.7703   0.4907     C
C       0.1387   0.7703   0.6003     C
C       0.1414   0.4806    0.689     C
C       0.1414    0.689   0.4806     C
C       0.1414    0.689    0.689     C
O       0.1447   0.0269   0.2827     O
O       0.1447   0.0269   0.5457     O
O       0.1447   0.2827   0.0269     O
O       0.1447   0.2827   0.5457     O
O       0.1447   0.5457   0.0269     O
O       0.1447   0.5457   0.2827     O
C       0.1537   0.1081   0.2015     C
C       0.1537   0.1081   0.5367     C
C       0.1537   0.2015   0.1081     C
C       0.1537   0.2015   0.5367     C
C       0.1537   0.5367   0.1081     C
C       0.1537   0.5367   0.2015     C
C       0.1734   0.0522   0.2372     C
C       0.1734   0.0522   0.5372     C
C       0.1734   0.2372   0.0522     C
C       0.1734   0.2372   0.5372     C
C       0.1734   0.5372   0.0522     C
C       0.1734   0.5372   0.2372     C
H       0.1774    0.483   0.6698     H
H       0.1774   0.6698    0.483     H
H       0.1774   0.6698   0.6698     H
O      0.17992   0.4228  0.51368     O
O      0.17992   0.4228   0.8836     O
O      0.17992  0.51368   0.4228     O
O      0.17992  0.51368   0.8836     O
O      0.17992   0.8836   0.4228     O
O      0.17992   0.8836  0.51368     O
O      0.19196  0.48804  0.57644     O
O      0.19196  0.48804  0.74356     O
O      0.19196  0.57644  0.48804     O
O      0.19196  0.57644  0.74356     O
O      0.19196  0.74356  0.48804     O
O      0.19196  0.74356  0.57644     O
H       0.1941   0.3263   0.5229     H
H       0.1941   0.3263   0.9567     H
H       0.1941   0.5229   0.3263     H
H       0.1941   0.5229   0.9567     H
H       0.1941   0.9567   0.3263     H
H       0.1941   0.9567   0.5229     H
C       0.2015   0.1081   0.1537     C
C       0.2015   0.1081   0.5367     C
C       0.2015   0.1537   0.1081     C
C       0.2015   0.1537   0.5367     C
C       0.2015   0.5367   0.1081     C
C       0.2015   0.5367   0.1537     C
N       0.2243   0.0153   0.2243     N
N       0.2243   0.0153   0.5361     N
N       0.2243   0.2243   0.0153     N
N       0.2243   0.2243   0.5361     N
N       0.2243   0.5361   0.0153     N
N       0.2243   0.5361   0.2243     N
C       0.2297   0.3997   0.5093     C
C       0.2297   0.3997   0.8613     C
C       0.2297   0.5093   0.3997     C
C       0.2297   0.5093   0.8613     C
C       0.2297   0.8613   0.3997     C
C       0.2297   0.8613   0.5093     C
C       0.2301   0.3085   0.5253     C
C       0.2301   0.3085   0.9361     C
C       0.2301   0.5253   0.3085     C
C       0.2301   0.5253   0.9361     C
C       0.2301   0.9361   0.3085     C
C       0.2301   0.9361   0.5253     C
Zn     0.23698      0.5      0.5    Zn
Zn     0.23698      0.5  0.76302    Zn
Zn     0.23698  0.76302      0.5    Zn
C       0.2372   0.0522   0.1734     C
C       0.2372   0.0522   0.5372     C
C       0.2372   0.1734   0.0522     C
C       0.2372   0.1734   0.5372     C
C       0.2372   0.5372   0.0522     C
C       0.2372   0.5372   0.1734     C
C       0.2528    0.341   0.5214     C
C       0.2528    0.341   0.8848     C
C       0.2528   0.5214    0.341     C
C       0.2528   0.5214   0.8848     C
C       0.2528   0.8848    0.341     C
C       0.2528   0.8848   0.5214     C
C       0.2533   0.2533   0.5325     C
C       0.2533   0.2533   0.9609     C
C       0.2533   0.5325   0.2533     C
C       0.2533   0.5325   0.9609     C
C       0.2533   0.9609   0.2533     C
C       0.2533   0.9609   0.5325     C
O      0.25644  0.42356  0.51196     O
O      0.25644  0.42356  0.80804     O
O      0.25644  0.51196  0.42356     O
O      0.25644  0.51196  0.80804     O
O      0.25644  0.80804  0.42356     O
O      0.25644  0.80804  0.51196     O
O       0.2827   0.0269   0.1447     O
O       0.2827   0.0269   0.5457     O
O       0.2827   0.1447   0.0269     O
O       0.2827   0.1447   0.5457     O
O       0.2827   0.5457   0.0269     O
O       0.2827   0.5457   0.1447     O
C       0.3085   0.2301   0.5253     C
C       0.3085   0.2301   0.9361     C
C       0.3085   0.5253   0.2301     C
C       0.3085   0.5253   0.9361     C
C       0.3085   0.9361   0.2301     C
C       0.3085   0.9361   0.5253     C
C        0.311    0.311   0.5194     C
C        0.311    0.311   0.8586     C
C        0.311   0.5194    0.311     C
C        0.311   0.5194   0.8586     C
C        0.311   0.8586    0.311     C
C        0.311   0.8586   0.5194     C
H       0.3263   0.1941   0.5229     H
H       0.3263   0.1941   0.9567     H
H       0.3263   0.5229   0.1941     H
H       0.3263   0.5229   0.9567     H
H       0.3263   0.9567   0.1941     H
H       0.3263   0.9567   0.5229     H
H       0.3302   0.3302    0.517     H
H       0.3302   0.3302   0.8226     H
H       0.3302    0.517   0.3302     H
H       0.3302    0.517   0.8226     H
H       0.3302   0.8226   0.3302     H
H       0.3302   0.8226    0.517     H
C        0.341   0.2528   0.5214     C
C        0.341   0.2528   0.8848     C
C        0.341   0.5214   0.2528     C
C        0.341   0.5214   0.8848     C
C        0.341   0.8848   0.2528     C
C        0.341   0.8848   0.5214     C
C       0.3997   0.2297   0.5093     C
C       0.3997   0.2297   0.8613     C
C       0.3997   0.5093   0.2297     C
C       0.3997   0.5093   0.8613     C
C       0.3997   0.8613   0.2297     C
C       0.3997   0.8613   0.5093     C
O       0.4228  0.17992  0.51368     O
O       0.4228  0.17992   0.8836     O
O       0.4228  0.51368  0.17992     O
O       0.4228  0.51368   0.8836     O
O       0.4228   0.8836  0.17992     O
O       0.4228   0.8836  0.51368     O
O      0.42356  0.25644  0.51196     O
O      0.42356  0.25644  0.80804     O
O      0.42356  0.51196  0.25644     O
O      0.42356  0.51196  0.80804     O
O      0.42356  0.80804  0.25644     O
O      0.42356  0.80804  0.51196     O
O       0.4543   0.7173   0.8553     O
O       0.4543   0.7173   0.9731     O
O       0.4543   0.8553   0.7173     O
O       0.4543   0.8553   0.9731     O
O       0.4543   0.9731   0.7173     O
O       0.4543   0.9731   0.8553     O
C       0.4628   0.7628   0.8266     C
C       0.4628   0.7628   0.9478     C
C       0.4628   0.8266   0.7628     C
C       0.4628   0.8266   0.9478     C
C       0.4628   0.9478   0.7628     C
C       0.4628   0.9478   0.8266     C
C       0.4633   0.7985   0.8463     C
C       0.4633   0.7985   0.8919     C
C       0.4633   0.8463   0.7985     C
C       0.4633   0.8463   0.8919     C
C       0.4633   0.8919   0.7985     C
C       0.4633   0.8919   0.8463     C
N       0.4639   0.7757   0.7757     N
N       0.4639   0.7757   0.9847     N
N       0.4639   0.9847   0.7757     N
C       0.4675   0.0391   0.7467     C
C       0.4675   0.7467   0.0391     C
C       0.4675   0.7467   0.7467     C
C       0.4747   0.0639   0.6915     C
C       0.4747   0.0639   0.7699     C
C       0.4747   0.6915   0.0639     C
C       0.4747   0.6915   0.7699     C
C       0.4747   0.7699   0.0639     C
C       0.4747   0.7699   0.6915     C
H       0.4771   0.0433   0.6737     H
H       0.4771   0.0433   0.8059     H
H       0.4771   0.6737   0.0433     H
H       0.4771   0.6737   0.8059     H
H       0.4771   0.8059   0.0433     H
H       0.4771   0.8059   0.6737     H
C       0.4786   0.1152    0.659     C
C       0.4786   0.1152   0.7472     C
C       0.4786    0.659   0.1152     C
C       0.4786    0.659   0.7472     C
C       0.4786   0.7472   0.1152     C
C       0.4786   0.7472    0.659     C
C       0.4806   0.1414    0.689     C
C       0.4806    0.689   0.1414     C
C       0.4806    0.689    0.689     C
H        0.483   0.1774   0.6698     H
H        0.483   0.6698   0.1774     H
H        0.483   0.6698   0.6698     H
O      0.48632   0.1164   0.5772     O
O      0.48632   0.1164  0.82008     O
O      0.48632   0.5772   0.1164     O
O      0.48632   0.5772  0.82008     O
O      0.48632  0.82008   0.1164     O
O      0.48632  0.82008   0.5772     O
O      0.48804  0.19196  0.57644     O
O      0.48804  0.19196  0.74356     O
O      0.48804  0.57644  0.19196     O
O      0.48804  0.57644  0.74356     O
O      0.48804  0.74356  0.19196     O
O      0.48804  0.74356  0.57644     O
C       0.4907   0.1387   0.6003     C
C       0.4907   0.1387   0.7703     C
C       0.4907   0.6003   0.1387     C
C       0.4907   0.6003   0.7703     C
C       0.4907   0.7703   0.1387     C
C       0.4907   0.7703   0.6003     C
Zn         0.5  0.13537      0.5    Zn
Zn         0.5  0.13537  0.86463    Zn
Zn         0.5  0.23698      0.5    Zn
Zn         0.5  0.23698  0.76302    Zn
Zn         0.5      0.5  0.13537    Zn
Zn         0.5      0.5  0.23698    Zn
Zn         0.5      0.5  0.76302    Zn
Zn         0.5      0.5  0.86463    Zn
Zn         0.5  0.76302  0.23698    Zn
Zn         0.5  0.76302      0.5    Zn
Zn         0.5  0.86463  0.13537    Zn
Zn         0.5  0.86463      0.5    Zn
C       0.5093   0.2297   0.3997     C
C       0.5093   0.2297   0.8613     C
C       0.5093   0.3997   0.2297     C
C       0.5093   0.3997   0.8613     C
C       0.5093   0.8613   0.2297     C
C       0.5093   0.8613   0.3997     C
O      0.51196  0.25644  0.42356     O
O      0.51196  0.25644  0.80804     O
O      0.51196  0.42356  0.25644     O
O      0.51196  0.42356  0.80804     O
O      0.51196  0.80804  0.25644     O
O      0.51196  0.80804  0.42356     O
O      0.51368  0.17992   0.4228     O
O      0.51368  0.17992   0.8836     O
O      0.51368   0.4228  0.17992     O
O      0.51368   0.4228   0.8836     O
O      0.51368   0.8836  0.17992     O
O      0.51368   0.8836   0.4228     O
H        0.517   0.3302   0.3302     H
H        0.517   0.3302   0.8226     H
H        0.517   0.8226   0.3302     H
C       0.5194    0.311    0.311     C
C       0.5194    0.311   0.8586     C
C       0.5194   0.8586    0.311     C
C       0.5214   0.2528    0.341     C
C       0.5214   0.2528   0.8848     C
C       0.5214    0.341   0.2528     C
C       0.5214    0.341   0.8848     C
C       0.5214   0.8848   0.2528     C
C       0.5214   0.8848    0.341     C
H       0.5229   0.1941   0.3263     H
H       0.5229   0.1941   0.9567     H
H       0.5229   0.3263   0.1941     H
H       0.5229   0.3263   0.9567     H
H       0.5229   0.9567   0.1941     H
H       0.5229   0.9567   0.3263     H
C       0.5253   0.2301   0.3085     C
C       0.5253   0.2301   0.9361     C
C       0.5253   0.3085   0.2301     C
C       0.5253   0.3085   0.9361     C
C       0.5253   0.9361   0.2301     C
C       0.5253   0.9361   0.3085     C
C       0.5325   0.2533   0.2533     C
C       0.5325   0.2533   0.9609     C
C       0.5325   0.9609   0.2533     C
N       0.5361   0.0153   0.2243     N
N       0.5361   0.2243   0.0153     N
N       0.5361   0.2243   0.2243     N
C       0.5367   0.1081   0.1537     C
C       0.5367   0.1081   0.2015     C
C       0.5367   0.1537   0.1081     C
C       0.5367   0.1537   0.2015     C
C       0.5367   0.2015   0.1081     C
C       0.5367   0.2015   0.1537     C
C       0.5372   0.0522   0.1734     C
C       0.5372   0.0522   0.2372     C
C       0.5372   0.1734   0.0522     C
C       0.5372   0.1734   0.2372     C
C       0.5372   0.2372   0.0522     C
C       0.5372   0.2372   0.1734     C
O       0.5457   0.0269   0.1447     O
O       0.5457   0.0269   0.2827     O
O       0.5457   0.1447   0.0269     O
O       0.5457   0.1447   0.2827     O
O       0.5457   0.2827   0.0269     O
O       0.5457   0.2827   0.1447     O
O      0.57644  0.19196  0.48804     O
O      0.57644  0.19196  0.74356     O
O      0.57644  0.48804  0.19196     O
O      0.57644  0.48804  0.74356     O
O      0.57644  0.74356  0.19196     O
O      0.57644  0.74356  0.48804     O
O       0.5772   0.1164  0.48632     O
O       0.5772   0.1164  0.82008     O
O       0.5772  0.48632   0.1164     O
O       0.5772  0.48632  0.82008     O
O       0.5772  0.82008   0.1164     O
O       0.5772  0.82008  0.48632     O
C       0.6003   0.1387   0.4907     C
C       0.6003   0.1387   0.7703     C
C       0.6003   0.4907   0.1387     C
C       0.6003   0.4907   0.7703     C
C       0.6003   0.7703   0.1387     C
C       0.6003   0.7703   0.4907     C
C        0.659   0.1152   0.4786     C
C        0.659   0.1152   0.7472     C
C        0.659   0.4786   0.1152     C
C        0.659   0.4786   0.7472     C
C        0.659   0.7472   0.1152     C
C        0.659   0.7472   0.4786     C
H       0.6698   0.1774    0.483     H
H       0.6698   0.1774   0.6698     H
H       0.6698    0.483   0.1774     H
H       0.6698    0.483   0.6698     H
H       0.6698   0.6698   0.1774     H
H       0.6698   0.6698    0.483     H
H       0.6737   0.0433   0.4771     H
H       0.6737   0.0433   0.8059     H
H       0.6737   0.4771   0.0433     H
H       0.6737   0.4771   0.8059     H
H       0.6737   0.8059   0.0433     H
H       0.6737   0.8059   0.4771     H
C        0.689   0.1414   0.4806     C
C        0.689   0.1414    0.689     C
C        0.689   0.4806   0.1414     C
C        0.689   0.4806    0.689     C
C        0.689    0.689   0.1414     C
C        0.689    0.689   0.4806     C
C       0.6915   0.0639   0.4747     C
C       0.6915   0.0639   0.7699     C
C       0.6915   0.4747   0.0639     C
C       0.6915   0.4747   0.7699     C
C       0.6915   0.7699   0.0639     C
C       0.6915   0.7699   0.4747     C
O       0.7173   0.4543   0.8553     O
O       0.7173   0.4543   0.9731     O
O       0.7173   0.8553   0.4543     O
O       0.7173   0.8553   0.9731     O
O       0.7173   0.9731   0.4543     O
O       0.7173   0.9731   0.8553     O
O      0.74356  0.19196  0.48804     O
O      0.74356  0.19196  0.57644     O
O      0.74356  0.48804  0.19196     O
O      0.74356  0.48804  0.57644     O
O      0.74356  0.57644  0.19196     O
O      0.74356  0.57644  0.48804     O
C       0.7467   0.0391   0.4675     C
C       0.7467   0.0391   0.7467     C
C       0.7467   0.4675   0.0391     C
C       0.7467   0.4675   0.7467     C
C       0.7467   0.7467   0.0391     C
C       0.7467   0.7467   0.4675     C
C       0.7472   0.1152   0.4786     C
C       0.7472   0.1152    0.659     C
C       0.7472   0.4786   0.1152     C
C       0.7472   0.4786    0.659     C
C       0.7472    0.659   0.1152     C
C       0.7472    0.659   0.4786     C
C       0.7628   0.4628   0.8266     C
C       0.7628   0.4628   0.9478     C
C       0.7628   0.8266   0.4628     C
C       0.7628   0.8266   0.9478     C
C       0.7628   0.9478   0.4628     C
C       0.7628   0.9478   0.8266     C
Zn     0.76302  0.23698      0.5    Zn
Zn     0.76302      0.5  0.23698    Zn
Zn     0.76302      0.5      0.5    Zn
C       0.7699   0.0639   0.4747     C
C       0.7699   0.0639   0.6915     C
C       0.7699   0.4747   0.0639     C
C       0.7699   0.4747   0.6915     C
C       0.7699   0.6915   0.0639     C
C       0.7699   0.6915   0.4747     C
C       0.7703   0.1387   0.4907     C
C       0.7703   0.1387   0.6003     C
C       0.7703   0.4907   0.1387     C
C       0.7703   0.4907   0.6003     C
C       0.7703   0.6003   0.1387     C
C       0.7703   0.6003   0.4907     C
N       0.7757   0.4639   0.7757     N
N       0.7757   0.4639   0.9847     N
N       0.7757   0.7757   0.4639     N
N       0.7757   0.7757   0.9847     N
N       0.7757   0.9847   0.4639     N
N       0.7757   0.9847   0.7757     N
C       0.7985   0.4633   0.8463     C
C       0.7985   0.4633   0.8919     C
C       0.7985   0.8463   0.4633     C
C       0.7985   0.8463   0.8919     C
C       0.7985   0.8919   0.4633     C
C       0.7985   0.8919   0.8463     C
H       0.8059   0.0433   0.4771     H
H       0.8059   0.0433   0.6737     H
H       0.8059   0.4771   0.0433     H
H       0.8059   0.4771   0.6737     H
H       0.8059   0.6737   0.0433     H
H       0.8059   0.6737   0.4771     H
O      0.80804  0.25644  0.42356     O
O      0.80804  0.25644  0.51196     O
O      0.80804  0.42356  0.25644     O
O      0.80804  0.42356  0.51196     O
O      0.80804  0.51196  0.25644     O
O      0.80804  0.51196  0.42356     O
O      0.82008   0.1164  0.48632     O
O      0.82008   0.1164   0.5772     O
O      0.82008  0.48632   0.1164     O
O      0.82008  0.48632   0.5772     O
O      0.82008   0.5772   0.1164     O
O      0.82008   0.5772  0.48632     O
H       0.8226   0.3302   0.3302     H
H       0.8226   0.3302    0.517     H
H       0.8226    0.517   0.3302     H
C       0.8266   0.4628   0.7628     C
C       0.8266   0.4628   0.9478     C
C       0.8266   0.7628   0.4628     C
C       0.8266   0.7628   0.9478     C
C       0.8266   0.9478   0.4628     C
C       0.8266   0.9478   0.7628     C
C       0.8463   0.4633   0.7985     C
C       0.8463   0.4633   0.8919     C
C       0.8463   0.7985   0.4633     C
C       0.8463   0.7985   0.8919     C
C       0.8463   0.8919   0.4633     C
C       0.8463   0.8919   0.7985     C
O       0.8553   0.4543   0.7173     O
O       0.8553   0.4543   0.9731     O
O       0.8553   0.7173   0.4543     O
O       0.8553   0.7173   0.9731     O
O       0.8553   0.9731   0.4543     O
O       0.8553   0.9731   0.7173     O
C       0.8586    0.311    0.311     C
C       0.8586    0.311   0.5194     C
C       0.8586   0.5194    0.311     C
C       0.8613   0.2297   0.3997     C
C       0.8613   0.2297   0.5093     C
C       0.8613   0.3997   0.2297     C
C       0.8613   0.3997   0.5093     C
C       0.8613   0.5093   0.2297     C
C       0.8613   0.5093   0.3997     C
Zn     0.86463  0.13537      0.5    Zn
Zn     0.86463      0.5  0.13537    Zn
Zn     0.86463      0.5      0.5    Zn
O       0.8836  0.17992   0.4228     O
O       0.8836  0.17992  0.51368     O
O       0.8836   0.4228  0.17992     O
O       0.8836   0.4228  0.51368     O
O       0.8836  0.51368  0.17992     O
O       0.8836  0.51368   0.4228     O
C       0.8848   0.2528    0.341     C
C       0.8848   0.2528   0.5214     C
C       0.8848    0.341   0.2528     C
C       0.8848    0.341   0.5214     C
C       0.8848   0.5214   0.2528     C
C       0.8848   0.5214    0.341     C
C       0.8919   0.4633   0.7985     C
C       0.8919   0.4633   0.8463     C
C       0.8919   0.7985   0.4633     C
C       0.8919   0.7985   0.8463     C
C       0.8919   0.8463   0.4633     C
C       0.8919   0.8463   0.7985     C
C       0.9361   0.2301   0.3085     C
C       0.9361   0.2301   0.5253     C
C       0.9361   0.3085   0.2301     C
C       0.9361   0.3085   0.5253     C
C       0.9361   0.5253   0.2301     C
C       0.9361   0.5253   0.3085     C
C       0.9478   0.4628   0.7628     C
C       0.9478   0.4628   0.8266     C
C       0.9478   0.7628   0.4628     C
C       0.9478   0.7628   0.8266     C
C       0.9478   0.8266   0.4628     C
C       0.9478   0.8266   0.7628     C
H       0.9567   0.1941   0.3263     H
H       0.9567   0.1941   0.5229     H
H       0.9567   0.3263   0.1941     H
H       0.9567   0.3263   0.5229     H
H       0.9567   0.5229   0.1941     H
H       0.9567   0.5229   0.3263     H
C       0.9609   0.2533   0.2533     C
C       0.9609   0.2533   0.5325     C
C       0.9609   0.5325   0.2533     C
O       0.9731   0.4543   0.7173     O
O       0.9731   0.4543   0.8553     O
O       0.9731   0.7173   0.4543     O
O       0.9731   0.7173   0.8553     O
O       0.9731   0.8553   0.4543     O
O       0.9731   0.8553   0.7173     O
N       0.9847   0.4639   0.7757     N
N       0.9847   0.7757   0.4639     N
N       0.9847   0.7757   0.7757     N
