data_I
_chemical_name_common  '/home/zhangsd/repos/MofS-CGCNN/ML/data/TSD/clean_cifs/SOCWOX_clean'
_cell_length_a 13.90800
_cell_length_b  8.40900
_cell_length_c 13.04200
_cell_angle_alpha 90.00000
_cell_angle_beta  90.00000
_cell_angle_gamma 90.00000
_space_group_name_H-M_alt      'P 1'


loop_
_space_group_symop_operation_xyz
  'x, y, z' 

loop_
_atom_site_label
_atom_site_fract_x
_atom_site_fract_y
_atom_site_fract_z
_atom_site_type_symbol
H       0.0105   0.1688   0.0067     H
H       0.0105   0.8312   0.5067     H
C       0.0391   0.0636   0.9962     C
C       0.0391   0.9364   0.4962     C
H       0.0401   0.0688   0.8382     H
H       0.0401   0.9312   0.3382     H
C       0.0885   0.0586   0.8913     C
C       0.0885   0.9414   0.3913     C
C       0.1129   0.0315   0.0806     C
C       0.1129   0.9685   0.5806     C
H       0.1193   0.0441   0.3829     H
H       0.1193   0.9559   0.8829     H
O       0.1242   0.1241   0.1526     O
O       0.1242   0.8759   0.6526     O
O       0.1619   0.0942   0.5773     O
O       0.1619   0.9058   0.0773     O
C       0.1629   0.1877    0.877     C
C       0.1629   0.8123    0.377     C
O       0.1632   0.3015   0.9367     O
O       0.1632   0.6985   0.4367     O
O       0.2121   0.4617   0.2824     O
O       0.2121   0.5383   0.7824     O
O       0.2204   0.1737   0.8032     O
O       0.2204   0.8263   0.3032     O
Zn        0.25      0.0  0.20578    Zn
Zn        0.25      0.0  0.70578    Zn
Zn        0.25      0.5  0.43079    Zn
Zn        0.25      0.5  0.93079    Zn
O       0.2796   0.1737   0.3032     O
O       0.2796   0.8263   0.8032     O
O       0.2879   0.4617   0.7824     O
O       0.2879   0.5383   0.2824     O
O       0.3368   0.3015   0.4367     O
O       0.3368   0.6985   0.9367     O
C       0.3371   0.1877    0.377     C
C       0.3371   0.8123    0.877     C
O       0.3381   0.0942   0.0773     O
O       0.3381   0.9058   0.5773     O
O       0.3758   0.1241   0.6526     O
O       0.3758   0.8759   0.1526     O
H       0.3807   0.0441   0.8829     H
H       0.3807   0.9559   0.3829     H
C       0.3871   0.0315   0.5806     C
C       0.3871   0.9685   0.0806     C
C       0.4115   0.0586   0.3913     C
C       0.4115   0.9414   0.8913     C
H       0.4599   0.0688   0.3382     H
H       0.4599   0.9312   0.8382     H
C       0.4609   0.0636   0.4962     C
C       0.4609   0.9364   0.9962     C
H       0.4895   0.1688   0.5067     H
H       0.4895   0.8312   0.0067     H
H       0.5105   0.1688   0.9933     H
H       0.5105   0.8312   0.4933     H
C       0.5391   0.0636   0.0038     C
C       0.5391   0.9364   0.5038     C
H       0.5401   0.0688   0.1618     H
H       0.5401   0.9312   0.6618     H
C       0.5885   0.0586   0.1087     C
C       0.5885   0.9414   0.6087     C
C       0.6129   0.0315   0.9194     C
C       0.6129   0.9685   0.4194     C
H       0.6193   0.0441   0.6171     H
H       0.6193   0.9559   0.1171     H
O       0.6242   0.1241   0.8474     O
O       0.6242   0.8759   0.3474     O
O       0.6619   0.0942   0.4227     O
O       0.6619   0.9058   0.9227     O
C       0.6629   0.1877    0.123     C
C       0.6629   0.8123    0.623     C
O       0.6632   0.3015   0.0633     O
O       0.6632   0.6985   0.5633     O
O       0.7121   0.4617   0.7176     O
O       0.7121   0.5383   0.2176     O
O       0.7204   0.1737   0.1968     O
O       0.7204   0.8263   0.6968     O
Zn        0.75      0.0  0.29422    Zn
Zn        0.75      0.0  0.79422    Zn
Zn        0.75      0.5  0.06921    Zn
Zn        0.75      0.5  0.56921    Zn
O       0.7796   0.1737   0.6968     O
O       0.7796   0.8263   0.1968     O
O       0.7879   0.4617   0.2176     O
O       0.7879   0.5383   0.7176     O
O       0.8368   0.3015   0.5633     O
O       0.8368   0.6985   0.0633     O
C       0.8371   0.1877    0.623     C
C       0.8371   0.8123    0.123     C
O       0.8381   0.0942   0.9227     O
O       0.8381   0.9058   0.4227     O
O       0.8758   0.1241   0.3474     O
O       0.8758   0.8759   0.8474     O
H       0.8807   0.0441   0.1171     H
H       0.8807   0.9559   0.6171     H
C       0.8871   0.0315   0.4194     C
C       0.8871   0.9685   0.9194     C
C       0.9115   0.0586   0.6087     C
C       0.9115   0.9414   0.1087     C
H       0.9599   0.0688   0.6618     H
H       0.9599   0.9312   0.1618     H
C       0.9609   0.0636   0.5038     C
C       0.9609   0.9364   0.0038     C
H       0.9895   0.1688   0.4933     H
H       0.9895   0.8312   0.9933     H
