data_I
_chemical_name_common  '/home/zhangsd/repos/MofS-CGCNN/ML/data/TSD/clean_cifs/SOJKOT03_clean'
_cell_length_a  7.93410
_cell_length_b 13.86970
_cell_length_c  7.33610
_cell_angle_alpha 90.00000
_cell_angle_beta  90.00000
_cell_angle_gamma 90.00000
_space_group_name_H-M_alt      'P 1'


loop_
_space_group_symop_operation_xyz
  'x, y, z' 

loop_
_atom_site_label
_atom_site_fract_x
_atom_site_fract_y
_atom_site_fract_z
_atom_site_type_symbol
H       0.0017   0.2266   0.0006     H
O       0.0084  0.35374   0.9229     O
C       0.0111  0.73298   0.0013     C
C       0.0548  0.78524   0.4933     C
H       0.0594   0.7932   0.0212     H
O       0.0707  0.66391   0.0867     O
O       0.1072  0.22871   0.6083     O
O       0.1133  0.45227   0.6178     O
O       0.1306  0.57152   0.4185     O
O       0.1872   0.7874   0.4014     O
C       0.1917  0.50414   0.5073     C
H       0.1944    0.509   0.9903     H
Co     0.22306  0.33545  0.75887    Co
Co     0.27694  0.66455  0.25887    Co
H       0.3056    0.491   0.4903     H
C       0.3083  0.49586   0.0073     C
O       0.3128   0.2126   0.9014     O
O       0.3694  0.42848   0.9185     O
O       0.3867  0.54773   0.1178     O
O       0.3928  0.77129   0.1083     O
O       0.4293  0.33609   0.5867     O
H       0.4406   0.2068   0.5212     H
C       0.4452  0.21476   0.9933     C
C       0.4889  0.26702   0.5013     C
O       0.4916  0.64626   0.4229     O
H       0.4983   0.7734   0.5006     H
H       0.5017   0.2734   0.9994     H
O       0.5084  0.14626   0.0771     O
C       0.5111  0.76702   0.9987     C
C       0.5548  0.71476   0.5067     C
H       0.5594   0.7068   0.9788     H
O       0.5707  0.83609   0.9133     O
O       0.6072  0.27129   0.3917     O
O       0.6133  0.04773   0.3822     O
O       0.6306  0.92848   0.5815     O
O       0.6872   0.7126   0.5986     O
C       0.6917  0.99586   0.4927     C
H       0.6944    0.991   0.0097     H
Co     0.72306  0.16455  0.24113    Co
Co     0.77694  0.83545  0.74113    Co
H       0.8056    0.009   0.5097     H
C       0.8083  0.00414   0.9927     C
O       0.8128   0.2874   0.0986     O
O       0.8694  0.07152   0.0815     O
O       0.8867  0.95227   0.8822     O
O       0.8928  0.72871   0.8917     O
O       0.9293  0.16391   0.4133     O
H       0.9406   0.2932   0.4788     H
C       0.9452  0.28524   0.0067     C
C       0.9889  0.23298   0.4987     C
O       0.9916  0.85374   0.5771     O
H       0.9983   0.7266   0.4994     H
