data_I
_chemical_name_common  '/home/zhangsd/repos/MofS-CGCNN/ML/data/TSD/clean_cifs/SOJSUH_clean'
_cell_length_a 31.51700
_cell_length_b 14.88200
_cell_length_c 28.49400
_cell_angle_alpha 90.00000
_cell_angle_beta  120.19000
_cell_angle_gamma 90.00000
_space_group_name_H-M_alt      'P 1'


loop_
_space_group_symop_operation_xyz
  'x, y, z' 

loop_
_atom_site_label
_atom_site_fract_x
_atom_site_fract_y
_atom_site_fract_z
_atom_site_type_symbol
C          0.0   0.3256     0.25     C
C          0.0   0.6744     0.75     C
H       0.0005   0.3643   0.2777     H
H       0.0005   0.6357   0.7777     H
H       0.0066   0.2189   0.3279     H
H       0.0066   0.7811   0.8279     H
H       0.0167   0.1267   0.1263     H
H       0.0167   0.8733   0.6263     H
C       0.0232   0.1885   0.1903     C
C       0.0232   0.8115   0.6903     C
C       0.0347   0.1294    0.164     C
C       0.0347   0.8706    0.664     C
H       0.0391   0.4018   0.1604     H
H       0.0391   0.5982   0.6604     H
C       0.0474    0.272   0.2755     C
C       0.0474    0.728   0.7755     C
C       0.0562   0.2064   0.2471     C
C       0.0562   0.7936   0.7471     C
H       0.0628   0.4392    0.101     H
H       0.0628   0.5608    0.601     H
C       0.0712     0.42   0.1723     C
C       0.0712     0.58   0.6723     C
O      0.07431   0.3571   0.3558     O
O      0.07431   0.6429   0.8558     O
C       0.0775    0.066   0.1956     C
C       0.0775    0.934   0.6956     C
H       0.0811   0.0126    0.181     H
H       0.0811   0.9874    0.681     H
C      0.08192   0.2917   0.3278     C
C      0.08192   0.7083   0.8278     C
C       0.0861    0.443   0.1377     C
C       0.0861    0.557   0.6377     C
H        0.089   0.4027    0.356     H
H        0.089   0.5973    0.856     H
H       0.0994   0.4087   0.2551     H
H       0.0994   0.5913   0.7551     H
C          0.1   0.1543   0.2751     C
C          0.1   0.8457   0.7751     C
C       0.1075   0.0908   0.2428     C
C       0.1075    0.425   0.2291     C
C       0.1075    0.575   0.7291     C
C       0.1075   0.9092   0.7428     C
H        0.127   0.4795   0.0775     H
H        0.127   0.5205   0.5775     H
C      0.12767   0.2395   0.3577     C
C      0.12767   0.7605   0.8577     C
H       0.1281   0.3071   0.7313     H
H       0.1281   0.6929   0.2313     H
C      0.13272   0.4721   0.1503     C
C      0.13272   0.5279   0.6503     C
C       0.1338   0.1724   0.3287     C
C       0.1338   0.8276   0.8287     C
H       0.1385   0.0647   0.2586     H
H       0.1385   0.9353   0.7586     H
C       0.1452   0.2646   0.7233     C
C       0.1452   0.7354   0.2233     C
H       0.1454   0.3297   0.6649     H
H       0.1454   0.6703   0.1649     H
C       0.1485    0.492    0.114     C
C       0.1485    0.508    0.614     C
C       0.1544    0.454   0.2449     C
C       0.1544    0.546   0.7449     C
C       0.1552   0.2761   0.6841     C
C       0.1552   0.7239   0.1841     C
H        0.156   0.1731   0.7805     H
H        0.156   0.8269   0.2805     H
O      0.16113   0.3353  0.43457     O
O      0.16113   0.6647  0.93457     O
C        0.162   0.1839   0.7522     C
C        0.162   0.8161   0.2522     C
H       0.1621   0.1375    0.346     H
H       0.1621   0.8625    0.846     H
C      0.16539   0.2607   0.4131     C
C      0.16539   0.7393   0.9131     C
C      0.16897   0.4762   0.2067     C
C      0.16897   0.5238   0.7067     C
O      0.17467   0.4515  0.53539     O
O      0.17467   0.5485  0.03539     O
H       0.1763   0.2855   0.6068     H
H       0.1763   0.7145   0.1068     H
H       0.1771   0.4592   0.2818     H
H       0.1771   0.5408   0.7818     H
C      0.17958    0.214  0.66919     C
C      0.17958    0.786  0.16919     C
C       0.1874   0.1185   0.7405     C
C       0.1874   0.2316   0.6256     C
C       0.1874   0.7684   0.1256     C
C       0.1874   0.8815   0.2405     C
C      0.19323   0.4715   0.6272     C
C      0.19323   0.5285   0.1272     C
H       0.1971   0.0652   0.7602     H
H       0.1971   0.9348   0.2602     H
C      0.19817   0.1335   0.6993     C
C      0.19817   0.8665   0.1993     C
O      0.20066   0.2087  0.43746     O
O      0.20066   0.7913  0.93746     O
O      0.20322   0.2602   0.5409     O
O      0.20322   0.7398   0.0409     O
C      0.20488   0.4521  0.58647     C
C      0.20488   0.5479  0.08647     C
C       0.2111   0.1709  0.61012     C
C       0.2111   0.8291  0.11012     C
C      0.21588   0.4897  0.72236     C
C      0.21588   0.5103  0.22236     C
H       0.2171   0.0493   0.2174     H
H       0.2171   0.9507   0.7174     H
C      0.21977   0.1913  0.56505     C
C      0.21977   0.8087  0.06505     C
C      0.22447   0.0717  0.68644     C
C      0.22447   0.9283  0.18644     C
C      0.22802   0.0868  0.64105     C
C      0.22802   0.9132  0.14105     C
C       0.2285   0.4652   0.6854     C
C       0.2285   0.5348   0.1854     C
O      0.22859   0.0704  0.30124     O
O      0.22859   0.9296  0.80124     O
Gd     0.23248  0.38189  0.51219    Gd
Gd     0.23248  0.61811  0.01219    Gd
H       0.2328   0.1196    0.316     H
H       0.2328   0.8804    0.816     H
H       0.2343   0.0142   0.1093     H
H       0.2343   0.9858   0.6093     H
O      0.24117   0.1323  0.55091     O
O      0.24117   0.8677  0.05091     O
H       0.2429   0.4464   0.7996     H
H       0.2429   0.5536   0.2996     H
C      0.24455   0.0171    0.219     C
C      0.24455   0.9829    0.719     C
O      0.24693   0.4743  0.37181     O
O      0.24693   0.5257  0.87181     O
O      0.24918   0.4271   0.5989     O
O      0.24918   0.5729   0.0989     O
O      0.25082   0.0729   0.4011     O
O      0.25082   0.9271   0.9011     O
O      0.25307   0.0257  0.62819     O
O      0.25307   0.9743  0.12819     O
C      0.25545   0.4829    0.781     C
C      0.25545   0.5171    0.281     C
H       0.2571   0.0536   0.2004     H
H       0.2571   0.9464   0.7004     H
O      0.25883   0.3677  0.44909     O
O      0.25883   0.6323  0.94909     O
H       0.2657   0.4858   0.8907     H
H       0.2657   0.5142   0.3907     H
H       0.2672   0.3804    0.684     H
H       0.2672   0.6196    0.184     H
Gd     0.26752  0.11811  0.48781    Gd
Gd     0.26752  0.88189  0.98781    Gd
O      0.27141   0.4296  0.69876     O
O      0.27141   0.5704  0.19876     O
C       0.2715   0.0348   0.3146     C
C       0.2715   0.9652   0.8146     C
C      0.27198   0.4132  0.35895     C
C      0.27198   0.5868  0.85895     C
C      0.27553   0.4283  0.31356     C
C      0.27553   0.5717  0.81356     C
C      0.28023   0.3087  0.43495     C
C      0.28023   0.6913  0.93495     C
H       0.2829   0.4507   0.7826     H
H       0.2829   0.5493   0.2826     H
C      0.28412   0.0103  0.27764     C
C      0.28412   0.9897  0.77764     C
C       0.2889   0.3291  0.38988     C
C       0.2889   0.6709  0.88988     C
C      0.29512   0.0479  0.41353     C
C      0.29512   0.9521  0.91353     C
O      0.29678   0.2398   0.4591     O
O      0.29678   0.7602   0.9591     O
O      0.29934   0.2913  0.56254     O
O      0.29934   0.7087  0.06254     O
C      0.30183   0.3665   0.3007     C
C      0.30183   0.6335   0.8007     C
H       0.3029   0.4348   0.2398     H
H       0.3029   0.5652   0.7398     H
C      0.30677   0.0285   0.3728     C
C      0.30677   0.9715   0.8728     C
C       0.3126   0.2684   0.3744     C
C       0.3126   0.3815   0.2595     C
C       0.3126   0.6185   0.7595     C
C       0.3126   0.7316   0.8744     C
C      0.32042    0.286  0.33081     C
C      0.32042    0.714  0.83081     C
H       0.3229   0.0408   0.7182     H
H       0.3229   0.9592   0.2182     H
H       0.3237   0.2145   0.3932     H
H       0.3237   0.7855   0.8932     H
O      0.32533   0.0485  0.46461     O
O      0.32533   0.9515  0.96461     O
C      0.33103   0.0238   0.7933     C
C      0.33103   0.9762   0.2933     C
C      0.33461   0.2393   0.5869     C
C      0.33461   0.7607   0.0869     C
H       0.3379   0.3625    0.654     H
H       0.3379   0.6375    0.154     H
C        0.338   0.3161   0.2478     C
C        0.338   0.6839   0.7478     C
O      0.33887   0.1647  0.56543     O
O      0.33887   0.8353  0.06543     O
H        0.344   0.3269   0.2195     H
H        0.344   0.6731   0.7195     H
C       0.3448   0.2239   0.3159     C
C       0.3448   0.7761   0.8159     C
C       0.3456    0.046   0.7551     C
C       0.3456    0.954   0.2551     C
C       0.3515    0.008    0.886     C
C       0.3515    0.992    0.386     C
H       0.3546   0.1703   0.3351     H
H       0.3546   0.8297   0.8351     H
C       0.3548   0.2354   0.2767     C
C       0.3548   0.7646   0.7767     C
H       0.3615   0.4353   0.7414     H
H       0.3615   0.5647   0.2414     H
C       0.3662   0.3276   0.6713     C
C       0.3662   0.6724   0.1713     C
C      0.36728   0.0279   0.8497     C
C      0.36728   0.9721   0.3497     C
H       0.3719   0.1929   0.2687     H
H       0.3719   0.8071   0.7687     H
C      0.37233   0.2605   0.6423     C
C      0.37233   0.7395   0.1423     C
H        0.373   0.0205   0.9225     H
H        0.373   0.9795   0.4225     H
C       0.3925    0.075   0.7709     C
C       0.3925   0.4092   0.7572     C
C       0.3925   0.5908   0.2572     C
C       0.3925    0.925   0.2709     C
C          0.4   0.3457   0.7249     C
C          0.4   0.6543   0.2249     C
H       0.4006   0.0913   0.7449     H
H       0.4006   0.9087   0.2449     H
H        0.411   0.0973    0.644     H
H        0.411   0.9027    0.144     H
C       0.4139    0.057   0.8623     C
C       0.4139    0.943   0.3623     C
C      0.41808   0.2083   0.6722     C
C      0.41808   0.7917   0.1722     C
H       0.4189   0.4874    0.819     H
H       0.4189   0.5126    0.319     H
C       0.4225    0.434   0.8044     C
C       0.4225    0.566   0.3044     C
O      0.42569   0.1429   0.6442     O
O      0.42569   0.8571   0.1442     O
C       0.4288     0.08   0.8277     C
C       0.4288     0.92   0.3277     C
H       0.4372   0.0608    0.899     H
H       0.4372   0.9392    0.399     H
C       0.4438   0.2936   0.7529     C
C       0.4438   0.7064   0.2529     C
C       0.4526    0.228   0.7245     C
C       0.4526    0.772   0.2245     C
H       0.4609   0.0982   0.8396     H
H       0.4609   0.9018   0.3396     H
C       0.4653   0.3706    0.836     C
C       0.4653   0.6294    0.336     C
C       0.4768   0.3115   0.8097     C
C       0.4768   0.6885   0.3097     C
H       0.4833   0.3733   0.8737     H
H       0.4833   0.6267   0.3737     H
H       0.4934   0.2811   0.6721     H
H       0.4934   0.7189   0.1721     H
H       0.4995   0.1357   0.7223     H
H       0.4995   0.8643   0.2223     H
C          0.5   0.1744     0.75     C
C          0.5   0.8256     0.25     C
H       0.5005   0.1357   0.7777     H
H       0.5005   0.8643   0.2777     H
H       0.5066   0.2811   0.8279     H
H       0.5066   0.7189   0.3279     H
H       0.5167   0.3733   0.6263     H
H       0.5167   0.6267   0.1263     H
C       0.5232   0.3115   0.6903     C
C       0.5232   0.6885   0.1903     C
C       0.5347   0.3706    0.664     C
C       0.5347   0.6294    0.164     C
H       0.5391   0.0982   0.6604     H
H       0.5391   0.9018   0.1604     H
C       0.5474    0.228   0.7755     C
C       0.5474    0.772   0.2755     C
C       0.5562   0.2936   0.7471     C
C       0.5562   0.7064   0.2471     C
H       0.5628   0.0608    0.601     H
H       0.5628   0.9392    0.101     H
C       0.5712     0.08   0.6723     C
C       0.5712     0.92   0.1723     C
O      0.57431   0.1429   0.8558     O
O      0.57431   0.8571   0.3558     O
C       0.5775    0.434   0.6956     C
C       0.5775    0.566   0.1956     C
H       0.5811   0.4874    0.681     H
H       0.5811   0.5126    0.181     H
C      0.58192   0.2083   0.8278     C
C      0.58192   0.7917   0.3278     C
C       0.5861    0.057   0.6377     C
C       0.5861    0.943   0.1377     C
H        0.589   0.0973    0.856     H
H        0.589   0.9027    0.356     H
H       0.5994   0.0913   0.7551     H
H       0.5994   0.9087   0.2551     H
C          0.6   0.3457   0.7751     C
C          0.6   0.6543   0.2751     C
C       0.6075    0.075   0.7291     C
C       0.6075   0.4092   0.7428     C
C       0.6075   0.5908   0.2428     C
C       0.6075    0.925   0.2291     C
H        0.627   0.0205   0.5775     H
H        0.627   0.9795   0.0775     H
C      0.62767   0.2605   0.8577     C
C      0.62767   0.7395   0.3577     C
H       0.6281   0.1929   0.2313     H
H       0.6281   0.8071   0.7313     H
C      0.63272   0.0279   0.6503     C
C      0.63272   0.9721   0.1503     C
C       0.6338   0.3276   0.8287     C
C       0.6338   0.6724   0.3287     C
H       0.6385   0.4353   0.7586     H
H       0.6385   0.5647   0.2586     H
C       0.6452   0.2354   0.2233     C
C       0.6452   0.7646   0.7233     C
H       0.6454   0.1703   0.1649     H
H       0.6454   0.8297   0.6649     H
C       0.6485    0.008    0.614     C
C       0.6485    0.992    0.114     C
C       0.6544    0.046   0.7449     C
C       0.6544    0.954   0.2449     C
C       0.6552   0.2239   0.1841     C
C       0.6552   0.7761   0.6841     C
H        0.656   0.3269   0.2805     H
H        0.656   0.6731   0.7805     H
O      0.66113   0.1647  0.93457     O
O      0.66113   0.8353  0.43457     O
C        0.662   0.3161   0.2522     C
C        0.662   0.6839   0.7522     C
H       0.6621   0.3625    0.846     H
H       0.6621   0.6375    0.346     H
C      0.66539   0.2393   0.9131     C
C      0.66539   0.7607   0.4131     C
C      0.66897   0.0238   0.7067     C
C      0.66897   0.9762   0.2067     C
O      0.67467   0.0485  0.03539     O
O      0.67467   0.9515  0.53539     O
H       0.6763   0.2145   0.1068     H
H       0.6763   0.7855   0.6068     H
H       0.6771   0.0408   0.7818     H
H       0.6771   0.9592   0.2818     H
C      0.67958    0.286  0.16919     C
C      0.67958    0.714  0.66919     C
C       0.6874   0.2684   0.1256     C
C       0.6874   0.3815   0.2405     C
C       0.6874   0.6185   0.7405     C
C       0.6874   0.7316   0.6256     C
C      0.69323   0.0285   0.1272     C
C      0.69323   0.9715   0.6272     C
H       0.6971   0.4348   0.2602     H
H       0.6971   0.5652   0.7602     H
C      0.69817   0.3665   0.1993     C
C      0.69817   0.6335   0.6993     C
O      0.70066   0.2913  0.93746     O
O      0.70066   0.7087  0.43746     O
O      0.70322   0.2398   0.0409     O
O      0.70322   0.7602   0.5409     O
C      0.70488   0.0479  0.08647     C
C      0.70488   0.9521  0.58647     C
C       0.7111   0.3291  0.11012     C
C       0.7111   0.6709  0.61012     C
C      0.71588   0.0103  0.22236     C
C      0.71588   0.9897  0.72236     C
H       0.7171   0.4507   0.7174     H
H       0.7171   0.5493   0.2174     H
C      0.71977   0.3087  0.06505     C
C      0.71977   0.6913  0.56505     C
C      0.72447   0.4283  0.18644     C
C      0.72447   0.5717  0.68644     C
C      0.72802   0.4132  0.14105     C
C      0.72802   0.5868  0.64105     C
C       0.7285   0.0348   0.1854     C
C       0.7285   0.9652   0.6854     C
O      0.72859   0.4296  0.80124     O
O      0.72859   0.5704  0.30124     O
Gd     0.73248  0.11811  0.01219    Gd
Gd     0.73248  0.88189  0.51219    Gd
H       0.7328   0.3804    0.816     H
H       0.7328   0.6196    0.316     H
H       0.7343   0.4858   0.6093     H
H       0.7343   0.5142   0.1093     H
O      0.74117   0.3677  0.05091     O
O      0.74117   0.6323  0.55091     O
H       0.7429   0.0536   0.2996     H
H       0.7429   0.9464   0.7996     H
C      0.74455   0.4829    0.719     C
C      0.74455   0.5171    0.219     C
O      0.74693   0.0257  0.87181     O
O      0.74693   0.9743  0.37181     O
O      0.74918   0.0729   0.0989     O
O      0.74918   0.9271   0.5989     O
O      0.75082   0.4271   0.9011     O
O      0.75082   0.5729   0.4011     O
O      0.75307   0.4743  0.12819     O
O      0.75307   0.5257  0.62819     O
C      0.75545   0.0171    0.281     C
C      0.75545   0.9829    0.781     C
H       0.7571   0.4464   0.7004     H
H       0.7571   0.5536   0.2004     H
O      0.75883   0.1323  0.94909     O
O      0.75883   0.8677  0.44909     O
H       0.7657   0.0142   0.3907     H
H       0.7657   0.9858   0.8907     H
H       0.7672   0.1196    0.184     H
H       0.7672   0.8804    0.684     H
Gd     0.76751  0.38189  0.98781    Gd
Gd     0.76751  0.61811  0.48781    Gd
O      0.77141   0.0704  0.19876     O
O      0.77141   0.9296  0.69876     O
C       0.7715   0.4652   0.8146     C
C       0.7715   0.5348   0.3146     C
C      0.77198   0.0868  0.85895     C
C      0.77198   0.9132  0.35895     C
C      0.77553   0.0717  0.81356     C
C      0.77553   0.9283  0.31356     C
C      0.78023   0.1913  0.93495     C
C      0.78023   0.8087  0.43495     C
H       0.7829   0.0493   0.2826     H
H       0.7829   0.9507   0.7826     H
C      0.78412   0.4897  0.77764     C
C      0.78412   0.5103  0.27764     C
C       0.7889   0.1709  0.88988     C
C       0.7889   0.8291  0.38988     C
C      0.79512   0.4521  0.91353     C
C      0.79512   0.5479  0.41353     C
O      0.79678   0.2602   0.9591     O
O      0.79678   0.7398   0.4591     O
O      0.79934   0.2087  0.06254     O
O      0.79934   0.7913  0.56254     O
C      0.80183   0.1335   0.8007     C
C      0.80183   0.8665   0.3007     C
H       0.8029   0.0652   0.7398     H
H       0.8029   0.9348   0.2398     H
C      0.80677   0.4715   0.8728     C
C      0.80677   0.5285   0.3728     C
C       0.8126   0.1185   0.7595     C
C       0.8126   0.2316   0.8744     C
C       0.8126   0.7684   0.3744     C
C       0.8126   0.8815   0.2595     C
C      0.82042    0.214  0.83081     C
C      0.82042    0.786  0.33081     C
H       0.8229   0.4592   0.2182     H
H       0.8229   0.5408   0.7182     H
H       0.8237   0.2855   0.8932     H
H       0.8237   0.7145   0.3932     H
O      0.82533   0.4515  0.96461     O
O      0.82533   0.5485  0.46461     O
C      0.83103   0.4762   0.2933     C
C      0.83103   0.5238   0.7933     C
C      0.83461   0.2607   0.0869     C
C      0.83461   0.7393   0.5869     C
H       0.8379   0.1375    0.154     H
H       0.8379   0.8625    0.654     H
C        0.838   0.1839   0.7478     C
C        0.838   0.8161   0.2478     C
O      0.83887   0.3353  0.06543     O
O      0.83887   0.6647  0.56543     O
H        0.844   0.1731   0.7195     H
H        0.844   0.8269   0.2195     H
C       0.8448   0.2761   0.8159     C
C       0.8448   0.7239   0.3159     C
C       0.8456    0.454   0.2551     C
C       0.8456    0.546   0.7551     C
C       0.8515    0.492    0.386     C
C       0.8515    0.508    0.886     C
H       0.8546   0.3297   0.8351     H
H       0.8546   0.6703   0.3351     H
C       0.8548   0.2646   0.7767     C
C       0.8548   0.7354   0.2767     C
H       0.8615   0.0647   0.2414     H
H       0.8615   0.9353   0.7414     H
C       0.8662   0.1724   0.1713     C
C       0.8662   0.8276   0.6713     C
C      0.86728   0.4721   0.3497     C
C      0.86728   0.5279   0.8497     C
H       0.8719   0.3071   0.7687     H
H       0.8719   0.6929   0.2687     H
C      0.87233   0.2395   0.1423     C
C      0.87233   0.7605   0.6423     C
H        0.873   0.4795   0.4225     H
H        0.873   0.5205   0.9225     H
C       0.8925   0.0908   0.2572     C
C       0.8925    0.425   0.2709     C
C       0.8925    0.575   0.7709     C
C       0.8925   0.9092   0.7572     C
C          0.9   0.1543   0.2249     C
C          0.9   0.8457   0.7249     C
H       0.9006   0.4087   0.2449     H
H       0.9006   0.5913   0.7449     H
H        0.911   0.4027    0.144     H
H        0.911   0.5973    0.644     H
C       0.9139    0.443   0.3623     C
C       0.9139    0.557   0.8623     C
C      0.91808   0.2917   0.1722     C
C      0.91808   0.7083   0.6722     C
H       0.9189   0.0126    0.319     H
H       0.9189   0.9874    0.819     H
C       0.9225    0.066   0.3044     C
C       0.9225    0.934   0.8044     C
O      0.92569   0.3571   0.1442     O
O      0.92569   0.6429   0.6442     O
C       0.9288     0.42   0.3277     C
C       0.9288     0.58   0.8277     C
H       0.9372   0.4392    0.399     H
H       0.9372   0.5608    0.899     H
C       0.9438   0.2064   0.2529     C
C       0.9438   0.7936   0.7529     C
C       0.9526    0.272   0.2245     C
C       0.9526    0.728   0.7245     C
H       0.9609   0.4018   0.3396     H
H       0.9609   0.5982   0.8396     H
C       0.9653   0.1294    0.336     C
C       0.9653   0.8706    0.836     C
C       0.9768   0.1885   0.3097     C
C       0.9768   0.8115   0.8097     C
H       0.9833   0.1267   0.3737     H
H       0.9833   0.8733   0.8737     H
H       0.9934   0.2189   0.1721     H
H       0.9934   0.7811   0.6721     H
H       0.9995   0.3643   0.2223     H
H       0.9995   0.6357   0.7223     H
