data_I
_chemical_name_common  '/home/zhangsd/repos/MofS-CGCNN/ML/data/TSD/clean_cifs/SOJTOC_clean'
_cell_length_a 15.43700
_cell_length_b 15.98500
_cell_length_c 16.47500
_cell_angle_alpha 90.00000
_cell_angle_beta  90.14500
_cell_angle_gamma 90.00000
_space_group_name_H-M_alt      'P 1'


loop_
_space_group_symop_operation_xyz
  'x, y, z' 

loop_
_atom_site_label
_atom_site_fract_x
_atom_site_fract_y
_atom_site_fract_z
_atom_site_type_symbol
Zn         0.0  0.03132     0.25    Zn
Zn         0.0  0.96868     0.75    Zn
H       0.0002   0.3701   0.3702     H
H       0.0002   0.6299   0.8702     H
C       0.0015   0.3816   0.9794     C
C       0.0015   0.6184   0.4794     C
H       0.0096   0.4249   0.4806     H
H       0.0096   0.5751   0.9806     H
H       0.0134   0.4046   0.5733     H
H       0.0134   0.5954   0.0733     H
H       0.0174   0.2704   0.8524     H
H       0.0174   0.7296   0.3524     H
K      0.03422  0.12756  0.04738     K
K      0.03422  0.87244  0.54738     K
O       0.0416   0.0441   0.5903     O
O       0.0416   0.9559   0.0903     O
C       0.0445   0.2662   0.6514     C
C       0.0445   0.7338   0.1514     C
H       0.0553   0.3171   0.3091     H
H       0.0553   0.6829   0.8091     H
C       0.0571   0.3495   0.3582     C
C       0.0571   0.6505   0.8582     C
C       0.0581   0.3104   0.5039     C
C       0.0581   0.6896   0.0039     C
H       0.0597   0.2186   0.6839     H
H       0.0597   0.7814   0.1839     H
H       0.0673    0.316   0.6761     H
H       0.0673    0.684   0.1761     H
O       0.0685   0.1087   0.3175     O
O       0.0685   0.8913   0.8175     O
C       0.0823   0.2563   0.5674     C
C       0.0823   0.7437   0.0674     C
C       0.0882   0.2956   0.4267     C
C       0.0882   0.7044   0.9267     C
C       0.0911   0.0695   0.6412     C
C       0.0911   0.9305   0.1412     C
O       0.0912   0.0466   0.7163     O
O       0.0912   0.9534   0.2163     O
H        0.096   0.3958   0.3513     H
H        0.096   0.6042   0.8513     H
C       0.0977   0.3631     0.98     C
C       0.0977   0.6369     0.48     C
C        0.121   0.1529   0.2773     C
C        0.121   0.8471   0.7773     C
O       0.1224   0.2918    0.002     O
O       0.1224   0.7082    0.502     O
O       0.1303   0.1489   0.2028     O
O       0.1303   0.8511   0.7028     O
C       0.1384   0.1898   0.5516     C
C       0.1384   0.8102   0.0516     C
C       0.1451   0.2301   0.4105     C
C       0.1451   0.7699   0.9105     C
O       0.1461   0.4215   0.9602     O
O       0.1461   0.5785   0.4602     O
C       0.1618   0.1319   0.6214     C
C       0.1618   0.8681   0.1214     C
C       0.1707   0.1751   0.4745     C
C       0.1707   0.8249   0.9745     C
H       0.1739   0.1654   0.6692     H
H       0.1739   0.8346   0.1692     H
C       0.1777   0.2134   0.3246     C
C       0.1777   0.7866   0.8246     C
H       0.1804   0.2661   0.2953     H
H       0.1804   0.7339   0.7953     H
O       0.2025   0.1243   0.9909     O
O       0.2025   0.8757   0.4909     O
H       0.2081   0.0755   0.4059     H
H       0.2081   0.9245   0.9059     H
H       0.2143   0.1017   0.6076     H
H       0.2143   0.8983   0.1076     H
H       0.2144   0.3832   0.5473     H
H       0.2144   0.6168   0.0473     H
H       0.2199   0.0596   0.4992     H
H       0.2199   0.9404   0.9992     H
C       0.2261      0.1   0.4565     C
C       0.2261      0.9   0.9565     C
H        0.236    0.191   0.3276     H
H        0.236    0.809   0.8276     H
Zn        0.25     0.25      0.0    Zn
Zn        0.25     0.75      0.5    Zn
H        0.264    0.309   0.6724     H
H        0.264    0.691   0.1724     H
C       0.2739      0.4   0.5435     C
C       0.2739      0.6   0.0435     C
H       0.2801   0.4404   0.5008     H
H       0.2801   0.5596   0.0008     H
H       0.2856   0.1168   0.4527     H
H       0.2856   0.8832   0.9527     H
H       0.2857   0.3983   0.3924     H
H       0.2857   0.6017   0.8924     H
H       0.2919   0.4245   0.5941     H
H       0.2919   0.5755   0.0941     H
O       0.2975   0.3757   0.0091     O
O       0.2975   0.6243   0.5091     O
H       0.3196   0.2339   0.7047     H
H       0.3196   0.7661   0.2047     H
C       0.3223   0.2866   0.6754     C
C       0.3223   0.7134   0.1754     C
H       0.3261   0.3346   0.3308     H
H       0.3261   0.6654   0.8308     H
C       0.3293   0.3249   0.5255     C
C       0.3293   0.6751   0.0255     C
C       0.3382   0.3681   0.3786     C
C       0.3382   0.6319   0.8786     C
O       0.3539   0.0785   0.0398     O
O       0.3539   0.9215   0.5398     O
C       0.3549   0.2699   0.5895     C
C       0.3549   0.7301   0.0895     C
C       0.3616   0.3102   0.4484     C
C       0.3616   0.6898   0.9484     C
O       0.3697   0.3511   0.7972     O
O       0.3697   0.6489   0.2972     O
O       0.3776   0.2082    0.998     O
O       0.3776   0.7918    0.498     O
C        0.379   0.3471   0.7227     C
C        0.379   0.6529   0.2227     C
C       0.4023   0.1369     0.02     C
C       0.4023   0.8631     0.52     C
H        0.404   0.1042   0.6487     H
H        0.404   0.8958   0.1487     H
O       0.4088   0.4534   0.2837     O
O       0.4088   0.5466   0.7837     O
C       0.4089   0.4305   0.3588     C
C       0.4089   0.5695   0.8588     C
C       0.4118   0.2044   0.5733     C
C       0.4118   0.7956   0.0733     C
C       0.4177   0.2437   0.4326     C
C       0.4177   0.7563   0.9326     C
O       0.4315   0.3913   0.6825     O
O       0.4315   0.6087   0.1825     O
H       0.4327    0.184   0.3239     H
H       0.4327    0.816   0.8239     H
H       0.4403   0.2814   0.3161     H
H       0.4403   0.7186   0.8161     H
C       0.4419   0.1896   0.4961     C
C       0.4419   0.8104   0.9961     C
C       0.4429   0.1505   0.6418     C
C       0.4429   0.8495   0.1418     C
H       0.4447   0.1829   0.6909     H
H       0.4447   0.8171   0.1909     H
C       0.4555   0.2338   0.3486     C
C       0.4555   0.7662   0.8486     C
O       0.4584   0.4559   0.4097     O
O       0.4584   0.5441   0.9097     O
K      0.46578  0.37244  0.95262     K
K      0.46578  0.62756  0.45262     K
H       0.4826   0.2296   0.1476     H
H       0.4826   0.7704   0.6476     H
H       0.4866   0.0954   0.4267     H
H       0.4866   0.9046   0.9267     H
H       0.4904   0.0751   0.5194     H
H       0.4904   0.9249   0.0194     H
C       0.4985   0.1184   0.0206     C
C       0.4985   0.8816   0.5206     C
H       0.4998   0.1299   0.6298     H
H       0.4998   0.8701   0.1298     H
Zn         0.5  0.46868     0.75    Zn
Zn         0.5  0.53132     0.25    Zn
H       0.5002   0.1299   0.8702     H
H       0.5002   0.8701   0.3702     H
C       0.5015   0.1184   0.4794     C
C       0.5015   0.8816   0.9794     C
H       0.5096   0.0751   0.9806     H
H       0.5096   0.9249   0.4806     H
H       0.5134   0.0954   0.0733     H
H       0.5134   0.9046   0.5733     H
H       0.5174   0.2296   0.3524     H
H       0.5174   0.7704   0.8524     H
K      0.53422  0.37244  0.54738     K
K      0.53422  0.62756  0.04738     K
O       0.5416   0.4559   0.0903     O
O       0.5416   0.5441   0.5903     O
C       0.5445   0.2338   0.1514     C
C       0.5445   0.7662   0.6514     C
H       0.5553   0.1829   0.8091     H
H       0.5553   0.8171   0.3091     H
C       0.5571   0.1505   0.8582     C
C       0.5571   0.8495   0.3582     C
C       0.5581   0.1896   0.0039     C
C       0.5581   0.8104   0.5039     C
H       0.5597   0.2814   0.1839     H
H       0.5597   0.7186   0.6839     H
H       0.5673    0.184   0.1761     H
H       0.5673    0.816   0.6761     H
O       0.5685   0.3913   0.8175     O
O       0.5685   0.6087   0.3175     O
C       0.5823   0.2437   0.0674     C
C       0.5823   0.7563   0.5674     C
C       0.5882   0.2044   0.9267     C
C       0.5882   0.7956   0.4267     C
C       0.5911   0.4305   0.1412     C
C       0.5911   0.5695   0.6412     C
O       0.5912   0.4534   0.2163     O
O       0.5912   0.5466   0.7163     O
H        0.596   0.1042   0.8513     H
H        0.596   0.8958   0.3513     H
C       0.5977   0.1369     0.48     C
C       0.5977   0.8631     0.98     C
C        0.621   0.3471   0.7773     C
C        0.621   0.6529   0.2773     C
O       0.6224   0.2082    0.502     O
O       0.6224   0.7918    0.002     O
O       0.6303   0.3511   0.7028     O
O       0.6303   0.6489   0.2028     O
C       0.6384   0.3102   0.0516     C
C       0.6384   0.6898   0.5516     C
C       0.6451   0.2699   0.9105     C
C       0.6451   0.7301   0.4105     C
O       0.6461   0.0785   0.4602     O
O       0.6461   0.9215   0.9602     O
C       0.6618   0.3681   0.1214     C
C       0.6618   0.6319   0.6214     C
C       0.6707   0.3249   0.9745     C
C       0.6707   0.6751   0.4745     C
H       0.6739   0.3346   0.1692     H
H       0.6739   0.6654   0.6692     H
C       0.6777   0.2866   0.8246     C
C       0.6777   0.7134   0.3246     C
H       0.6804   0.2339   0.7953     H
H       0.6804   0.7661   0.2953     H
O       0.7025   0.3757   0.4909     O
O       0.7025   0.6243   0.9909     O
H       0.7081   0.4245   0.9059     H
H       0.7081   0.5755   0.4059     H
H       0.7143   0.3983   0.1076     H
H       0.7143   0.6017   0.6076     H
H       0.7144   0.1168   0.0473     H
H       0.7144   0.8832   0.5473     H
H       0.7199   0.4404   0.9992     H
H       0.7199   0.5596   0.4992     H
C       0.7261      0.4   0.9565     C
C       0.7261      0.6   0.4565     C
H        0.736    0.309   0.8276     H
H        0.736    0.691   0.3276     H
Zn        0.75     0.25      0.5    Zn
Zn        0.75     0.75      0.0    Zn
H        0.764    0.191   0.1724     H
H        0.764    0.809   0.6724     H
C       0.7739      0.1   0.0435     C
C       0.7739      0.9   0.5435     C
H       0.7801   0.0596   0.0008     H
H       0.7801   0.9404   0.5008     H
H       0.7856   0.3832   0.9527     H
H       0.7856   0.6168   0.4527     H
H       0.7857   0.1017   0.8924     H
H       0.7857   0.8983   0.3924     H
H       0.7919   0.0755   0.0941     H
H       0.7919   0.9245   0.5941     H
O       0.7975   0.1243   0.5091     O
O       0.7975   0.8757   0.0091     O
H       0.8196   0.2661   0.2047     H
H       0.8196   0.7339   0.7047     H
C       0.8223   0.2134   0.1754     C
C       0.8223   0.7866   0.6754     C
H       0.8261   0.1654   0.8308     H
H       0.8261   0.8346   0.3308     H
C       0.8293   0.1751   0.0255     C
C       0.8293   0.8249   0.5255     C
C       0.8382   0.1319   0.8786     C
C       0.8382   0.8681   0.3786     C
O       0.8539   0.4215   0.5398     O
O       0.8539   0.5785   0.0398     O
C       0.8549   0.2301   0.0895     C
C       0.8549   0.7699   0.5895     C
C       0.8616   0.1898   0.9484     C
C       0.8616   0.8102   0.4484     C
O       0.8697   0.1489   0.2972     O
O       0.8697   0.8511   0.7972     O
O       0.8776   0.2918    0.498     O
O       0.8776   0.7082    0.998     O
C        0.879   0.1529   0.2227     C
C        0.879   0.8471   0.7227     C
C       0.9023   0.3631     0.52     C
C       0.9023   0.6369     0.02     C
H        0.904   0.3958   0.1487     H
H        0.904   0.6042   0.6487     H
O       0.9088   0.0466   0.7837     O
O       0.9088   0.9534   0.2837     O
C       0.9089   0.0695   0.8588     C
C       0.9089   0.9305   0.3588     C
C       0.9118   0.2956   0.0733     C
C       0.9118   0.7044   0.5733     C
C       0.9177   0.2563   0.9326     C
C       0.9177   0.7437   0.4326     C
O       0.9315   0.1087   0.1825     O
O       0.9315   0.8913   0.6825     O
H       0.9327    0.316   0.8239     H
H       0.9327    0.684   0.3239     H
H       0.9403   0.2186   0.8161     H
H       0.9403   0.7814   0.3161     H
C       0.9419   0.3104   0.9961     C
C       0.9419   0.6896   0.4961     C
C       0.9429   0.3495   0.1418     C
C       0.9429   0.6505   0.6418     C
H       0.9447   0.3171   0.1909     H
H       0.9447   0.6829   0.6909     H
C       0.9555   0.2662   0.8486     C
C       0.9555   0.7338   0.3486     C
O       0.9584   0.0441   0.9097     O
O       0.9584   0.9559   0.4097     O
K      0.96578  0.12756  0.45262     K
K      0.96578  0.87244  0.95262     K
H       0.9826   0.2704   0.6476     H
H       0.9826   0.7296   0.1476     H
H       0.9866   0.4046   0.9267     H
H       0.9866   0.5954   0.4267     H
H       0.9904   0.4249   0.0194     H
H       0.9904   0.5751   0.5194     H
C       0.9985   0.3816   0.5206     C
C       0.9985   0.6184   0.0206     C
H       0.9998   0.3701   0.1298     H
H       0.9998   0.6299   0.6298     H
