data_I
_chemical_name_common  '/home/zhangsd/repos/MofS-CGCNN/ML/data/TSD/clean_cifs/SOQJOZ_clean'
_cell_length_a 12.38900
_cell_length_b 14.92300
_cell_length_c  9.38600
_cell_angle_alpha 90.00000
_cell_angle_beta  98.69900
_cell_angle_gamma 90.00000
_space_group_name_H-M_alt      'P 1'


loop_
_space_group_symop_operation_xyz
  'x, y, z' 

loop_
_atom_site_label
_atom_site_fract_x
_atom_site_fract_y
_atom_site_fract_z
_atom_site_type_symbol
Al     0.05654  0.66957   0.5604    Al
Al     0.05654  0.83043   0.0604    Al
O       0.0606   0.6774   0.3761     O
O       0.0606   0.8226   0.8761     O
O       0.0761   0.1563   0.9091     O
O       0.0761   0.3437   0.4091     O
O       0.1126    0.734   0.1473     O
O       0.1126    0.766   0.6473     O
O       0.1295   0.5768   0.6338     O
O       0.1295   0.9232   0.1338     O
P      0.15605  0.68447   0.2872     P
P      0.15605  0.81553   0.7872     P
O         0.19   0.2406   0.2841     O
O         0.19   0.2594   0.7841     O
O        0.193    0.592   0.2495     O
O        0.193    0.908   0.7495     O
P      0.19303   0.1732   0.8767     P
P      0.19303   0.3268   0.3767     P
O       0.2239   0.0608   0.2241     O
O       0.2239   0.4392   0.7241     O
O       0.2306   0.0941   0.7976     O
O       0.2306   0.4059   0.2976     O
O       0.2446   0.7387   0.3787     O
O       0.2446   0.7613   0.8787     O
P      0.24592   0.5351   0.6722     P
P      0.24592   0.9649   0.1722     P
O       0.2681   0.1928   0.0202     O
O       0.2681   0.3072   0.5202     O
Al     0.27376  0.16899   0.2035    Al
Al     0.27376  0.33101   0.7035    Al
O       0.3029   0.5848   0.8057     O
O       0.3029   0.9152   0.3057     O
O       0.3113   0.5371   0.5503     O
O       0.3113   0.9629   0.0503     O
Mg      0.3233  0.51529   0.3414    Mg
Mg      0.3233  0.98471   0.8414    Mg
Al     0.35496   0.6884   0.8738    Al
Al     0.35496   0.8116   0.3738    Al
O       0.4074   0.1766   0.2914     O
O       0.4074   0.3234   0.7914     O
O       0.4194   0.6684   0.0459     O
O       0.4194   0.8316   0.5459     O
O       0.4318   0.6022   0.2924     O
O       0.4318   0.8978   0.7924     O
O       0.4391   0.7307   0.7568     O
O       0.4391   0.7693   0.2568     O
P      0.47001    0.676   0.2035     P
P      0.47001    0.824   0.7035     P
P      0.52999    0.176   0.2965     P
P      0.52999    0.324   0.7965     P
O       0.5609   0.2307   0.7432     O
O       0.5609   0.2693   0.2432     O
O       0.5682   0.1022   0.2076     O
O       0.5682   0.3978   0.7076     O
O       0.5806   0.1684   0.4541     O
O       0.5806   0.3316   0.9541     O
O       0.5926   0.6766   0.2086     O
O       0.5926   0.8234   0.7086     O
Al     0.64504   0.1884   0.6262    Al
Al     0.64504   0.3116   0.1262    Al
Mg      0.6767  0.01529   0.1586    Mg
Mg      0.6767  0.48471   0.6586    Mg
O       0.6887   0.0371   0.9497     O
O       0.6887   0.4629   0.4497     O
O       0.6971   0.0848   0.6943     O
O       0.6971   0.4152   0.1943     O
Al     0.72624  0.66899   0.2965    Al
Al     0.72624  0.83101   0.7965    Al
O       0.7319   0.6928   0.4798     O
O       0.7319   0.8072   0.9798     O
P      0.75408   0.0351   0.8278     P
P      0.75408   0.4649   0.3278     P
O       0.7554   0.2387   0.1213     O
O       0.7554   0.2613   0.6213     O
O       0.7694   0.5941   0.7024     O
O       0.7694   0.9059   0.2024     O
O       0.7761   0.5608   0.2759     O
O       0.7761   0.9392   0.7759     O
P      0.80697   0.6732   0.6233     P
P      0.80697   0.8268   0.1233     P
O        0.807    0.092   0.2505     O
O        0.807    0.408   0.7505     O
O         0.81   0.7406   0.2159     O
O         0.81   0.7594   0.7159     O
P      0.84395  0.18447   0.2128     P
P      0.84395  0.31553   0.7128     P
O       0.8705   0.0768   0.8662     O
O       0.8705   0.4232   0.3662     O
O       0.8874    0.234   0.3527     O
O       0.8874    0.266   0.8527     O
O       0.9239   0.6563   0.5909     O
O       0.9239   0.8437   0.0909     O
O       0.9394   0.1774   0.1239     O
O       0.9394   0.3226   0.6239     O
Al     0.94346  0.16957   0.9396    Al
Al     0.94346  0.33043   0.4396    Al
