data_I
_chemical_name_common  '/home/zhangsd/repos/MofS-CGCNN/ML/data/TSD/clean_cifs/SOXDEQ_clean'
_cell_length_a 10.71170
_cell_length_b 12.46870
_cell_length_c 12.46870
_cell_angle_alpha 91.59970
_cell_angle_beta  113.84200
_cell_angle_gamma 113.84200
_space_group_name_H-M_alt      'P 1'


loop_
_space_group_symop_operation_xyz
  'x, y, z' 

loop_
_atom_site_label
_atom_site_fract_x
_atom_site_fract_y
_atom_site_fract_z
_atom_site_type_symbol
Co         0.0      0.0      0.0    Co
Co         0.0      0.0      0.5    Co
Tb         0.0  0.20882  0.79118    Tb
Co         0.0      0.5     -0.0    Co
Tb         0.0  0.79118  0.20882    Tb
O       0.0127     0.02   0.6744     O
O       0.0127   0.6744     0.02     O
O       0.0615   0.0467   0.8627     O
O       0.0615   0.8627   0.0467     O
O       0.0736   0.4075   0.7867     O
O       0.0736   0.7867   0.4075     O
C       0.0759   0.0052   0.7782     C
C       0.0759   0.7782   0.0052     C
H        0.112   0.7432   0.8602     H
H        0.112   0.8602   0.7432     H
O       0.1692   0.5552    0.947     O
O       0.1692    0.947   0.5552     O
C       0.1743   0.7993   0.9383     C
C       0.1743   0.9383   0.7993     C
C        0.175   0.5077   0.8607     C
C        0.175   0.8607   0.5077     C
N       0.2377   0.9203   0.9203     N
O       0.2419   0.2624   0.7848     O
O       0.2419   0.7848   0.2624     O
H       0.2581   0.7807   0.9833     H
H       0.2581   0.9833   0.7807     H
O       0.2689   0.3072   0.9656     O
O       0.2689   0.9656   0.3072     O
H        0.283   0.5967   0.7653     H
H        0.283   0.7653   0.5967     H
C       0.3141   0.5728   0.8414     C
C       0.3141   0.8414   0.5728     C
C       0.3251   0.3002   0.8972     C
C       0.3251   0.8972   0.3002     C
C       0.3509   0.0121   0.0121     C
H       0.3546   0.5172   0.8352     H
H       0.3546   0.8352   0.5172     H
N       0.4064   0.1215   0.9875     N
N       0.4064   0.9875   0.1215     N
N       0.4212   0.8011   0.8011     N
N       0.4344   0.6779   0.9347     N
N       0.4344   0.9347   0.6779     N
H       0.4556   0.0575   0.5793     H
H       0.4556   0.5793   0.0575     H
C       0.4833   0.7892    0.914     C
C       0.4833    0.914   0.7892     C
C       0.4927   0.3368    0.944     C
C       0.4927    0.944   0.3368     C
H       0.4942   0.1099   0.7107     H
H       0.4942   0.7107   0.1099     H
H       0.5058   0.2893   0.8901     H
H       0.5058   0.8901   0.2893     H
C       0.5073    0.056   0.6632     C
C       0.5073   0.6632    0.056     C
C       0.5167    0.086   0.2108     C
C       0.5167   0.2108    0.086     C
H       0.5444   0.4207   0.9425     H
H       0.5444   0.9425   0.4207     H
N       0.5656   0.0653   0.3221     N
N       0.5656   0.3221   0.0653     N
N       0.5788   0.1989   0.1989     N
N       0.5936   0.0125   0.8785     N
N       0.5936   0.8785   0.0125     N
H       0.6454   0.1648   0.4828     H
H       0.6454   0.4828   0.1648     H
C       0.6491   0.9879   0.9879     C
C       0.6749   0.1028   0.6998     C
C       0.6749   0.6998   0.1028     C
C       0.6859   0.1586   0.4272     C
C       0.6859   0.4272   0.1586     C
H        0.717   0.2347   0.4033     H
H        0.717   0.4033   0.2347     H
O       0.7311   0.0344   0.6928     O
O       0.7311   0.6928   0.0344     O
H       0.7419   0.0167   0.2193     H
H       0.7419   0.2193   0.0167     H
O       0.7581   0.2152   0.7376     O
O       0.7581   0.7376   0.2152     O
N       0.7623   0.0797   0.0797     N
C        0.825   0.1393   0.4923     C
C        0.825   0.4923   0.1393     C
C       0.8257   0.0617   0.2007     C
C       0.8257   0.2007   0.0617     C
O       0.8308    0.053   0.4448     O
O       0.8308   0.4448    0.053     O
H        0.888   0.1398   0.2568     H
H        0.888   0.2568   0.1398     H
C       0.9241   0.2218   0.9948     C
C       0.9241   0.9948   0.2218     C
O       0.9264   0.2133   0.5925     O
O       0.9264   0.5925   0.2133     O
O       0.9385   0.1373   0.9533     O
O       0.9385   0.9533   0.1373     O
O       0.9873   0.3256     0.98     O
O       0.9873     0.98   0.3256     O
