data_I
_chemical_name_common  '/home/zhangsd/repos/MofS-CGCNN/ML/data/TSD/clean_cifs/SUCLOT_clean'
_cell_length_a 12.45450
_cell_length_b 10.20800
_cell_length_c  6.70130
_cell_angle_alpha 107.47000
_cell_angle_beta  104.43200
_cell_angle_gamma 66.76100
_space_group_name_H-M_alt      'P 1'


loop_
_space_group_symop_operation_xyz
  'x, y, z' 

loop_
_atom_site_label
_atom_site_fract_x
_atom_site_fract_y
_atom_site_fract_z
_atom_site_type_symbol
C       0.0482   0.0407   0.7183     C
C        0.069   0.9809   0.3524     C
C       0.1099   0.0375   0.5643     C
C       0.2202   0.0584   0.6292     C
O       0.2587   0.0891   0.5014     O
O       0.2621   0.0783   0.8198     O
Ca      0.4442   0.1094   0.7715    Ca
C       0.4602   0.4508   0.2812     C
C       0.4612   0.5985   0.3591     C
O       0.4756   0.1552   0.1548     O
C       0.4855   0.3637   0.4221     C
C        0.487   0.2139   0.3433     C
O       0.4903    0.141   0.4602     O
O       0.5097    0.859   0.5398     O
C        0.513   0.7861   0.6567     C
C       0.5145   0.6363   0.5779     C
O       0.5244   0.8448   0.8452     O
C       0.5388   0.4015   0.6409     C
C       0.5398   0.5492   0.7188     C
Ca      0.5558   0.8906   0.2285    Ca
O       0.7379   0.9217   0.1802     O
O       0.7413   0.9109   0.4986     O
C       0.7798   0.9416   0.3708     C
C       0.8901   0.9625   0.4357     C
C        0.931   0.0191   0.6476     C
C       0.9518   0.9593   0.2817     C
