data_I
_chemical_name_common  '/home/zhangsd/repos/MofS-CGCNN/ML/data/TSD/clean_cifs/SUVNEE_clean'
_cell_length_a 41.46940
_cell_length_b 41.46940
_cell_length_c 41.46940
_cell_angle_alpha 90.00000
_cell_angle_beta  90.00000
_cell_angle_gamma 90.00000
_space_group_name_H-M_alt      'P 1'


loop_
_space_group_symop_operation_xyz
  'x, y, z' 

loop_
_atom_site_label
_atom_site_fract_x
_atom_site_fract_y
_atom_site_fract_z
_atom_site_type_symbol
Ni         0.0      0.0   0.2722    Ni
Ni         0.0      0.0   0.7278    Ni
Ni         0.0   0.2278      0.5    Ni
Ni         0.0   0.2722      0.0    Ni
Ni         0.0      0.5   0.2278    Ni
Ni         0.0      0.5   0.7722    Ni
Ni         0.0   0.7278      0.0    Ni
Ni         0.0   0.7722      0.5    Ni
C      0.01677  0.12819  0.16968     C
C      0.01677  0.12819  0.83032     C
C      0.01677  0.16968  0.12819     C
C      0.01677  0.16968  0.87181     C
C      0.01677  0.33032  0.37181     C
C      0.01677  0.33032  0.62819     C
C      0.01677  0.37181  0.33032     C
C      0.01677  0.37181  0.66968     C
C      0.01677  0.62819  0.33032     C
C      0.01677  0.62819  0.66968     C
C      0.01677  0.66968  0.37181     C
C      0.01677  0.66968  0.62819     C
C      0.01677  0.83032  0.12819     C
C      0.01677  0.83032  0.87181     C
C      0.01677  0.87181  0.16968     C
C      0.01677  0.87181  0.83032     C
H        0.028   0.1141    0.183     H
H        0.028   0.1141    0.817     H
H        0.028    0.183   0.1141     H
H        0.028    0.183   0.8859     H
H        0.028    0.317   0.3859     H
H        0.028    0.317   0.6141     H
H        0.028   0.3859    0.317     H
H        0.028   0.3859    0.683     H
H        0.028   0.6141    0.317     H
H        0.028   0.6141    0.683     H
H        0.028    0.683   0.3859     H
H        0.028    0.683   0.6141     H
H        0.028    0.817   0.1141     H
H        0.028    0.817   0.8859     H
H        0.028   0.8859    0.183     H
H        0.028   0.8859    0.817     H
O        0.033    0.033   0.2689     O
O        0.033    0.033   0.7311     O
O        0.033   0.2311    0.467     O
O        0.033   0.2311    0.533     O
O        0.033   0.2689    0.033     O
O        0.033   0.2689    0.967     O
O        0.033    0.467   0.2311     O
O        0.033    0.467   0.7689     O
O        0.033    0.533   0.2311     O
O        0.033    0.533   0.7689     O
O        0.033   0.7311    0.033     O
O        0.033   0.7311    0.967     O
O        0.033   0.7689    0.467     O
O        0.033   0.7689    0.533     O
O        0.033    0.967   0.2689     O
O        0.033    0.967   0.7311     O
C      0.03349  0.14949  0.14949     C
C      0.03349  0.14949  0.85051     C
C      0.03349  0.35051  0.35051     C
C      0.03349  0.35051  0.64949     C
C      0.03349  0.64949  0.35051     C
C      0.03349  0.64949  0.64949     C
C      0.03349  0.85051  0.14949     C
C      0.03349  0.85051  0.85051     C
O       0.0378   0.0378   0.2219     O
O       0.0378   0.0378   0.7781     O
O       0.0378   0.2219   0.0378     O
O       0.0378   0.2219   0.9622     O
O       0.0378   0.2781   0.4622     O
O       0.0378   0.2781   0.5378     O
O       0.0378   0.4622   0.2781     O
O       0.0378   0.4622   0.7219     O
O       0.0378   0.5378   0.2781     O
O       0.0378   0.5378   0.7219     O
O       0.0378   0.7219   0.4622     O
O       0.0378   0.7219   0.5378     O
O       0.0378   0.7781   0.0378     O
O       0.0378   0.7781   0.9622     O
O       0.0378   0.9622   0.2219     O
O       0.0378   0.9622   0.7781     O
C         0.05     0.05   0.2483     C
C         0.05     0.05   0.7517     C
C         0.05   0.2483     0.05     C
C         0.05   0.2483     0.95     C
C         0.05   0.2517     0.45     C
C         0.05   0.2517     0.55     C
C         0.05     0.45   0.2517     C
C         0.05     0.45   0.7483     C
C         0.05     0.55   0.2517     C
C         0.05     0.55   0.7483     C
C         0.05   0.7483     0.45     C
C         0.05   0.7483     0.55     C
C         0.05   0.7517     0.05     C
C         0.05   0.7517     0.95     C
C         0.05     0.95   0.2483     C
C         0.05     0.95   0.7517     C
C      0.06983  0.15034  0.15034     C
C      0.06983  0.15034  0.84966     C
C      0.06983  0.34966  0.34966     C
C      0.06983  0.34966  0.65034     C
C      0.06983  0.65034  0.34966     C
C      0.06983  0.65034  0.65034     C
C      0.06983  0.84966  0.15034     C
C      0.06983  0.84966  0.84966     C
C       0.0699   0.0699    0.252     C
C       0.0699   0.0699    0.748     C
C       0.0699    0.248   0.4301     C
C       0.0699    0.248   0.5699     C
C       0.0699    0.252   0.0699     C
C       0.0699    0.252   0.9301     C
C       0.0699   0.4301    0.248     C
C       0.0699   0.4301    0.752     C
C       0.0699   0.5699    0.248     C
C       0.0699   0.5699    0.752     C
C       0.0699    0.748   0.0699     C
C       0.0699    0.748   0.9301     C
C       0.0699    0.752   0.4301     C
C       0.0699    0.752   0.5699     C
C       0.0699   0.9301    0.252     C
C       0.0699   0.9301    0.748     C
H       0.0702   0.0702   0.3006     H
H       0.0702   0.0702   0.6994     H
H       0.0702   0.1994   0.4298     H
H       0.0702   0.1994   0.5702     H
H       0.0702   0.3006   0.0702     H
H       0.0702   0.3006   0.9298     H
H       0.0702   0.4298   0.1994     H
H       0.0702   0.4298   0.8006     H
H       0.0702   0.5702   0.1994     H
H       0.0702   0.5702   0.8006     H
H       0.0702   0.6994   0.0702     H
H       0.0702   0.6994   0.9298     H
H       0.0702   0.8006   0.4298     H
H       0.0702   0.8006   0.5702     H
H       0.0702   0.9298   0.3006     H
H       0.0702   0.9298   0.6994     H
H       0.0783   0.0783   0.2044     H
H       0.0783   0.0783   0.7956     H
H       0.0783   0.2044   0.0783     H
H       0.0783   0.2044   0.9217     H
H       0.0783   0.2956   0.4217     H
H       0.0783   0.2956   0.5783     H
H       0.0783   0.4217   0.2956     H
H       0.0783   0.4217   0.7044     H
H       0.0783   0.5783   0.2956     H
H       0.0783   0.5783   0.7044     H
H       0.0783   0.7044   0.4217     H
H       0.0783   0.7044   0.5783     H
H       0.0783   0.7956   0.0783     H
H       0.0783   0.7956   0.9217     H
H       0.0783   0.9217   0.2044     H
H       0.0783   0.9217   0.7956     H
C       0.0796   0.0796   0.2825     C
C       0.0796   0.0796   0.7175     C
C       0.0796   0.2175   0.4204     C
C       0.0796   0.2175   0.5796     C
C       0.0796   0.2825   0.0796     C
C       0.0796   0.2825   0.9204     C
C       0.0796   0.4204   0.2175     C
C       0.0796   0.4204   0.7825     C
C       0.0796   0.5796   0.2175     C
C       0.0796   0.5796   0.7825     C
C       0.0796   0.7175   0.0796     C
C       0.0796   0.7175   0.9204     C
C       0.0796   0.7825   0.4204     C
C       0.0796   0.7825   0.5796     C
C       0.0796   0.9204   0.2825     C
C       0.0796   0.9204   0.7175     C
O      0.08337  0.13208  0.17005     O
O      0.08337  0.13208  0.82995     O
O      0.08337  0.17005  0.13208     O
O      0.08337  0.17005  0.86792     O
O      0.08337  0.32995  0.36792     O
O      0.08337  0.32995  0.63208     O
O      0.08337  0.36792  0.32995     O
O      0.08337  0.36792  0.67005     O
O      0.08337  0.63208  0.32995     O
O      0.08337  0.63208  0.67005     O
O      0.08337  0.67005  0.36792     O
O      0.08337  0.67005  0.63208     O
O      0.08337  0.82995  0.13208     O
O      0.08337  0.82995  0.86792     O
O      0.08337  0.86792  0.17005     O
O      0.08337  0.86792  0.82995     O
C       0.0845   0.0845   0.2251     C
C       0.0845   0.0845   0.7749     C
C       0.0845   0.2251   0.0845     C
C       0.0845   0.2251   0.9155     C
C       0.0845   0.2749   0.4155     C
C       0.0845   0.2749   0.5845     C
C       0.0845   0.4155   0.2749     C
C       0.0845   0.4155   0.7251     C
C       0.0845   0.5845   0.2749     C
C       0.0845   0.5845   0.7251     C
C       0.0845   0.7251   0.4155     C
C       0.0845   0.7251   0.5845     C
C       0.0845   0.7749   0.0845     C
C       0.0845   0.7749   0.9155     C
C       0.0845   0.9155   0.2251     C
C       0.0845   0.9155   0.7749     C
C       0.1029   0.1029   0.2864     C
C       0.1029   0.1029   0.7136     C
C       0.1029   0.2136   0.3971     C
C       0.1029   0.2136   0.6029     C
C       0.1029   0.2864   0.1029     C
C       0.1029   0.2864   0.8971     C
C       0.1029   0.3971   0.2136     C
C       0.1029   0.3971   0.7864     C
C       0.1029   0.6029   0.2136     C
C       0.1029   0.6029   0.7864     C
C       0.1029   0.7136   0.1029     C
C       0.1029   0.7136   0.8971     C
C       0.1029   0.7864   0.3971     C
C       0.1029   0.7864   0.6029     C
C       0.1029   0.8971   0.2864     C
C       0.1029   0.8971   0.7136     C
N       0.1084   0.1084   0.2291     N
N       0.1084   0.1084   0.7709     N
N       0.1084   0.2291   0.1084     N
N       0.1084   0.2291   0.8916     N
N       0.1084   0.2709   0.3916     N
N       0.1084   0.2709   0.6084     N
N       0.1084   0.3916   0.2709     N
N       0.1084   0.3916   0.7291     N
N       0.1084   0.6084   0.2709     N
N       0.1084   0.6084   0.7291     N
N       0.1084   0.7291   0.3916     N
N       0.1084   0.7291   0.6084     N
N       0.1084   0.7709   0.1084     N
N       0.1084   0.7709   0.8916     N
N       0.1084   0.8916   0.2291     N
N       0.1084   0.8916   0.7709     N
H       0.1091   0.1091    0.307     H
H       0.1091   0.1091    0.693     H
H       0.1091    0.193   0.3909     H
H       0.1091    0.193   0.6091     H
H       0.1091    0.307   0.1091     H
H       0.1091    0.307   0.8909     H
H       0.1091   0.3909    0.193     H
H       0.1091   0.3909    0.807     H
H       0.1091   0.6091    0.193     H
H       0.1091   0.6091    0.807     H
H       0.1091    0.693   0.1091     H
H       0.1091    0.693   0.8909     H
H       0.1091    0.807   0.3909     H
H       0.1091    0.807   0.6091     H
H       0.1091   0.8909    0.307     H
H       0.1091   0.8909    0.693     H
H       0.1141    0.028    0.183     H
H       0.1141    0.028    0.817     H
H       0.1141    0.183    0.028     H
H       0.1141    0.183    0.972     H
H       0.1141    0.317    0.472     H
H       0.1141    0.317    0.528     H
H       0.1141    0.472    0.317     H
H       0.1141    0.472    0.683     H
H       0.1141    0.528    0.317     H
H       0.1141    0.528    0.683     H
H       0.1141    0.683    0.472     H
H       0.1141    0.683    0.528     H
H       0.1141    0.817    0.028     H
H       0.1141    0.817    0.972     H
H       0.1141    0.972    0.183     H
H       0.1141    0.972    0.817     H
C       0.1171   0.1171   0.2599     C
C       0.1171   0.1171   0.7401     C
C       0.1171   0.2401   0.3829     C
C       0.1171   0.2401   0.6171     C
C       0.1171   0.2599   0.1171     C
C       0.1171   0.2599   0.8829     C
C       0.1171   0.3829   0.2401     C
C       0.1171   0.3829   0.7599     C
C       0.1171   0.6171   0.2401     C
C       0.1171   0.6171   0.7599     C
C       0.1171   0.7401   0.1171     C
C       0.1171   0.7401   0.8829     C
C       0.1171   0.7599   0.3829     C
C       0.1171   0.7599   0.6171     C
C       0.1171   0.8829   0.2599     C
C       0.1171   0.8829   0.7401     C
C       0.1227  0.22618  0.22618     C
C       0.1227  0.22618  0.77382     C
C       0.1227  0.27382  0.27382     C
C       0.1227  0.27382  0.72618     C
C       0.1227  0.72618  0.27382     C
C       0.1227  0.72618  0.72618     C
C       0.1227  0.77382  0.22618     C
C       0.1227  0.77382  0.77382     C
C       0.1233   0.2182   0.2577     C
C       0.1233   0.2182   0.7423     C
C       0.1233   0.2423   0.2818     C
C       0.1233   0.2423   0.7182     C
C       0.1233   0.2577   0.2182     C
C       0.1233   0.2577   0.7818     C
C       0.1233   0.2818   0.2423     C
C       0.1233   0.2818   0.7577     C
C       0.1233   0.7182   0.2423     C
C       0.1233   0.7182   0.7577     C
C       0.1233   0.7423   0.2182     C
C       0.1233   0.7423   0.7818     C
C       0.1233   0.7577   0.2818     C
C       0.1233   0.7577   0.7182     C
C       0.1233   0.7818   0.2577     C
C       0.1233   0.7818   0.7423     C
H       0.1237   0.1965   0.2637     H
H       0.1237   0.1965   0.7363     H
H       0.1237   0.2363   0.3035     H
H       0.1237   0.2363   0.6965     H
H       0.1237   0.2637   0.1965     H
H       0.1237   0.2637   0.8035     H
H       0.1237   0.3035   0.2363     H
H       0.1237   0.3035   0.7637     H
H       0.1237   0.6965   0.2363     H
H       0.1237   0.6965   0.7637     H
H       0.1237   0.7363   0.1965     H
H       0.1237   0.7363   0.8035     H
H       0.1237   0.7637   0.3035     H
H       0.1237   0.7637   0.6965     H
H       0.1237   0.8035   0.2637     H
H       0.1237   0.8035   0.7363     H
C        0.124  0.19954  0.19954     C
C        0.124  0.19954  0.80046     C
C        0.124  0.30046  0.30046     C
C        0.124  0.30046  0.69954     C
C        0.124  0.69954  0.30046     C
C        0.124  0.69954  0.69954     C
C        0.124  0.80046  0.19954     C
C        0.124  0.80046  0.80046     C
O      0.12406  0.17264   0.2098     O
O      0.12406  0.17264   0.7902     O
O      0.12406   0.2098  0.17264     O
O      0.12406   0.2098  0.82736     O
O      0.12406   0.2902  0.32736     O
O      0.12406   0.2902  0.67264     O
O      0.12406  0.32736   0.2902     O
O      0.12406  0.32736   0.7098     O
O      0.12406  0.67264   0.2902     O
O      0.12406  0.67264   0.7098     O
O      0.12406   0.7098  0.32736     O
O      0.12406   0.7098  0.67264     O
O      0.12406   0.7902  0.17264     O
O      0.12406   0.7902  0.82736     O
O      0.12406  0.82736   0.2098     O
O      0.12406  0.82736   0.7902     O
C      0.12819  0.01677  0.16968     C
C      0.12819  0.01677  0.83032     C
C      0.12819  0.16968  0.01677     C
C      0.12819  0.16968  0.98323     C
C      0.12819  0.33032  0.48323     C
C      0.12819  0.33032  0.51677     C
C      0.12819  0.48323  0.33032     C
C      0.12819  0.48323  0.66968     C
C      0.12819  0.51677  0.33032     C
C      0.12819  0.51677  0.66968     C
C      0.12819  0.66968  0.48323     C
C      0.12819  0.66968  0.51677     C
C      0.12819  0.83032  0.01677     C
C      0.12819  0.83032  0.98323     C
C      0.12819  0.98323  0.16968     C
C      0.12819  0.98323  0.83032     C
Ni     0.12899  0.12899  0.18773    Ni
Ni     0.12899  0.12899  0.81227    Ni
Ni     0.12899  0.18773  0.12899    Ni
Ni     0.12899  0.18773  0.87101    Ni
Ni     0.12899  0.31227  0.37101    Ni
Ni     0.12899  0.31227  0.62899    Ni
Ni     0.12899  0.37101  0.31227    Ni
Ni     0.12899  0.37101  0.68773    Ni
Ni     0.12899  0.62899  0.31227    Ni
Ni     0.12899  0.62899  0.68773    Ni
Ni     0.12899  0.68773  0.37101    Ni
Ni     0.12899  0.68773  0.62899    Ni
Ni     0.12899  0.81227  0.12899    Ni
Ni     0.12899  0.81227  0.87101    Ni
Ni     0.12899  0.87101  0.18773    Ni
Ni     0.12899  0.87101  0.81227    Ni
O      0.13208  0.08337  0.17005     O
O      0.13208  0.08337  0.82995     O
O      0.13208  0.17005  0.08337     O
O      0.13208  0.17005  0.91663     O
O      0.13208  0.32995  0.41663     O
O      0.13208  0.32995  0.58337     O
O      0.13208  0.41663  0.32995     O
O      0.13208  0.41663  0.67005     O
O      0.13208  0.58337  0.32995     O
O      0.13208  0.58337  0.67005     O
O      0.13208  0.67005  0.41663     O
O      0.13208  0.67005  0.58337     O
O      0.13208  0.82995  0.08337     O
O      0.13208  0.82995  0.91663     O
O      0.13208  0.91663  0.17005     O
O      0.13208  0.91663  0.82995     O
H       0.1329   0.1329   0.2629     H
H       0.1329   0.1329   0.7371     H
H       0.1329   0.2371   0.3671     H
H       0.1329   0.2371   0.6329     H
H       0.1329   0.2629   0.1329     H
H       0.1329   0.2629   0.8671     H
H       0.1329   0.3671   0.2371     H
H       0.1329   0.3671   0.7629     H
H       0.1329   0.6329   0.2371     H
H       0.1329   0.6329   0.7629     H
H       0.1329   0.7371   0.1329     H
H       0.1329   0.7371   0.8671     H
H       0.1329   0.7629   0.3671     H
H       0.1329   0.7629   0.6329     H
H       0.1329   0.8671   0.2629     H
H       0.1329   0.8671   0.7371     H
O      0.14659  0.14659  0.14659     O
O      0.14659  0.14659  0.85341     O
O      0.14659  0.35341  0.35341     O
O      0.14659  0.35341  0.64659     O
O      0.14659  0.64659  0.35341     O
O      0.14659  0.64659  0.64659     O
O      0.14659  0.85341  0.14659     O
O      0.14659  0.85341  0.85341     O
C      0.14949  0.03349  0.14949     C
C      0.14949  0.03349  0.85051     C
C      0.14949  0.14949  0.03349     C
C      0.14949  0.14949  0.96651     C
C      0.14949  0.35051  0.46651     C
C      0.14949  0.35051  0.53349     C
C      0.14949  0.46651  0.35051     C
C      0.14949  0.46651  0.64949     C
C      0.14949  0.53349  0.35051     C
C      0.14949  0.53349  0.64949     C
C      0.14949  0.64949  0.46651     C
C      0.14949  0.64949  0.53349     C
C      0.14949  0.85051  0.03349     C
C      0.14949  0.85051  0.96651     C
C      0.14949  0.96651  0.14949     C
C      0.14949  0.96651  0.85051     C
C      0.15034  0.06983  0.15034     C
C      0.15034  0.06983  0.84966     C
C      0.15034  0.15034  0.06983     C
C      0.15034  0.15034  0.93017     C
C      0.15034  0.34966  0.43017     C
C      0.15034  0.34966  0.56983     C
C      0.15034  0.43017  0.34966     C
C      0.15034  0.43017  0.65034     C
C      0.15034  0.56983  0.34966     C
C      0.15034  0.56983  0.65034     C
C      0.15034  0.65034  0.43017     C
C      0.15034  0.65034  0.56983     C
C      0.15034  0.84966  0.06983     C
C      0.15034  0.84966  0.93017     C
C      0.15034  0.93017  0.15034     C
C      0.15034  0.93017  0.84966     C
C      0.16968  0.01677  0.12819     C
C      0.16968  0.01677  0.87181     C
C      0.16968  0.12819  0.01677     C
C      0.16968  0.12819  0.98323     C
C      0.16968  0.37181  0.48323     C
C      0.16968  0.37181  0.51677     C
C      0.16968  0.48323  0.37181     C
C      0.16968  0.48323  0.62819     C
C      0.16968  0.51677  0.37181     C
C      0.16968  0.51677  0.62819     C
C      0.16968  0.62819  0.48323     C
C      0.16968  0.62819  0.51677     C
C      0.16968  0.87181  0.01677     C
C      0.16968  0.87181  0.98323     C
C      0.16968  0.98323  0.12819     C
C      0.16968  0.98323  0.87181     C
O      0.17005  0.08337  0.13208     O
O      0.17005  0.08337  0.86792     O
O      0.17005  0.13208  0.08337     O
O      0.17005  0.13208  0.91663     O
O      0.17005  0.36792  0.41663     O
O      0.17005  0.36792  0.58337     O
O      0.17005  0.41663  0.36792     O
O      0.17005  0.41663  0.63208     O
O      0.17005  0.58337  0.36792     O
O      0.17005  0.58337  0.63208     O
O      0.17005  0.63208  0.41663     O
O      0.17005  0.63208  0.58337     O
O      0.17005  0.86792  0.08337     O
O      0.17005  0.86792  0.91663     O
O      0.17005  0.91663  0.13208     O
O      0.17005  0.91663  0.86792     O
O      0.17264  0.12406   0.2098     O
O      0.17264  0.12406   0.7902     O
O      0.17264   0.2098  0.12406     O
O      0.17264   0.2098  0.87594     O
O      0.17264   0.2902  0.37594     O
O      0.17264   0.2902  0.62406     O
O      0.17264  0.37594   0.2902     O
O      0.17264  0.37594   0.7098     O
O      0.17264  0.62406   0.2902     O
O      0.17264  0.62406   0.7098     O
O      0.17264   0.7098  0.37594     O
O      0.17264   0.7098  0.62406     O
O      0.17264   0.7902  0.12406     O
O      0.17264   0.7902  0.87594     O
O      0.17264  0.87594   0.2098     O
O      0.17264  0.87594   0.7902     O
H        0.183    0.028   0.1141     H
H        0.183    0.028   0.8859     H
H        0.183   0.1141    0.028     H
H        0.183   0.1141    0.972     H
H        0.183   0.3859    0.472     H
H        0.183   0.3859    0.528     H
H        0.183    0.472   0.3859     H
H        0.183    0.472   0.6141     H
H        0.183    0.528   0.3859     H
H        0.183    0.528   0.6141     H
H        0.183   0.6141    0.472     H
H        0.183   0.6141    0.528     H
H        0.183   0.8859    0.028     H
H        0.183   0.8859    0.972     H
H        0.183    0.972   0.1141     H
H        0.183    0.972   0.8859     H
Ni     0.18773  0.12899  0.12899    Ni
Ni     0.18773  0.12899  0.87101    Ni
Ni     0.18773  0.37101  0.37101    Ni
Ni     0.18773  0.37101  0.62899    Ni
Ni     0.18773  0.62899  0.37101    Ni
Ni     0.18773  0.62899  0.62899    Ni
Ni     0.18773  0.87101  0.12899    Ni
Ni     0.18773  0.87101  0.87101    Ni
H        0.193   0.1091   0.3909     H
H        0.193   0.1091   0.6091     H
H        0.193   0.3909   0.1091     H
H        0.193   0.3909   0.8909     H
H        0.193   0.6091   0.1091     H
H        0.193   0.6091   0.8909     H
H        0.193   0.8909   0.3909     H
H        0.193   0.8909   0.6091     H
H       0.1965   0.1237   0.2637     H
H       0.1965   0.1237   0.7363     H
H       0.1965   0.2363   0.3763     H
H       0.1965   0.2363   0.6237     H
H       0.1965   0.2637   0.1237     H
H       0.1965   0.2637   0.8763     H
H       0.1965   0.3763   0.2363     H
H       0.1965   0.3763   0.7637     H
H       0.1965   0.6237   0.2363     H
H       0.1965   0.6237   0.7637     H
H       0.1965   0.7363   0.1237     H
H       0.1965   0.7363   0.8763     H
H       0.1965   0.7637   0.3763     H
H       0.1965   0.7637   0.6237     H
H       0.1965   0.8763   0.2637     H
H       0.1965   0.8763   0.7363     H
H       0.1994   0.0702   0.4298     H
H       0.1994   0.0702   0.5702     H
H       0.1994   0.4298   0.0702     H
H       0.1994   0.4298   0.9298     H
H       0.1994   0.5702   0.0702     H
H       0.1994   0.5702   0.9298     H
H       0.1994   0.9298   0.4298     H
H       0.1994   0.9298   0.5702     H
C      0.19954    0.124  0.19954     C
C      0.19954    0.124  0.80046     C
C      0.19954  0.19954    0.124     C
C      0.19954  0.19954    0.876     C
C      0.19954  0.30046    0.376     C
C      0.19954  0.30046    0.624     C
C      0.19954    0.376  0.30046     C
C      0.19954    0.376  0.69954     C
C      0.19954    0.624  0.30046     C
C      0.19954    0.624  0.69954     C
C      0.19954  0.69954    0.376     C
C      0.19954  0.69954    0.624     C
C      0.19954  0.80046    0.124     C
C      0.19954  0.80046    0.876     C
C      0.19954    0.876  0.19954     C
C      0.19954    0.876  0.80046     C
H       0.2044   0.0783   0.0783     H
H       0.2044   0.0783   0.9217     H
H       0.2044   0.4217   0.4217     H
H       0.2044   0.4217   0.5783     H
H       0.2044   0.5783   0.4217     H
H       0.2044   0.5783   0.5783     H
H       0.2044   0.9217   0.0783     H
H       0.2044   0.9217   0.9217     H
O       0.2098  0.12406  0.17264     O
O       0.2098  0.12406  0.82736     O
O       0.2098  0.17264  0.12406     O
O       0.2098  0.17264  0.87594     O
O       0.2098  0.32736  0.37594     O
O       0.2098  0.32736  0.62406     O
O       0.2098  0.37594  0.32736     O
O       0.2098  0.37594  0.67264     O
O       0.2098  0.62406  0.32736     O
O       0.2098  0.62406  0.67264     O
O       0.2098  0.67264  0.37594     O
O       0.2098  0.67264  0.62406     O
O       0.2098  0.82736  0.12406     O
O       0.2098  0.82736  0.87594     O
O       0.2098  0.87594  0.17264     O
O       0.2098  0.87594  0.82736     O
C       0.2136   0.1029   0.3971     C
C       0.2136   0.1029   0.6029     C
C       0.2136   0.3971   0.1029     C
C       0.2136   0.3971   0.8971     C
C       0.2136   0.6029   0.1029     C
C       0.2136   0.6029   0.8971     C
C       0.2136   0.8971   0.3971     C
C       0.2136   0.8971   0.6029     C
C       0.2175   0.0796   0.4204     C
C       0.2175   0.0796   0.5796     C
C       0.2175   0.4204   0.0796     C
C       0.2175   0.4204   0.9204     C
C       0.2175   0.5796   0.0796     C
C       0.2175   0.5796   0.9204     C
C       0.2175   0.9204   0.4204     C
C       0.2175   0.9204   0.5796     C
C       0.2182   0.1233   0.2577     C
C       0.2182   0.1233   0.7423     C
C       0.2182   0.2423   0.3767     C
C       0.2182   0.2423   0.6233     C
C       0.2182   0.2577   0.1233     C
C       0.2182   0.2577   0.8767     C
C       0.2182   0.3767   0.2423     C
C       0.2182   0.3767   0.7577     C
C       0.2182   0.6233   0.2423     C
C       0.2182   0.6233   0.7577     C
C       0.2182   0.7423   0.1233     C
C       0.2182   0.7423   0.8767     C
C       0.2182   0.7577   0.3767     C
C       0.2182   0.7577   0.6233     C
C       0.2182   0.8767   0.2577     C
C       0.2182   0.8767   0.7423     C
O       0.2219   0.0378   0.0378     O
O       0.2219   0.0378   0.9622     O
O       0.2219   0.4622   0.4622     O
O       0.2219   0.4622   0.5378     O
O       0.2219   0.5378   0.4622     O
O       0.2219   0.5378   0.5378     O
O       0.2219   0.9622   0.0378     O
O       0.2219   0.9622   0.9622     O
C       0.2251   0.0845   0.0845     C
C       0.2251   0.0845   0.9155     C
C       0.2251   0.4155   0.4155     C
C       0.2251   0.4155   0.5845     C
C       0.2251   0.5845   0.4155     C
C       0.2251   0.5845   0.5845     C
C       0.2251   0.9155   0.0845     C
C       0.2251   0.9155   0.9155     C
C      0.22618   0.1227  0.22618     C
C      0.22618   0.1227  0.77382     C
C      0.22618  0.22618   0.1227     C
C      0.22618  0.22618   0.8773     C
C      0.22618  0.27382   0.3773     C
C      0.22618  0.27382   0.6227     C
C      0.22618   0.3773  0.27382     C
C      0.22618   0.3773  0.72618     C
C      0.22618   0.6227  0.27382     C
C      0.22618   0.6227  0.72618     C
C      0.22618  0.72618   0.3773     C
C      0.22618  0.72618   0.6227     C
C      0.22618  0.77382   0.1227     C
C      0.22618  0.77382   0.8773     C
C      0.22618   0.8773  0.22618     C
C      0.22618   0.8773  0.77382     C
Ni      0.2278      0.0      0.5    Ni
Ni      0.2278      0.5      0.0    Ni
N       0.2291   0.1084   0.1084     N
N       0.2291   0.1084   0.8916     N
N       0.2291   0.3916   0.3916     N
N       0.2291   0.3916   0.6084     N
N       0.2291   0.6084   0.3916     N
N       0.2291   0.6084   0.6084     N
N       0.2291   0.8916   0.1084     N
N       0.2291   0.8916   0.8916     N
O       0.2311    0.033    0.467     O
O       0.2311    0.033    0.533     O
O       0.2311    0.467    0.033     O
O       0.2311    0.467    0.967     O
O       0.2311    0.533    0.033     O
O       0.2311    0.533    0.967     O
O       0.2311    0.967    0.467     O
O       0.2311    0.967    0.533     O
H       0.2363   0.1237   0.3035     H
H       0.2363   0.1237   0.6965     H
H       0.2363   0.1965   0.3763     H
H       0.2363   0.1965   0.6237     H
H       0.2363   0.3035   0.1237     H
H       0.2363   0.3035   0.8763     H
H       0.2363   0.3763   0.1965     H
H       0.2363   0.3763   0.8035     H
H       0.2363   0.6237   0.1965     H
H       0.2363   0.6237   0.8035     H
H       0.2363   0.6965   0.1237     H
H       0.2363   0.6965   0.8763     H
H       0.2363   0.8035   0.3763     H
H       0.2363   0.8035   0.6237     H
H       0.2363   0.8763   0.3035     H
H       0.2363   0.8763   0.6965     H
H       0.2371   0.1329   0.3671     H
H       0.2371   0.1329   0.6329     H
H       0.2371   0.3671   0.1329     H
H       0.2371   0.3671   0.8671     H
H       0.2371   0.6329   0.1329     H
H       0.2371   0.6329   0.8671     H
H       0.2371   0.8671   0.3671     H
H       0.2371   0.8671   0.6329     H
C       0.2401   0.1171   0.3829     C
C       0.2401   0.1171   0.6171     C
C       0.2401   0.3829   0.1171     C
C       0.2401   0.3829   0.8829     C
C       0.2401   0.6171   0.1171     C
C       0.2401   0.6171   0.8829     C
C       0.2401   0.8829   0.3829     C
C       0.2401   0.8829   0.6171     C
C       0.2423   0.1233   0.2818     C
C       0.2423   0.1233   0.7182     C
C       0.2423   0.2182   0.3767     C
C       0.2423   0.2182   0.6233     C
C       0.2423   0.2818   0.1233     C
C       0.2423   0.2818   0.8767     C
C       0.2423   0.3767   0.2182     C
C       0.2423   0.3767   0.7818     C
C       0.2423   0.6233   0.2182     C
C       0.2423   0.6233   0.7818     C
C       0.2423   0.7182   0.1233     C
C       0.2423   0.7182   0.8767     C
C       0.2423   0.7818   0.3767     C
C       0.2423   0.7818   0.6233     C
C       0.2423   0.8767   0.2818     C
C       0.2423   0.8767   0.7182     C
C        0.248   0.0699   0.4301     C
C        0.248   0.0699   0.5699     C
C        0.248   0.4301   0.0699     C
C        0.248   0.4301   0.9301     C
C        0.248   0.5699   0.0699     C
C        0.248   0.5699   0.9301     C
C        0.248   0.9301   0.4301     C
C        0.248   0.9301   0.5699     C
C       0.2483     0.05     0.05     C
C       0.2483     0.05     0.95     C
C       0.2483     0.45     0.45     C
C       0.2483     0.45     0.55     C
C       0.2483     0.55     0.45     C
C       0.2483     0.55     0.55     C
C       0.2483     0.95     0.05     C
C       0.2483     0.95     0.95     C
C       0.2517     0.05     0.45     C
C       0.2517     0.05     0.55     C
C       0.2517     0.45     0.05     C
C       0.2517     0.45     0.95     C
C       0.2517     0.55     0.05     C
C       0.2517     0.55     0.95     C
C       0.2517     0.95     0.45     C
C       0.2517     0.95     0.55     C
C        0.252   0.0699   0.0699     C
C        0.252   0.0699   0.9301     C
C        0.252   0.4301   0.4301     C
C        0.252   0.4301   0.5699     C
C        0.252   0.5699   0.4301     C
C        0.252   0.5699   0.5699     C
C        0.252   0.9301   0.0699     C
C        0.252   0.9301   0.9301     C
C       0.2577   0.1233   0.2182     C
C       0.2577   0.1233   0.7818     C
C       0.2577   0.2182   0.1233     C
C       0.2577   0.2182   0.8767     C
C       0.2577   0.2818   0.3767     C
C       0.2577   0.2818   0.6233     C
C       0.2577   0.3767   0.2818     C
C       0.2577   0.3767   0.7182     C
C       0.2577   0.6233   0.2818     C
C       0.2577   0.6233   0.7182     C
C       0.2577   0.7182   0.3767     C
C       0.2577   0.7182   0.6233     C
C       0.2577   0.7818   0.1233     C
C       0.2577   0.7818   0.8767     C
C       0.2577   0.8767   0.2182     C
C       0.2577   0.8767   0.7818     C
C       0.2599   0.1171   0.1171     C
C       0.2599   0.1171   0.8829     C
C       0.2599   0.3829   0.3829     C
C       0.2599   0.3829   0.6171     C
C       0.2599   0.6171   0.3829     C
C       0.2599   0.6171   0.6171     C
C       0.2599   0.8829   0.1171     C
C       0.2599   0.8829   0.8829     C
H       0.2629   0.1329   0.1329     H
H       0.2629   0.1329   0.8671     H
H       0.2629   0.3671   0.3671     H
H       0.2629   0.3671   0.6329     H
H       0.2629   0.6329   0.3671     H
H       0.2629   0.6329   0.6329     H
H       0.2629   0.8671   0.1329     H
H       0.2629   0.8671   0.8671     H
H       0.2637   0.1237   0.1965     H
H       0.2637   0.1237   0.8035     H
H       0.2637   0.1965   0.1237     H
H       0.2637   0.1965   0.8763     H
H       0.2637   0.3035   0.3763     H
H       0.2637   0.3035   0.6237     H
H       0.2637   0.3763   0.3035     H
H       0.2637   0.3763   0.6965     H
H       0.2637   0.6237   0.3035     H
H       0.2637   0.6237   0.6965     H
H       0.2637   0.6965   0.3763     H
H       0.2637   0.6965   0.6237     H
H       0.2637   0.8035   0.1237     H
H       0.2637   0.8035   0.8763     H
H       0.2637   0.8763   0.1965     H
H       0.2637   0.8763   0.8035     H
O       0.2689    0.033    0.033     O
O       0.2689    0.033    0.967     O
O       0.2689    0.467    0.467     O
O       0.2689    0.467    0.533     O
O       0.2689    0.533    0.467     O
O       0.2689    0.533    0.533     O
O       0.2689    0.967    0.033     O
O       0.2689    0.967    0.967     O
N       0.2709   0.1084   0.3916     N
N       0.2709   0.1084   0.6084     N
N       0.2709   0.3916   0.1084     N
N       0.2709   0.3916   0.8916     N
N       0.2709   0.6084   0.1084     N
N       0.2709   0.6084   0.8916     N
N       0.2709   0.8916   0.3916     N
N       0.2709   0.8916   0.6084     N
Ni      0.2722      0.0      0.0    Ni
Ni      0.2722      0.5      0.5    Ni
C      0.27382   0.1227  0.27382     C
C      0.27382   0.1227  0.72618     C
C      0.27382  0.22618   0.3773     C
C      0.27382  0.22618   0.6227     C
C      0.27382  0.27382   0.1227     C
C      0.27382  0.27382   0.8773     C
C      0.27382   0.3773  0.22618     C
C      0.27382   0.3773  0.77382     C
C      0.27382   0.6227  0.22618     C
C      0.27382   0.6227  0.77382     C
C      0.27382  0.72618   0.1227     C
C      0.27382  0.72618   0.8773     C
C      0.27382  0.77382   0.3773     C
C      0.27382  0.77382   0.6227     C
C      0.27382   0.8773  0.27382     C
C      0.27382   0.8773  0.72618     C
C       0.2749   0.0845   0.4155     C
C       0.2749   0.0845   0.5845     C
C       0.2749   0.4155   0.0845     C
C       0.2749   0.4155   0.9155     C
C       0.2749   0.5845   0.0845     C
C       0.2749   0.5845   0.9155     C
C       0.2749   0.9155   0.4155     C
C       0.2749   0.9155   0.5845     C
O       0.2781   0.0378   0.4622     O
O       0.2781   0.0378   0.5378     O
O       0.2781   0.4622   0.0378     O
O       0.2781   0.4622   0.9622     O
O       0.2781   0.5378   0.0378     O
O       0.2781   0.5378   0.9622     O
O       0.2781   0.9622   0.4622     O
O       0.2781   0.9622   0.5378     O
C       0.2818   0.1233   0.2423     C
C       0.2818   0.1233   0.7577     C
C       0.2818   0.2423   0.1233     C
C       0.2818   0.2423   0.8767     C
C       0.2818   0.2577   0.3767     C
C       0.2818   0.2577   0.6233     C
C       0.2818   0.3767   0.2577     C
C       0.2818   0.3767   0.7423     C
C       0.2818   0.6233   0.2577     C
C       0.2818   0.6233   0.7423     C
C       0.2818   0.7423   0.3767     C
C       0.2818   0.7423   0.6233     C
C       0.2818   0.7577   0.1233     C
C       0.2818   0.7577   0.8767     C
C       0.2818   0.8767   0.2423     C
C       0.2818   0.8767   0.7577     C
C       0.2825   0.0796   0.0796     C
C       0.2825   0.0796   0.9204     C
C       0.2825   0.4204   0.4204     C
C       0.2825   0.4204   0.5796     C
C       0.2825   0.5796   0.4204     C
C       0.2825   0.5796   0.5796     C
C       0.2825   0.9204   0.0796     C
C       0.2825   0.9204   0.9204     C
C       0.2864   0.1029   0.1029     C
C       0.2864   0.1029   0.8971     C
C       0.2864   0.3971   0.3971     C
C       0.2864   0.3971   0.6029     C
C       0.2864   0.6029   0.3971     C
C       0.2864   0.6029   0.6029     C
C       0.2864   0.8971   0.1029     C
C       0.2864   0.8971   0.8971     C
O       0.2902  0.12406  0.32736     O
O       0.2902  0.12406  0.67264     O
O       0.2902  0.17264  0.37594     O
O       0.2902  0.17264  0.62406     O
O       0.2902  0.32736  0.12406     O
O       0.2902  0.32736  0.87594     O
O       0.2902  0.37594  0.17264     O
O       0.2902  0.37594  0.82736     O
O       0.2902  0.62406  0.17264     O
O       0.2902  0.62406  0.82736     O
O       0.2902  0.67264  0.12406     O
O       0.2902  0.67264  0.87594     O
O       0.2902  0.82736  0.37594     O
O       0.2902  0.82736  0.62406     O
O       0.2902  0.87594  0.32736     O
O       0.2902  0.87594  0.67264     O
H       0.2956   0.0783   0.4217     H
H       0.2956   0.0783   0.5783     H
H       0.2956   0.4217   0.0783     H
H       0.2956   0.4217   0.9217     H
H       0.2956   0.5783   0.0783     H
H       0.2956   0.5783   0.9217     H
H       0.2956   0.9217   0.4217     H
H       0.2956   0.9217   0.5783     H
C      0.30046    0.124  0.30046     C
C      0.30046    0.124  0.69954     C
C      0.30046  0.19954    0.376     C
C      0.30046  0.19954    0.624     C
C      0.30046  0.30046    0.124     C
C      0.30046  0.30046    0.876     C
C      0.30046    0.376  0.19954     C
C      0.30046    0.376  0.80046     C
C      0.30046    0.624  0.19954     C
C      0.30046    0.624  0.80046     C
C      0.30046  0.69954    0.124     C
C      0.30046  0.69954    0.876     C
C      0.30046  0.80046    0.376     C
C      0.30046  0.80046    0.624     C
C      0.30046    0.876  0.30046     C
C      0.30046    0.876  0.69954     C
H       0.3006   0.0702   0.0702     H
H       0.3006   0.0702   0.9298     H
H       0.3006   0.4298   0.4298     H
H       0.3006   0.4298   0.5702     H
H       0.3006   0.5702   0.4298     H
H       0.3006   0.5702   0.5702     H
H       0.3006   0.9298   0.0702     H
H       0.3006   0.9298   0.9298     H
H       0.3035   0.1237   0.2363     H
H       0.3035   0.1237   0.7637     H
H       0.3035   0.2363   0.1237     H
H       0.3035   0.2363   0.8763     H
H       0.3035   0.2637   0.3763     H
H       0.3035   0.2637   0.6237     H
H       0.3035   0.3763   0.2637     H
H       0.3035   0.3763   0.7363     H
H       0.3035   0.6237   0.2637     H
H       0.3035   0.6237   0.7363     H
H       0.3035   0.7363   0.3763     H
H       0.3035   0.7363   0.6237     H
H       0.3035   0.7637   0.1237     H
H       0.3035   0.7637   0.8763     H
H       0.3035   0.8763   0.2363     H
H       0.3035   0.8763   0.7637     H
H        0.307   0.1091   0.1091     H
H        0.307   0.1091   0.8909     H
H        0.307   0.3909   0.3909     H
H        0.307   0.3909   0.6091     H
H        0.307   0.6091   0.3909     H
H        0.307   0.6091   0.6091     H
H        0.307   0.8909   0.1091     H
H        0.307   0.8909   0.8909     H
Ni     0.31227  0.12899  0.37101    Ni
Ni     0.31227  0.12899  0.62899    Ni
Ni     0.31227  0.37101  0.12899    Ni
Ni     0.31227  0.37101  0.87101    Ni
Ni     0.31227  0.62899  0.12899    Ni
Ni     0.31227  0.62899  0.87101    Ni
Ni     0.31227  0.87101  0.37101    Ni
Ni     0.31227  0.87101  0.62899    Ni
H        0.317    0.028   0.3859     H
H        0.317    0.028   0.6141     H
H        0.317   0.1141    0.472     H
H        0.317   0.1141    0.528     H
H        0.317   0.3859    0.028     H
H        0.317   0.3859    0.972     H
H        0.317    0.472   0.1141     H
H        0.317    0.472   0.8859     H
H        0.317    0.528   0.1141     H
H        0.317    0.528   0.8859     H
H        0.317   0.6141    0.028     H
H        0.317   0.6141    0.972     H
H        0.317   0.8859    0.472     H
H        0.317   0.8859    0.528     H
H        0.317    0.972   0.3859     H
H        0.317    0.972   0.6141     H
O      0.32736  0.12406   0.2902     O
O      0.32736  0.12406   0.7098     O
O      0.32736   0.2098  0.37594     O
O      0.32736   0.2098  0.62406     O
O      0.32736   0.2902  0.12406     O
O      0.32736   0.2902  0.87594     O
O      0.32736  0.37594   0.2098     O
O      0.32736  0.37594   0.7902     O
O      0.32736  0.62406   0.2098     O
O      0.32736  0.62406   0.7902     O
O      0.32736   0.7098  0.12406     O
O      0.32736   0.7098  0.87594     O
O      0.32736   0.7902  0.37594     O
O      0.32736   0.7902  0.62406     O
O      0.32736  0.87594   0.2902     O
O      0.32736  0.87594   0.7098     O
O      0.32995  0.08337  0.36792     O
O      0.32995  0.08337  0.63208     O
O      0.32995  0.13208  0.41663     O
O      0.32995  0.13208  0.58337     O
O      0.32995  0.36792  0.08337     O
O      0.32995  0.36792  0.91663     O
O      0.32995  0.41663  0.13208     O
O      0.32995  0.41663  0.86792     O
O      0.32995  0.58337  0.13208     O
O      0.32995  0.58337  0.86792     O
O      0.32995  0.63208  0.08337     O
O      0.32995  0.63208  0.91663     O
O      0.32995  0.86792  0.41663     O
O      0.32995  0.86792  0.58337     O
O      0.32995  0.91663  0.36792     O
O      0.32995  0.91663  0.63208     O
C      0.33032  0.01677  0.37181     C
C      0.33032  0.01677  0.62819     C
C      0.33032  0.12819  0.48323     C
C      0.33032  0.12819  0.51677     C
C      0.33032  0.37181  0.01677     C
C      0.33032  0.37181  0.98323     C
C      0.33032  0.48323  0.12819     C
C      0.33032  0.48323  0.87181     C
C      0.33032  0.51677  0.12819     C
C      0.33032  0.51677  0.87181     C
C      0.33032  0.62819  0.01677     C
C      0.33032  0.62819  0.98323     C
C      0.33032  0.87181  0.48323     C
C      0.33032  0.87181  0.51677     C
C      0.33032  0.98323  0.37181     C
C      0.33032  0.98323  0.62819     C
C      0.34966  0.06983  0.34966     C
C      0.34966  0.06983  0.65034     C
C      0.34966  0.15034  0.43017     C
C      0.34966  0.15034  0.56983     C
C      0.34966  0.34966  0.06983     C
C      0.34966  0.34966  0.93017     C
C      0.34966  0.43017  0.15034     C
C      0.34966  0.43017  0.84966     C
C      0.34966  0.56983  0.15034     C
C      0.34966  0.56983  0.84966     C
C      0.34966  0.65034  0.06983     C
C      0.34966  0.65034  0.93017     C
C      0.34966  0.84966  0.43017     C
C      0.34966  0.84966  0.56983     C
C      0.34966  0.93017  0.34966     C
C      0.34966  0.93017  0.65034     C
C      0.35051  0.03349  0.35051     C
C      0.35051  0.03349  0.64949     C
C      0.35051  0.14949  0.46651     C
C      0.35051  0.14949  0.53349     C
C      0.35051  0.35051  0.03349     C
C      0.35051  0.35051  0.96651     C
C      0.35051  0.46651  0.14949     C
C      0.35051  0.46651  0.85051     C
C      0.35051  0.53349  0.14949     C
C      0.35051  0.53349  0.85051     C
C      0.35051  0.64949  0.03349     C
C      0.35051  0.64949  0.96651     C
C      0.35051  0.85051  0.46651     C
C      0.35051  0.85051  0.53349     C
C      0.35051  0.96651  0.35051     C
C      0.35051  0.96651  0.64949     C
O      0.35341  0.14659  0.35341     O
O      0.35341  0.14659  0.64659     O
O      0.35341  0.35341  0.14659     O
O      0.35341  0.35341  0.85341     O
O      0.35341  0.64659  0.14659     O
O      0.35341  0.64659  0.85341     O
O      0.35341  0.85341  0.35341     O
O      0.35341  0.85341  0.64659     O
H       0.3671   0.1329   0.2371     H
H       0.3671   0.1329   0.7629     H
H       0.3671   0.2371   0.1329     H
H       0.3671   0.2371   0.8671     H
H       0.3671   0.2629   0.3671     H
H       0.3671   0.2629   0.6329     H
H       0.3671   0.3671   0.2629     H
H       0.3671   0.3671   0.7371     H
H       0.3671   0.6329   0.2629     H
H       0.3671   0.6329   0.7371     H
H       0.3671   0.7371   0.3671     H
H       0.3671   0.7371   0.6329     H
H       0.3671   0.7629   0.1329     H
H       0.3671   0.7629   0.8671     H
H       0.3671   0.8671   0.2371     H
H       0.3671   0.8671   0.7629     H
O      0.36792  0.08337  0.32995     O
O      0.36792  0.08337  0.67005     O
O      0.36792  0.17005  0.41663     O
O      0.36792  0.17005  0.58337     O
O      0.36792  0.32995  0.08337     O
O      0.36792  0.32995  0.91663     O
O      0.36792  0.41663  0.17005     O
O      0.36792  0.41663  0.82995     O
O      0.36792  0.58337  0.17005     O
O      0.36792  0.58337  0.82995     O
O      0.36792  0.67005  0.08337     O
O      0.36792  0.67005  0.91663     O
O      0.36792  0.82995  0.41663     O
O      0.36792  0.82995  0.58337     O
O      0.36792  0.91663  0.32995     O
O      0.36792  0.91663  0.67005     O
Ni     0.37101  0.12899  0.31227    Ni
Ni     0.37101  0.12899  0.68773    Ni
Ni     0.37101  0.18773  0.37101    Ni
Ni     0.37101  0.18773  0.62899    Ni
Ni     0.37101  0.31227  0.12899    Ni
Ni     0.37101  0.31227  0.87101    Ni
Ni     0.37101  0.37101  0.18773    Ni
Ni     0.37101  0.37101  0.81227    Ni
Ni     0.37101  0.62899  0.18773    Ni
Ni     0.37101  0.62899  0.81227    Ni
Ni     0.37101  0.68773  0.12899    Ni
Ni     0.37101  0.68773  0.87101    Ni
Ni     0.37101  0.81227  0.37101    Ni
Ni     0.37101  0.81227  0.62899    Ni
Ni     0.37101  0.87101  0.31227    Ni
Ni     0.37101  0.87101  0.68773    Ni
C      0.37181  0.01677  0.33032     C
C      0.37181  0.01677  0.66968     C
C      0.37181  0.16968  0.48323     C
C      0.37181  0.16968  0.51677     C
C      0.37181  0.33032  0.01677     C
C      0.37181  0.33032  0.98323     C
C      0.37181  0.48323  0.16968     C
C      0.37181  0.48323  0.83032     C
C      0.37181  0.51677  0.16968     C
C      0.37181  0.51677  0.83032     C
C      0.37181  0.66968  0.01677     C
C      0.37181  0.66968  0.98323     C
C      0.37181  0.83032  0.48323     C
C      0.37181  0.83032  0.51677     C
C      0.37181  0.98323  0.33032     C
C      0.37181  0.98323  0.66968     C
O      0.37594  0.17264   0.2902     O
O      0.37594  0.17264   0.7098     O
O      0.37594   0.2098  0.32736     O
O      0.37594   0.2098  0.67264     O
O      0.37594   0.2902  0.17264     O
O      0.37594   0.2902  0.82736     O
O      0.37594  0.32736   0.2098     O
O      0.37594  0.32736   0.7902     O
O      0.37594  0.67264   0.2098     O
O      0.37594  0.67264   0.7902     O
O      0.37594   0.7098  0.17264     O
O      0.37594   0.7098  0.82736     O
O      0.37594   0.7902  0.32736     O
O      0.37594   0.7902  0.67264     O
O      0.37594  0.82736   0.2902     O
O      0.37594  0.82736   0.7098     O
C        0.376  0.19954  0.30046     C
C        0.376  0.19954  0.69954     C
C        0.376  0.30046  0.19954     C
C        0.376  0.30046  0.80046     C
C        0.376  0.69954  0.19954     C
C        0.376  0.69954  0.80046     C
C        0.376  0.80046  0.30046     C
C        0.376  0.80046  0.69954     C
H       0.3763   0.1965   0.2363     H
H       0.3763   0.1965   0.7637     H
H       0.3763   0.2363   0.1965     H
H       0.3763   0.2363   0.8035     H
H       0.3763   0.2637   0.3035     H
H       0.3763   0.2637   0.6965     H
H       0.3763   0.3035   0.2637     H
H       0.3763   0.3035   0.7363     H
H       0.3763   0.6965   0.2637     H
H       0.3763   0.6965   0.7363     H
H       0.3763   0.7363   0.3035     H
H       0.3763   0.7363   0.6965     H
H       0.3763   0.7637   0.1965     H
H       0.3763   0.7637   0.8035     H
H       0.3763   0.8035   0.2363     H
H       0.3763   0.8035   0.7637     H
C       0.3767   0.2182   0.2423     C
C       0.3767   0.2182   0.7577     C
C       0.3767   0.2423   0.2182     C
C       0.3767   0.2423   0.7818     C
C       0.3767   0.2577   0.2818     C
C       0.3767   0.2577   0.7182     C
C       0.3767   0.2818   0.2577     C
C       0.3767   0.2818   0.7423     C
C       0.3767   0.7182   0.2577     C
C       0.3767   0.7182   0.7423     C
C       0.3767   0.7423   0.2818     C
C       0.3767   0.7423   0.7182     C
C       0.3767   0.7577   0.2182     C
C       0.3767   0.7577   0.7818     C
C       0.3767   0.7818   0.2423     C
C       0.3767   0.7818   0.7577     C
C       0.3773  0.22618  0.27382     C
C       0.3773  0.22618  0.72618     C
C       0.3773  0.27382  0.22618     C
C       0.3773  0.27382  0.77382     C
C       0.3773  0.72618  0.22618     C
C       0.3773  0.72618  0.77382     C
C       0.3773  0.77382  0.27382     C
C       0.3773  0.77382  0.72618     C
C       0.3829   0.1171   0.2401     C
C       0.3829   0.1171   0.7599     C
C       0.3829   0.2401   0.1171     C
C       0.3829   0.2401   0.8829     C
C       0.3829   0.2599   0.3829     C
C       0.3829   0.2599   0.6171     C
C       0.3829   0.3829   0.2599     C
C       0.3829   0.3829   0.7401     C
C       0.3829   0.6171   0.2599     C
C       0.3829   0.6171   0.7401     C
C       0.3829   0.7401   0.3829     C
C       0.3829   0.7401   0.6171     C
C       0.3829   0.7599   0.1171     C
C       0.3829   0.7599   0.8829     C
C       0.3829   0.8829   0.2401     C
C       0.3829   0.8829   0.7599     C
H       0.3859    0.028    0.317     H
H       0.3859    0.028    0.683     H
H       0.3859    0.183    0.472     H
H       0.3859    0.183    0.528     H
H       0.3859    0.317    0.028     H
H       0.3859    0.317    0.972     H
H       0.3859    0.472    0.183     H
H       0.3859    0.472    0.817     H
H       0.3859    0.528    0.183     H
H       0.3859    0.528    0.817     H
H       0.3859    0.683    0.028     H
H       0.3859    0.683    0.972     H
H       0.3859    0.817    0.472     H
H       0.3859    0.817    0.528     H
H       0.3859    0.972    0.317     H
H       0.3859    0.972    0.683     H
H       0.3909   0.1091    0.193     H
H       0.3909   0.1091    0.807     H
H       0.3909    0.193   0.1091     H
H       0.3909    0.193   0.8909     H
H       0.3909    0.307   0.3909     H
H       0.3909    0.307   0.6091     H
H       0.3909   0.3909    0.307     H
H       0.3909   0.3909    0.693     H
H       0.3909   0.6091    0.307     H
H       0.3909   0.6091    0.693     H
H       0.3909    0.693   0.3909     H
H       0.3909    0.693   0.6091     H
H       0.3909    0.807   0.1091     H
H       0.3909    0.807   0.8909     H
H       0.3909   0.8909    0.193     H
H       0.3909   0.8909    0.807     H
N       0.3916   0.1084   0.2709     N
N       0.3916   0.1084   0.7291     N
N       0.3916   0.2291   0.3916     N
N       0.3916   0.2291   0.6084     N
N       0.3916   0.2709   0.1084     N
N       0.3916   0.2709   0.8916     N
N       0.3916   0.3916   0.2291     N
N       0.3916   0.3916   0.7709     N
N       0.3916   0.6084   0.2291     N
N       0.3916   0.6084   0.7709     N
N       0.3916   0.7291   0.1084     N
N       0.3916   0.7291   0.8916     N
N       0.3916   0.7709   0.3916     N
N       0.3916   0.7709   0.6084     N
N       0.3916   0.8916   0.2709     N
N       0.3916   0.8916   0.7291     N
C       0.3971   0.1029   0.2136     C
C       0.3971   0.1029   0.7864     C
C       0.3971   0.2136   0.1029     C
C       0.3971   0.2136   0.8971     C
C       0.3971   0.2864   0.3971     C
C       0.3971   0.2864   0.6029     C
C       0.3971   0.3971   0.2864     C
C       0.3971   0.3971   0.7136     C
C       0.3971   0.6029   0.2864     C
C       0.3971   0.6029   0.7136     C
C       0.3971   0.7136   0.3971     C
C       0.3971   0.7136   0.6029     C
C       0.3971   0.7864   0.1029     C
C       0.3971   0.7864   0.8971     C
C       0.3971   0.8971   0.2136     C
C       0.3971   0.8971   0.7864     C
C       0.4155   0.0845   0.2749     C
C       0.4155   0.0845   0.7251     C
C       0.4155   0.2251   0.4155     C
C       0.4155   0.2251   0.5845     C
C       0.4155   0.2749   0.0845     C
C       0.4155   0.2749   0.9155     C
C       0.4155   0.4155   0.2251     C
C       0.4155   0.4155   0.7749     C
C       0.4155   0.5845   0.2251     C
C       0.4155   0.5845   0.7749     C
C       0.4155   0.7251   0.0845     C
C       0.4155   0.7251   0.9155     C
C       0.4155   0.7749   0.4155     C
C       0.4155   0.7749   0.5845     C
C       0.4155   0.9155   0.2749     C
C       0.4155   0.9155   0.7251     C
O      0.41663  0.13208  0.32995     O
O      0.41663  0.13208  0.67005     O
O      0.41663  0.17005  0.36792     O
O      0.41663  0.17005  0.63208     O
O      0.41663  0.32995  0.13208     O
O      0.41663  0.32995  0.86792     O
O      0.41663  0.36792  0.17005     O
O      0.41663  0.36792  0.82995     O
O      0.41663  0.63208  0.17005     O
O      0.41663  0.63208  0.82995     O
O      0.41663  0.67005  0.13208     O
O      0.41663  0.67005  0.86792     O
O      0.41663  0.82995  0.36792     O
O      0.41663  0.82995  0.63208     O
O      0.41663  0.86792  0.32995     O
O      0.41663  0.86792  0.67005     O
C       0.4204   0.0796   0.2175     C
C       0.4204   0.0796   0.7825     C
C       0.4204   0.2175   0.0796     C
C       0.4204   0.2175   0.9204     C
C       0.4204   0.2825   0.4204     C
C       0.4204   0.2825   0.5796     C
C       0.4204   0.4204   0.2825     C
C       0.4204   0.4204   0.7175     C
C       0.4204   0.5796   0.2825     C
C       0.4204   0.5796   0.7175     C
C       0.4204   0.7175   0.4204     C
C       0.4204   0.7175   0.5796     C
C       0.4204   0.7825   0.0796     C
C       0.4204   0.7825   0.9204     C
C       0.4204   0.9204   0.2175     C
C       0.4204   0.9204   0.7825     C
H       0.4217   0.0783   0.2956     H
H       0.4217   0.0783   0.7044     H
H       0.4217   0.2044   0.4217     H
H       0.4217   0.2044   0.5783     H
H       0.4217   0.2956   0.0783     H
H       0.4217   0.2956   0.9217     H
H       0.4217   0.4217   0.2044     H
H       0.4217   0.4217   0.7956     H
H       0.4217   0.5783   0.2044     H
H       0.4217   0.5783   0.7956     H
H       0.4217   0.7044   0.0783     H
H       0.4217   0.7044   0.9217     H
H       0.4217   0.7956   0.4217     H
H       0.4217   0.7956   0.5783     H
H       0.4217   0.9217   0.2956     H
H       0.4217   0.9217   0.7044     H
H       0.4298   0.0702   0.1994     H
H       0.4298   0.0702   0.8006     H
H       0.4298   0.1994   0.0702     H
H       0.4298   0.1994   0.9298     H
H       0.4298   0.3006   0.4298     H
H       0.4298   0.3006   0.5702     H
H       0.4298   0.4298   0.3006     H
H       0.4298   0.4298   0.6994     H
H       0.4298   0.5702   0.3006     H
H       0.4298   0.5702   0.6994     H
H       0.4298   0.6994   0.4298     H
H       0.4298   0.6994   0.5702     H
H       0.4298   0.8006   0.0702     H
H       0.4298   0.8006   0.9298     H
H       0.4298   0.9298   0.1994     H
H       0.4298   0.9298   0.8006     H
C       0.4301   0.0699    0.248     C
C       0.4301   0.0699    0.752     C
C       0.4301    0.248   0.0699     C
C       0.4301    0.248   0.9301     C
C       0.4301    0.252   0.4301     C
C       0.4301    0.252   0.5699     C
C       0.4301   0.4301    0.252     C
C       0.4301   0.4301    0.748     C
C       0.4301   0.5699    0.252     C
C       0.4301   0.5699    0.748     C
C       0.4301    0.748   0.4301     C
C       0.4301    0.748   0.5699     C
C       0.4301    0.752   0.0699     C
C       0.4301    0.752   0.9301     C
C       0.4301   0.9301    0.248     C
C       0.4301   0.9301    0.752     C
C      0.43017  0.15034  0.34966     C
C      0.43017  0.15034  0.65034     C
C      0.43017  0.34966  0.15034     C
C      0.43017  0.34966  0.84966     C
C      0.43017  0.65034  0.15034     C
C      0.43017  0.65034  0.84966     C
C      0.43017  0.84966  0.34966     C
C      0.43017  0.84966  0.65034     C
C         0.45     0.05   0.2517     C
C         0.45     0.05   0.7483     C
C         0.45   0.2483     0.45     C
C         0.45   0.2483     0.55     C
C         0.45   0.2517     0.05     C
C         0.45   0.2517     0.95     C
C         0.45     0.45   0.2483     C
C         0.45     0.45   0.7517     C
C         0.45     0.55   0.2483     C
C         0.45     0.55   0.7517     C
C         0.45   0.7483     0.05     C
C         0.45   0.7483     0.95     C
C         0.45   0.7517     0.45     C
C         0.45   0.7517     0.55     C
C         0.45     0.95   0.2517     C
C         0.45     0.95   0.7483     C
O       0.4622   0.0378   0.2781     O
O       0.4622   0.0378   0.7219     O
O       0.4622   0.2219   0.4622     O
O       0.4622   0.2219   0.5378     O
O       0.4622   0.2781   0.0378     O
O       0.4622   0.2781   0.9622     O
O       0.4622   0.4622   0.2219     O
O       0.4622   0.4622   0.7781     O
O       0.4622   0.5378   0.2219     O
O       0.4622   0.5378   0.7781     O
O       0.4622   0.7219   0.0378     O
O       0.4622   0.7219   0.9622     O
O       0.4622   0.7781   0.4622     O
O       0.4622   0.7781   0.5378     O
O       0.4622   0.9622   0.2781     O
O       0.4622   0.9622   0.7219     O
C      0.46651  0.14949  0.35051     C
C      0.46651  0.14949  0.64949     C
C      0.46651  0.35051  0.14949     C
C      0.46651  0.35051  0.85051     C
C      0.46651  0.64949  0.14949     C
C      0.46651  0.64949  0.85051     C
C      0.46651  0.85051  0.35051     C
C      0.46651  0.85051  0.64949     C
O        0.467    0.033   0.2311     O
O        0.467    0.033   0.7689     O
O        0.467   0.2311    0.033     O
O        0.467   0.2311    0.967     O
O        0.467   0.2689    0.467     O
O        0.467   0.2689    0.533     O
O        0.467    0.467   0.2689     O
O        0.467    0.467   0.7311     O
O        0.467    0.533   0.2689     O
O        0.467    0.533   0.7311     O
O        0.467   0.7311    0.467     O
O        0.467   0.7311    0.533     O
O        0.467   0.7689    0.033     O
O        0.467   0.7689    0.967     O
O        0.467    0.967   0.2311     O
O        0.467    0.967   0.7689     O
H        0.472   0.1141    0.317     H
H        0.472   0.1141    0.683     H
H        0.472    0.183   0.3859     H
H        0.472    0.183   0.6141     H
H        0.472    0.317   0.1141     H
H        0.472    0.317   0.8859     H
H        0.472   0.3859    0.183     H
H        0.472   0.3859    0.817     H
H        0.472   0.6141    0.183     H
H        0.472   0.6141    0.817     H
H        0.472    0.683   0.1141     H
H        0.472    0.683   0.8859     H
H        0.472    0.817   0.3859     H
H        0.472    0.817   0.6141     H
H        0.472   0.8859    0.317     H
H        0.472   0.8859    0.683     H
C      0.48323  0.12819  0.33032     C
C      0.48323  0.12819  0.66968     C
C      0.48323  0.16968  0.37181     C
C      0.48323  0.16968  0.62819     C
C      0.48323  0.33032  0.12819     C
C      0.48323  0.33032  0.87181     C
C      0.48323  0.37181  0.16968     C
C      0.48323  0.37181  0.83032     C
C      0.48323  0.62819  0.16968     C
C      0.48323  0.62819  0.83032     C
C      0.48323  0.66968  0.12819     C
C      0.48323  0.66968  0.87181     C
C      0.48323  0.83032  0.37181     C
C      0.48323  0.83032  0.62819     C
C      0.48323  0.87181  0.33032     C
C      0.48323  0.87181  0.66968     C
Ni         0.5      0.0   0.2278    Ni
Ni         0.5      0.0   0.7722    Ni
Ni         0.5   0.2278      0.0    Ni
Ni         0.5   0.2722      0.5    Ni
Ni         0.5      0.5   0.2722    Ni
Ni         0.5      0.5   0.7278    Ni
Ni         0.5   0.7278      0.5    Ni
Ni         0.5   0.7722      0.0    Ni
C      0.51677  0.12819  0.33032     C
C      0.51677  0.12819  0.66968     C
C      0.51677  0.16968  0.37181     C
C      0.51677  0.16968  0.62819     C
C      0.51677  0.33032  0.12819     C
C      0.51677  0.33032  0.87181     C
C      0.51677  0.37181  0.16968     C
C      0.51677  0.37181  0.83032     C
C      0.51677  0.62819  0.16968     C
C      0.51677  0.62819  0.83032     C
C      0.51677  0.66968  0.12819     C
C      0.51677  0.66968  0.87181     C
C      0.51677  0.83032  0.37181     C
C      0.51677  0.83032  0.62819     C
C      0.51677  0.87181  0.33032     C
C      0.51677  0.87181  0.66968     C
H        0.528   0.1141    0.317     H
H        0.528   0.1141    0.683     H
H        0.528    0.183   0.3859     H
H        0.528    0.183   0.6141     H
H        0.528    0.317   0.1141     H
H        0.528    0.317   0.8859     H
H        0.528   0.3859    0.183     H
H        0.528   0.3859    0.817     H
H        0.528   0.6141    0.183     H
H        0.528   0.6141    0.817     H
H        0.528    0.683   0.1141     H
H        0.528    0.683   0.8859     H
H        0.528    0.817   0.3859     H
H        0.528    0.817   0.6141     H
H        0.528   0.8859    0.317     H
H        0.528   0.8859    0.683     H
O        0.533    0.033   0.2311     O
O        0.533    0.033   0.7689     O
O        0.533   0.2311    0.033     O
O        0.533   0.2311    0.967     O
O        0.533   0.2689    0.467     O
O        0.533   0.2689    0.533     O
O        0.533    0.467   0.2689     O
O        0.533    0.467   0.7311     O
O        0.533    0.533   0.2689     O
O        0.533    0.533   0.7311     O
O        0.533   0.7311    0.467     O
O        0.533   0.7311    0.533     O
O        0.533   0.7689    0.033     O
O        0.533   0.7689    0.967     O
O        0.533    0.967   0.2311     O
O        0.533    0.967   0.7689     O
C      0.53349  0.14949  0.35051     C
C      0.53349  0.14949  0.64949     C
C      0.53349  0.35051  0.14949     C
C      0.53349  0.35051  0.85051     C
C      0.53349  0.64949  0.14949     C
C      0.53349  0.64949  0.85051     C
C      0.53349  0.85051  0.35051     C
C      0.53349  0.85051  0.64949     C
O       0.5378   0.0378   0.2781     O
O       0.5378   0.0378   0.7219     O
O       0.5378   0.2219   0.4622     O
O       0.5378   0.2219   0.5378     O
O       0.5378   0.2781   0.0378     O
O       0.5378   0.2781   0.9622     O
O       0.5378   0.4622   0.2219     O
O       0.5378   0.4622   0.7781     O
O       0.5378   0.5378   0.2219     O
O       0.5378   0.5378   0.7781     O
O       0.5378   0.7219   0.0378     O
O       0.5378   0.7219   0.9622     O
O       0.5378   0.7781   0.4622     O
O       0.5378   0.7781   0.5378     O
O       0.5378   0.9622   0.2781     O
O       0.5378   0.9622   0.7219     O
C         0.55     0.05   0.2517     C
C         0.55     0.05   0.7483     C
C         0.55   0.2483     0.45     C
C         0.55   0.2483     0.55     C
C         0.55   0.2517     0.05     C
C         0.55   0.2517     0.95     C
C         0.55     0.45   0.2483     C
C         0.55     0.45   0.7517     C
C         0.55     0.55   0.2483     C
C         0.55     0.55   0.7517     C
C         0.55   0.7483     0.05     C
C         0.55   0.7483     0.95     C
C         0.55   0.7517     0.45     C
C         0.55   0.7517     0.55     C
C         0.55     0.95   0.2517     C
C         0.55     0.95   0.7483     C
C      0.56983  0.15034  0.34966     C
C      0.56983  0.15034  0.65034     C
C      0.56983  0.34966  0.15034     C
C      0.56983  0.34966  0.84966     C
C      0.56983  0.65034  0.15034     C
C      0.56983  0.65034  0.84966     C
C      0.56983  0.84966  0.34966     C
C      0.56983  0.84966  0.65034     C
C       0.5699   0.0699    0.248     C
C       0.5699   0.0699    0.752     C
C       0.5699    0.248   0.0699     C
C       0.5699    0.248   0.9301     C
C       0.5699    0.252   0.4301     C
C       0.5699    0.252   0.5699     C
C       0.5699   0.4301    0.252     C
C       0.5699   0.4301    0.748     C
C       0.5699   0.5699    0.252     C
C       0.5699   0.5699    0.748     C
C       0.5699    0.748   0.4301     C
C       0.5699    0.748   0.5699     C
C       0.5699    0.752   0.0699     C
C       0.5699    0.752   0.9301     C
C       0.5699   0.9301    0.248     C
C       0.5699   0.9301    0.752     C
H       0.5702   0.0702   0.1994     H
H       0.5702   0.0702   0.8006     H
H       0.5702   0.1994   0.0702     H
H       0.5702   0.1994   0.9298     H
H       0.5702   0.3006   0.4298     H
H       0.5702   0.3006   0.5702     H
H       0.5702   0.4298   0.3006     H
H       0.5702   0.4298   0.6994     H
H       0.5702   0.5702   0.3006     H
H       0.5702   0.5702   0.6994     H
H       0.5702   0.6994   0.4298     H
H       0.5702   0.6994   0.5702     H
H       0.5702   0.8006   0.0702     H
H       0.5702   0.8006   0.9298     H
H       0.5702   0.9298   0.1994     H
H       0.5702   0.9298   0.8006     H
H       0.5783   0.0783   0.2956     H
H       0.5783   0.0783   0.7044     H
H       0.5783   0.2044   0.4217     H
H       0.5783   0.2044   0.5783     H
H       0.5783   0.2956   0.0783     H
H       0.5783   0.2956   0.9217     H
H       0.5783   0.4217   0.2044     H
H       0.5783   0.4217   0.7956     H
H       0.5783   0.5783   0.2044     H
H       0.5783   0.5783   0.7956     H
H       0.5783   0.7044   0.0783     H
H       0.5783   0.7044   0.9217     H
H       0.5783   0.7956   0.4217     H
H       0.5783   0.7956   0.5783     H
H       0.5783   0.9217   0.2956     H
H       0.5783   0.9217   0.7044     H
C       0.5796   0.0796   0.2175     C
C       0.5796   0.0796   0.7825     C
C       0.5796   0.2175   0.0796     C
C       0.5796   0.2175   0.9204     C
C       0.5796   0.2825   0.4204     C
C       0.5796   0.2825   0.5796     C
C       0.5796   0.4204   0.2825     C
C       0.5796   0.4204   0.7175     C
C       0.5796   0.5796   0.2825     C
C       0.5796   0.5796   0.7175     C
C       0.5796   0.7175   0.4204     C
C       0.5796   0.7175   0.5796     C
C       0.5796   0.7825   0.0796     C
C       0.5796   0.7825   0.9204     C
C       0.5796   0.9204   0.2175     C
C       0.5796   0.9204   0.7825     C
O      0.58337  0.13208  0.32995     O
O      0.58337  0.13208  0.67005     O
O      0.58337  0.17005  0.36792     O
O      0.58337  0.17005  0.63208     O
O      0.58337  0.32995  0.13208     O
O      0.58337  0.32995  0.86792     O
O      0.58337  0.36792  0.17005     O
O      0.58337  0.36792  0.82995     O
O      0.58337  0.63208  0.17005     O
O      0.58337  0.63208  0.82995     O
O      0.58337  0.67005  0.13208     O
O      0.58337  0.67005  0.86792     O
O      0.58337  0.82995  0.36792     O
O      0.58337  0.82995  0.63208     O
O      0.58337  0.86792  0.32995     O
O      0.58337  0.86792  0.67005     O
C       0.5845   0.0845   0.2749     C
C       0.5845   0.0845   0.7251     C
C       0.5845   0.2251   0.4155     C
C       0.5845   0.2251   0.5845     C
C       0.5845   0.2749   0.0845     C
C       0.5845   0.2749   0.9155     C
C       0.5845   0.4155   0.2251     C
C       0.5845   0.4155   0.7749     C
C       0.5845   0.5845   0.2251     C
C       0.5845   0.5845   0.7749     C
C       0.5845   0.7251   0.0845     C
C       0.5845   0.7251   0.9155     C
C       0.5845   0.7749   0.4155     C
C       0.5845   0.7749   0.5845     C
C       0.5845   0.9155   0.2749     C
C       0.5845   0.9155   0.7251     C
C       0.6029   0.1029   0.2136     C
C       0.6029   0.1029   0.7864     C
C       0.6029   0.2136   0.1029     C
C       0.6029   0.2136   0.8971     C
C       0.6029   0.2864   0.3971     C
C       0.6029   0.2864   0.6029     C
C       0.6029   0.3971   0.2864     C
C       0.6029   0.3971   0.7136     C
C       0.6029   0.6029   0.2864     C
C       0.6029   0.6029   0.7136     C
C       0.6029   0.7136   0.3971     C
C       0.6029   0.7136   0.6029     C
C       0.6029   0.7864   0.1029     C
C       0.6029   0.7864   0.8971     C
C       0.6029   0.8971   0.2136     C
C       0.6029   0.8971   0.7864     C
N       0.6084   0.1084   0.2709     N
N       0.6084   0.1084   0.7291     N
N       0.6084   0.2291   0.3916     N
N       0.6084   0.2291   0.6084     N
N       0.6084   0.2709   0.1084     N
N       0.6084   0.2709   0.8916     N
N       0.6084   0.3916   0.2291     N
N       0.6084   0.3916   0.7709     N
N       0.6084   0.6084   0.2291     N
N       0.6084   0.6084   0.7709     N
N       0.6084   0.7291   0.1084     N
N       0.6084   0.7291   0.8916     N
N       0.6084   0.7709   0.3916     N
N       0.6084   0.7709   0.6084     N
N       0.6084   0.8916   0.2709     N
N       0.6084   0.8916   0.7291     N
H       0.6091   0.1091    0.193     H
H       0.6091   0.1091    0.807     H
H       0.6091    0.193   0.1091     H
H       0.6091    0.193   0.8909     H
H       0.6091    0.307   0.3909     H
H       0.6091    0.307   0.6091     H
H       0.6091   0.3909    0.307     H
H       0.6091   0.3909    0.693     H
H       0.6091   0.6091    0.307     H
H       0.6091   0.6091    0.693     H
H       0.6091    0.693   0.3909     H
H       0.6091    0.693   0.6091     H
H       0.6091    0.807   0.1091     H
H       0.6091    0.807   0.8909     H
H       0.6091   0.8909    0.193     H
H       0.6091   0.8909    0.807     H
H       0.6141    0.028    0.317     H
H       0.6141    0.028    0.683     H
H       0.6141    0.183    0.472     H
H       0.6141    0.183    0.528     H
H       0.6141    0.317    0.028     H
H       0.6141    0.317    0.972     H
H       0.6141    0.472    0.183     H
H       0.6141    0.472    0.817     H
H       0.6141    0.528    0.183     H
H       0.6141    0.528    0.817     H
H       0.6141    0.683    0.028     H
H       0.6141    0.683    0.972     H
H       0.6141    0.817    0.472     H
H       0.6141    0.817    0.528     H
H       0.6141    0.972    0.317     H
H       0.6141    0.972    0.683     H
C       0.6171   0.1171   0.2401     C
C       0.6171   0.1171   0.7599     C
C       0.6171   0.2401   0.1171     C
C       0.6171   0.2401   0.8829     C
C       0.6171   0.2599   0.3829     C
C       0.6171   0.2599   0.6171     C
C       0.6171   0.3829   0.2599     C
C       0.6171   0.3829   0.7401     C
C       0.6171   0.6171   0.2599     C
C       0.6171   0.6171   0.7401     C
C       0.6171   0.7401   0.3829     C
C       0.6171   0.7401   0.6171     C
C       0.6171   0.7599   0.1171     C
C       0.6171   0.7599   0.8829     C
C       0.6171   0.8829   0.2401     C
C       0.6171   0.8829   0.7599     C
C       0.6227  0.22618  0.27382     C
C       0.6227  0.22618  0.72618     C
C       0.6227  0.27382  0.22618     C
C       0.6227  0.27382  0.77382     C
C       0.6227  0.72618  0.22618     C
C       0.6227  0.72618  0.77382     C
C       0.6227  0.77382  0.27382     C
C       0.6227  0.77382  0.72618     C
C       0.6233   0.2182   0.2423     C
C       0.6233   0.2182   0.7577     C
C       0.6233   0.2423   0.2182     C
C       0.6233   0.2423   0.7818     C
C       0.6233   0.2577   0.2818     C
C       0.6233   0.2577   0.7182     C
C       0.6233   0.2818   0.2577     C
C       0.6233   0.2818   0.7423     C
C       0.6233   0.7182   0.2577     C
C       0.6233   0.7182   0.7423     C
C       0.6233   0.7423   0.2818     C
C       0.6233   0.7423   0.7182     C
C       0.6233   0.7577   0.2182     C
C       0.6233   0.7577   0.7818     C
C       0.6233   0.7818   0.2423     C
C       0.6233   0.7818   0.7577     C
H       0.6237   0.1965   0.2363     H
H       0.6237   0.1965   0.7637     H
H       0.6237   0.2363   0.1965     H
H       0.6237   0.2363   0.8035     H
H       0.6237   0.2637   0.3035     H
H       0.6237   0.2637   0.6965     H
H       0.6237   0.3035   0.2637     H
H       0.6237   0.3035   0.7363     H
H       0.6237   0.6965   0.2637     H
H       0.6237   0.6965   0.7363     H
H       0.6237   0.7363   0.3035     H
H       0.6237   0.7363   0.6965     H
H       0.6237   0.7637   0.1965     H
H       0.6237   0.7637   0.8035     H
H       0.6237   0.8035   0.2363     H
H       0.6237   0.8035   0.7637     H
C        0.624  0.19954  0.30046     C
C        0.624  0.19954  0.69954     C
C        0.624  0.30046  0.19954     C
C        0.624  0.30046  0.80046     C
C        0.624  0.69954  0.19954     C
C        0.624  0.69954  0.80046     C
C        0.624  0.80046  0.30046     C
C        0.624  0.80046  0.69954     C
O      0.62406  0.17264   0.2902     O
O      0.62406  0.17264   0.7098     O
O      0.62406   0.2098  0.32736     O
O      0.62406   0.2098  0.67264     O
O      0.62406   0.2902  0.17264     O
O      0.62406   0.2902  0.82736     O
O      0.62406  0.32736   0.2098     O
O      0.62406  0.32736   0.7902     O
O      0.62406  0.67264   0.2098     O
O      0.62406  0.67264   0.7902     O
O      0.62406   0.7098  0.17264     O
O      0.62406   0.7098  0.82736     O
O      0.62406   0.7902  0.32736     O
O      0.62406   0.7902  0.67264     O
O      0.62406  0.82736   0.2902     O
O      0.62406  0.82736   0.7098     O
C      0.62819  0.01677  0.33032     C
C      0.62819  0.01677  0.66968     C
C      0.62819  0.16968  0.48323     C
C      0.62819  0.16968  0.51677     C
C      0.62819  0.33032  0.01677     C
C      0.62819  0.33032  0.98323     C
C      0.62819  0.48323  0.16968     C
C      0.62819  0.48323  0.83032     C
C      0.62819  0.51677  0.16968     C
C      0.62819  0.51677  0.83032     C
C      0.62819  0.66968  0.01677     C
C      0.62819  0.66968  0.98323     C
C      0.62819  0.83032  0.48323     C
C      0.62819  0.83032  0.51677     C
C      0.62819  0.98323  0.33032     C
C      0.62819  0.98323  0.66968     C
Ni     0.62899  0.12899  0.31227    Ni
Ni     0.62899  0.12899  0.68773    Ni
Ni     0.62899  0.18773  0.37101    Ni
Ni     0.62899  0.18773  0.62899    Ni
Ni     0.62899  0.31227  0.12899    Ni
Ni     0.62899  0.31227  0.87101    Ni
Ni     0.62899  0.37101  0.18773    Ni
Ni     0.62899  0.37101  0.81227    Ni
Ni     0.62899  0.62899  0.18773    Ni
Ni     0.62899  0.62899  0.81227    Ni
Ni     0.62899  0.68773  0.12899    Ni
Ni     0.62899  0.68773  0.87101    Ni
Ni     0.62899  0.81227  0.37101    Ni
Ni     0.62899  0.81227  0.62899    Ni
Ni     0.62899  0.87101  0.31227    Ni
Ni     0.62899  0.87101  0.68773    Ni
O      0.63208  0.08337  0.32995     O
O      0.63208  0.08337  0.67005     O
O      0.63208  0.17005  0.41663     O
O      0.63208  0.17005  0.58337     O
O      0.63208  0.32995  0.08337     O
O      0.63208  0.32995  0.91663     O
O      0.63208  0.41663  0.17005     O
O      0.63208  0.41663  0.82995     O
O      0.63208  0.58337  0.17005     O
O      0.63208  0.58337  0.82995     O
O      0.63208  0.67005  0.08337     O
O      0.63208  0.67005  0.91663     O
O      0.63208  0.82995  0.41663     O
O      0.63208  0.82995  0.58337     O
O      0.63208  0.91663  0.32995     O
O      0.63208  0.91663  0.67005     O
H       0.6329   0.1329   0.2371     H
H       0.6329   0.1329   0.7629     H
H       0.6329   0.2371   0.1329     H
H       0.6329   0.2371   0.8671     H
H       0.6329   0.2629   0.3671     H
H       0.6329   0.2629   0.6329     H
H       0.6329   0.3671   0.2629     H
H       0.6329   0.3671   0.7371     H
H       0.6329   0.6329   0.2629     H
H       0.6329   0.6329   0.7371     H
H       0.6329   0.7371   0.3671     H
H       0.6329   0.7371   0.6329     H
H       0.6329   0.7629   0.1329     H
H       0.6329   0.7629   0.8671     H
H       0.6329   0.8671   0.2371     H
H       0.6329   0.8671   0.7629     H
O      0.64659  0.14659  0.35341     O
O      0.64659  0.14659  0.64659     O
O      0.64659  0.35341  0.14659     O
O      0.64659  0.35341  0.85341     O
O      0.64659  0.64659  0.14659     O
O      0.64659  0.64659  0.85341     O
O      0.64659  0.85341  0.35341     O
O      0.64659  0.85341  0.64659     O
C      0.64949  0.03349  0.35051     C
C      0.64949  0.03349  0.64949     C
C      0.64949  0.14949  0.46651     C
C      0.64949  0.14949  0.53349     C
C      0.64949  0.35051  0.03349     C
C      0.64949  0.35051  0.96651     C
C      0.64949  0.46651  0.14949     C
C      0.64949  0.46651  0.85051     C
C      0.64949  0.53349  0.14949     C
C      0.64949  0.53349  0.85051     C
C      0.64949  0.64949  0.03349     C
C      0.64949  0.64949  0.96651     C
C      0.64949  0.85051  0.46651     C
C      0.64949  0.85051  0.53349     C
C      0.64949  0.96651  0.35051     C
C      0.64949  0.96651  0.64949     C
C      0.65034  0.06983  0.34966     C
C      0.65034  0.06983  0.65034     C
C      0.65034  0.15034  0.43017     C
C      0.65034  0.15034  0.56983     C
C      0.65034  0.34966  0.06983     C
C      0.65034  0.34966  0.93017     C
C      0.65034  0.43017  0.15034     C
C      0.65034  0.43017  0.84966     C
C      0.65034  0.56983  0.15034     C
C      0.65034  0.56983  0.84966     C
C      0.65034  0.65034  0.06983     C
C      0.65034  0.65034  0.93017     C
C      0.65034  0.84966  0.43017     C
C      0.65034  0.84966  0.56983     C
C      0.65034  0.93017  0.34966     C
C      0.65034  0.93017  0.65034     C
C      0.66968  0.01677  0.37181     C
C      0.66968  0.01677  0.62819     C
C      0.66968  0.12819  0.48323     C
C      0.66968  0.12819  0.51677     C
C      0.66968  0.37181  0.01677     C
C      0.66968  0.37181  0.98323     C
C      0.66968  0.48323  0.12819     C
C      0.66968  0.48323  0.87181     C
C      0.66968  0.51677  0.12819     C
C      0.66968  0.51677  0.87181     C
C      0.66968  0.62819  0.01677     C
C      0.66968  0.62819  0.98323     C
C      0.66968  0.87181  0.48323     C
C      0.66968  0.87181  0.51677     C
C      0.66968  0.98323  0.37181     C
C      0.66968  0.98323  0.62819     C
O      0.67005  0.08337  0.36792     O
O      0.67005  0.08337  0.63208     O
O      0.67005  0.13208  0.41663     O
O      0.67005  0.13208  0.58337     O
O      0.67005  0.36792  0.08337     O
O      0.67005  0.36792  0.91663     O
O      0.67005  0.41663  0.13208     O
O      0.67005  0.41663  0.86792     O
O      0.67005  0.58337  0.13208     O
O      0.67005  0.58337  0.86792     O
O      0.67005  0.63208  0.08337     O
O      0.67005  0.63208  0.91663     O
O      0.67005  0.86792  0.41663     O
O      0.67005  0.86792  0.58337     O
O      0.67005  0.91663  0.36792     O
O      0.67005  0.91663  0.63208     O
O      0.67264  0.12406   0.2902     O
O      0.67264  0.12406   0.7098     O
O      0.67264   0.2098  0.37594     O
O      0.67264   0.2098  0.62406     O
O      0.67264   0.2902  0.12406     O
O      0.67264   0.2902  0.87594     O
O      0.67264  0.37594   0.2098     O
O      0.67264  0.37594   0.7902     O
O      0.67264  0.62406   0.2098     O
O      0.67264  0.62406   0.7902     O
O      0.67264   0.7098  0.12406     O
O      0.67264   0.7098  0.87594     O
O      0.67264   0.7902  0.37594     O
O      0.67264   0.7902  0.62406     O
O      0.67264  0.87594   0.2902     O
O      0.67264  0.87594   0.7098     O
H        0.683    0.028   0.3859     H
H        0.683    0.028   0.6141     H
H        0.683   0.1141    0.472     H
H        0.683   0.1141    0.528     H
H        0.683   0.3859    0.028     H
H        0.683   0.3859    0.972     H
H        0.683    0.472   0.1141     H
H        0.683    0.472   0.8859     H
H        0.683    0.528   0.1141     H
H        0.683    0.528   0.8859     H
H        0.683   0.6141    0.028     H
H        0.683   0.6141    0.972     H
H        0.683   0.8859    0.472     H
H        0.683   0.8859    0.528     H
H        0.683    0.972   0.3859     H
H        0.683    0.972   0.6141     H
Ni     0.68773  0.12899  0.37101    Ni
Ni     0.68773  0.12899  0.62899    Ni
Ni     0.68773  0.37101  0.12899    Ni
Ni     0.68773  0.37101  0.87101    Ni
Ni     0.68773  0.62899  0.12899    Ni
Ni     0.68773  0.62899  0.87101    Ni
Ni     0.68773  0.87101  0.37101    Ni
Ni     0.68773  0.87101  0.62899    Ni
H        0.693   0.1091   0.1091     H
H        0.693   0.1091   0.8909     H
H        0.693   0.3909   0.3909     H
H        0.693   0.3909   0.6091     H
H        0.693   0.6091   0.3909     H
H        0.693   0.6091   0.6091     H
H        0.693   0.8909   0.1091     H
H        0.693   0.8909   0.8909     H
H       0.6965   0.1237   0.2363     H
H       0.6965   0.1237   0.7637     H
H       0.6965   0.2363   0.1237     H
H       0.6965   0.2363   0.8763     H
H       0.6965   0.2637   0.3763     H
H       0.6965   0.2637   0.6237     H
H       0.6965   0.3763   0.2637     H
H       0.6965   0.3763   0.7363     H
H       0.6965   0.6237   0.2637     H
H       0.6965   0.6237   0.7363     H
H       0.6965   0.7363   0.3763     H
H       0.6965   0.7363   0.6237     H
H       0.6965   0.7637   0.1237     H
H       0.6965   0.7637   0.8763     H
H       0.6965   0.8763   0.2363     H
H       0.6965   0.8763   0.7637     H
H       0.6994   0.0702   0.0702     H
H       0.6994   0.0702   0.9298     H
H       0.6994   0.4298   0.4298     H
H       0.6994   0.4298   0.5702     H
H       0.6994   0.5702   0.4298     H
H       0.6994   0.5702   0.5702     H
H       0.6994   0.9298   0.0702     H
H       0.6994   0.9298   0.9298     H
C      0.69954    0.124  0.30046     C
C      0.69954    0.124  0.69954     C
C      0.69954  0.19954    0.376     C
C      0.69954  0.19954    0.624     C
C      0.69954  0.30046    0.124     C
C      0.69954  0.30046    0.876     C
C      0.69954    0.376  0.19954     C
C      0.69954    0.376  0.80046     C
C      0.69954    0.624  0.19954     C
C      0.69954    0.624  0.80046     C
C      0.69954  0.69954    0.124     C
C      0.69954  0.69954    0.876     C
C      0.69954  0.80046    0.376     C
C      0.69954  0.80046    0.624     C
C      0.69954    0.876  0.30046     C
C      0.69954    0.876  0.69954     C
H       0.7044   0.0783   0.4217     H
H       0.7044   0.0783   0.5783     H
H       0.7044   0.4217   0.0783     H
H       0.7044   0.4217   0.9217     H
H       0.7044   0.5783   0.0783     H
H       0.7044   0.5783   0.9217     H
H       0.7044   0.9217   0.4217     H
H       0.7044   0.9217   0.5783     H
O       0.7098  0.12406  0.32736     O
O       0.7098  0.12406  0.67264     O
O       0.7098  0.17264  0.37594     O
O       0.7098  0.17264  0.62406     O
O       0.7098  0.32736  0.12406     O
O       0.7098  0.32736  0.87594     O
O       0.7098  0.37594  0.17264     O
O       0.7098  0.37594  0.82736     O
O       0.7098  0.62406  0.17264     O
O       0.7098  0.62406  0.82736     O
O       0.7098  0.67264  0.12406     O
O       0.7098  0.67264  0.87594     O
O       0.7098  0.82736  0.37594     O
O       0.7098  0.82736  0.62406     O
O       0.7098  0.87594  0.32736     O
O       0.7098  0.87594  0.67264     O
C       0.7136   0.1029   0.1029     C
C       0.7136   0.1029   0.8971     C
C       0.7136   0.3971   0.3971     C
C       0.7136   0.3971   0.6029     C
C       0.7136   0.6029   0.3971     C
C       0.7136   0.6029   0.6029     C
C       0.7136   0.8971   0.1029     C
C       0.7136   0.8971   0.8971     C
C       0.7175   0.0796   0.0796     C
C       0.7175   0.0796   0.9204     C
C       0.7175   0.4204   0.4204     C
C       0.7175   0.4204   0.5796     C
C       0.7175   0.5796   0.4204     C
C       0.7175   0.5796   0.5796     C
C       0.7175   0.9204   0.0796     C
C       0.7175   0.9204   0.9204     C
C       0.7182   0.1233   0.2423     C
C       0.7182   0.1233   0.7577     C
C       0.7182   0.2423   0.1233     C
C       0.7182   0.2423   0.8767     C
C       0.7182   0.2577   0.3767     C
C       0.7182   0.2577   0.6233     C
C       0.7182   0.3767   0.2577     C
C       0.7182   0.3767   0.7423     C
C       0.7182   0.6233   0.2577     C
C       0.7182   0.6233   0.7423     C
C       0.7182   0.7423   0.3767     C
C       0.7182   0.7423   0.6233     C
C       0.7182   0.7577   0.1233     C
C       0.7182   0.7577   0.8767     C
C       0.7182   0.8767   0.2423     C
C       0.7182   0.8767   0.7577     C
O       0.7219   0.0378   0.4622     O
O       0.7219   0.0378   0.5378     O
O       0.7219   0.4622   0.0378     O
O       0.7219   0.4622   0.9622     O
O       0.7219   0.5378   0.0378     O
O       0.7219   0.5378   0.9622     O
O       0.7219   0.9622   0.4622     O
O       0.7219   0.9622   0.5378     O
C       0.7251   0.0845   0.4155     C
C       0.7251   0.0845   0.5845     C
C       0.7251   0.4155   0.0845     C
C       0.7251   0.4155   0.9155     C
C       0.7251   0.5845   0.0845     C
C       0.7251   0.5845   0.9155     C
C       0.7251   0.9155   0.4155     C
C       0.7251   0.9155   0.5845     C
C      0.72618   0.1227  0.27382     C
C      0.72618   0.1227  0.72618     C
C      0.72618  0.22618   0.3773     C
C      0.72618  0.22618   0.6227     C
C      0.72618  0.27382   0.1227     C
C      0.72618  0.27382   0.8773     C
C      0.72618   0.3773  0.22618     C
C      0.72618   0.3773  0.77382     C
C      0.72618   0.6227  0.22618     C
C      0.72618   0.6227  0.77382     C
C      0.72618  0.72618   0.1227     C
C      0.72618  0.72618   0.8773     C
C      0.72618  0.77382   0.3773     C
C      0.72618  0.77382   0.6227     C
C      0.72618   0.8773  0.27382     C
C      0.72618   0.8773  0.72618     C
Ni      0.7278      0.0      0.0    Ni
Ni      0.7278      0.5      0.5    Ni
N       0.7291   0.1084   0.3916     N
N       0.7291   0.1084   0.6084     N
N       0.7291   0.3916   0.1084     N
N       0.7291   0.3916   0.8916     N
N       0.7291   0.6084   0.1084     N
N       0.7291   0.6084   0.8916     N
N       0.7291   0.8916   0.3916     N
N       0.7291   0.8916   0.6084     N
O       0.7311    0.033    0.033     O
O       0.7311    0.033    0.967     O
O       0.7311    0.467    0.467     O
O       0.7311    0.467    0.533     O
O       0.7311    0.533    0.467     O
O       0.7311    0.533    0.533     O
O       0.7311    0.967    0.033     O
O       0.7311    0.967    0.967     O
H       0.7363   0.1237   0.1965     H
H       0.7363   0.1237   0.8035     H
H       0.7363   0.1965   0.1237     H
H       0.7363   0.1965   0.8763     H
H       0.7363   0.3035   0.3763     H
H       0.7363   0.3035   0.6237     H
H       0.7363   0.3763   0.3035     H
H       0.7363   0.3763   0.6965     H
H       0.7363   0.6237   0.3035     H
H       0.7363   0.6237   0.6965     H
H       0.7363   0.6965   0.3763     H
H       0.7363   0.6965   0.6237     H
H       0.7363   0.8035   0.1237     H
H       0.7363   0.8035   0.8763     H
H       0.7363   0.8763   0.1965     H
H       0.7363   0.8763   0.8035     H
H       0.7371   0.1329   0.1329     H
H       0.7371   0.1329   0.8671     H
H       0.7371   0.3671   0.3671     H
H       0.7371   0.3671   0.6329     H
H       0.7371   0.6329   0.3671     H
H       0.7371   0.6329   0.6329     H
H       0.7371   0.8671   0.1329     H
H       0.7371   0.8671   0.8671     H
C       0.7401   0.1171   0.1171     C
C       0.7401   0.1171   0.8829     C
C       0.7401   0.3829   0.3829     C
C       0.7401   0.3829   0.6171     C
C       0.7401   0.6171   0.3829     C
C       0.7401   0.6171   0.6171     C
C       0.7401   0.8829   0.1171     C
C       0.7401   0.8829   0.8829     C
C       0.7423   0.1233   0.2182     C
C       0.7423   0.1233   0.7818     C
C       0.7423   0.2182   0.1233     C
C       0.7423   0.2182   0.8767     C
C       0.7423   0.2818   0.3767     C
C       0.7423   0.2818   0.6233     C
C       0.7423   0.3767   0.2818     C
C       0.7423   0.3767   0.7182     C
C       0.7423   0.6233   0.2818     C
C       0.7423   0.6233   0.7182     C
C       0.7423   0.7182   0.3767     C
C       0.7423   0.7182   0.6233     C
C       0.7423   0.7818   0.1233     C
C       0.7423   0.7818   0.8767     C
C       0.7423   0.8767   0.2182     C
C       0.7423   0.8767   0.7818     C
C        0.748   0.0699   0.0699     C
C        0.748   0.0699   0.9301     C
C        0.748   0.4301   0.4301     C
C        0.748   0.4301   0.5699     C
C        0.748   0.5699   0.4301     C
C        0.748   0.5699   0.5699     C
C        0.748   0.9301   0.0699     C
C        0.748   0.9301   0.9301     C
C       0.7483     0.05     0.45     C
C       0.7483     0.05     0.55     C
C       0.7483     0.45     0.05     C
C       0.7483     0.45     0.95     C
C       0.7483     0.55     0.05     C
C       0.7483     0.55     0.95     C
C       0.7483     0.95     0.45     C
C       0.7483     0.95     0.55     C
C       0.7517     0.05     0.05     C
C       0.7517     0.05     0.95     C
C       0.7517     0.45     0.45     C
C       0.7517     0.45     0.55     C
C       0.7517     0.55     0.45     C
C       0.7517     0.55     0.55     C
C       0.7517     0.95     0.05     C
C       0.7517     0.95     0.95     C
C        0.752   0.0699   0.4301     C
C        0.752   0.0699   0.5699     C
C        0.752   0.4301   0.0699     C
C        0.752   0.4301   0.9301     C
C        0.752   0.5699   0.0699     C
C        0.752   0.5699   0.9301     C
C        0.752   0.9301   0.4301     C
C        0.752   0.9301   0.5699     C
C       0.7577   0.1233   0.2818     C
C       0.7577   0.1233   0.7182     C
C       0.7577   0.2182   0.3767     C
C       0.7577   0.2182   0.6233     C
C       0.7577   0.2818   0.1233     C
C       0.7577   0.2818   0.8767     C
C       0.7577   0.3767   0.2182     C
C       0.7577   0.3767   0.7818     C
C       0.7577   0.6233   0.2182     C
C       0.7577   0.6233   0.7818     C
C       0.7577   0.7182   0.1233     C
C       0.7577   0.7182   0.8767     C
C       0.7577   0.7818   0.3767     C
C       0.7577   0.7818   0.6233     C
C       0.7577   0.8767   0.2818     C
C       0.7577   0.8767   0.7182     C
C       0.7599   0.1171   0.3829     C
C       0.7599   0.1171   0.6171     C
C       0.7599   0.3829   0.1171     C
C       0.7599   0.3829   0.8829     C
C       0.7599   0.6171   0.1171     C
C       0.7599   0.6171   0.8829     C
C       0.7599   0.8829   0.3829     C
C       0.7599   0.8829   0.6171     C
H       0.7629   0.1329   0.3671     H
H       0.7629   0.1329   0.6329     H
H       0.7629   0.3671   0.1329     H
H       0.7629   0.3671   0.8671     H
H       0.7629   0.6329   0.1329     H
H       0.7629   0.6329   0.8671     H
H       0.7629   0.8671   0.3671     H
H       0.7629   0.8671   0.6329     H
H       0.7637   0.1237   0.3035     H
H       0.7637   0.1237   0.6965     H
H       0.7637   0.1965   0.3763     H
H       0.7637   0.1965   0.6237     H
H       0.7637   0.3035   0.1237     H
H       0.7637   0.3035   0.8763     H
H       0.7637   0.3763   0.1965     H
H       0.7637   0.3763   0.8035     H
H       0.7637   0.6237   0.1965     H
H       0.7637   0.6237   0.8035     H
H       0.7637   0.6965   0.1237     H
H       0.7637   0.6965   0.8763     H
H       0.7637   0.8035   0.3763     H
H       0.7637   0.8035   0.6237     H
H       0.7637   0.8763   0.3035     H
H       0.7637   0.8763   0.6965     H
O       0.7689    0.033    0.467     O
O       0.7689    0.033    0.533     O
O       0.7689    0.467    0.033     O
O       0.7689    0.467    0.967     O
O       0.7689    0.533    0.033     O
O       0.7689    0.533    0.967     O
O       0.7689    0.967    0.467     O
O       0.7689    0.967    0.533     O
N       0.7709   0.1084   0.1084     N
N       0.7709   0.1084   0.8916     N
N       0.7709   0.3916   0.3916     N
N       0.7709   0.3916   0.6084     N
N       0.7709   0.6084   0.3916     N
N       0.7709   0.6084   0.6084     N
N       0.7709   0.8916   0.1084     N
N       0.7709   0.8916   0.8916     N
Ni      0.7722      0.0      0.5    Ni
Ni      0.7722      0.5      0.0    Ni
C      0.77382   0.1227  0.22618     C
C      0.77382   0.1227  0.77382     C
C      0.77382  0.22618   0.1227     C
C      0.77382  0.22618   0.8773     C
C      0.77382  0.27382   0.3773     C
C      0.77382  0.27382   0.6227     C
C      0.77382   0.3773  0.27382     C
C      0.77382   0.3773  0.72618     C
C      0.77382   0.6227  0.27382     C
C      0.77382   0.6227  0.72618     C
C      0.77382  0.72618   0.3773     C
C      0.77382  0.72618   0.6227     C
C      0.77382  0.77382   0.1227     C
C      0.77382  0.77382   0.8773     C
C      0.77382   0.8773  0.22618     C
C      0.77382   0.8773  0.77382     C
C       0.7749   0.0845   0.0845     C
C       0.7749   0.0845   0.9155     C
C       0.7749   0.4155   0.4155     C
C       0.7749   0.4155   0.5845     C
C       0.7749   0.5845   0.4155     C
C       0.7749   0.5845   0.5845     C
C       0.7749   0.9155   0.0845     C
C       0.7749   0.9155   0.9155     C
O       0.7781   0.0378   0.0378     O
O       0.7781   0.0378   0.9622     O
O       0.7781   0.4622   0.4622     O
O       0.7781   0.4622   0.5378     O
O       0.7781   0.5378   0.4622     O
O       0.7781   0.5378   0.5378     O
O       0.7781   0.9622   0.0378     O
O       0.7781   0.9622   0.9622     O
C       0.7818   0.1233   0.2577     C
C       0.7818   0.1233   0.7423     C
C       0.7818   0.2423   0.3767     C
C       0.7818   0.2423   0.6233     C
C       0.7818   0.2577   0.1233     C
C       0.7818   0.2577   0.8767     C
C       0.7818   0.3767   0.2423     C
C       0.7818   0.3767   0.7577     C
C       0.7818   0.6233   0.2423     C
C       0.7818   0.6233   0.7577     C
C       0.7818   0.7423   0.1233     C
C       0.7818   0.7423   0.8767     C
C       0.7818   0.7577   0.3767     C
C       0.7818   0.7577   0.6233     C
C       0.7818   0.8767   0.2577     C
C       0.7818   0.8767   0.7423     C
C       0.7825   0.0796   0.4204     C
C       0.7825   0.0796   0.5796     C
C       0.7825   0.4204   0.0796     C
C       0.7825   0.4204   0.9204     C
C       0.7825   0.5796   0.0796     C
C       0.7825   0.5796   0.9204     C
C       0.7825   0.9204   0.4204     C
C       0.7825   0.9204   0.5796     C
C       0.7864   0.1029   0.3971     C
C       0.7864   0.1029   0.6029     C
C       0.7864   0.3971   0.1029     C
C       0.7864   0.3971   0.8971     C
C       0.7864   0.6029   0.1029     C
C       0.7864   0.6029   0.8971     C
C       0.7864   0.8971   0.3971     C
C       0.7864   0.8971   0.6029     C
O       0.7902  0.12406  0.17264     O
O       0.7902  0.12406  0.82736     O
O       0.7902  0.17264  0.12406     O
O       0.7902  0.17264  0.87594     O
O       0.7902  0.32736  0.37594     O
O       0.7902  0.32736  0.62406     O
O       0.7902  0.37594  0.32736     O
O       0.7902  0.37594  0.67264     O
O       0.7902  0.62406  0.32736     O
O       0.7902  0.62406  0.67264     O
O       0.7902  0.67264  0.37594     O
O       0.7902  0.67264  0.62406     O
O       0.7902  0.82736  0.12406     O
O       0.7902  0.82736  0.87594     O
O       0.7902  0.87594  0.17264     O
O       0.7902  0.87594  0.82736     O
H       0.7956   0.0783   0.0783     H
H       0.7956   0.0783   0.9217     H
H       0.7956   0.4217   0.4217     H
H       0.7956   0.4217   0.5783     H
H       0.7956   0.5783   0.4217     H
H       0.7956   0.5783   0.5783     H
H       0.7956   0.9217   0.0783     H
H       0.7956   0.9217   0.9217     H
C      0.80046    0.124  0.19954     C
C      0.80046    0.124  0.80046     C
C      0.80046  0.19954    0.124     C
C      0.80046  0.19954    0.876     C
C      0.80046  0.30046    0.376     C
C      0.80046  0.30046    0.624     C
C      0.80046    0.376  0.30046     C
C      0.80046    0.376  0.69954     C
C      0.80046    0.624  0.30046     C
C      0.80046    0.624  0.69954     C
C      0.80046  0.69954    0.376     C
C      0.80046  0.69954    0.624     C
C      0.80046  0.80046    0.124     C
C      0.80046  0.80046    0.876     C
C      0.80046    0.876  0.19954     C
C      0.80046    0.876  0.80046     C
H       0.8006   0.0702   0.4298     H
H       0.8006   0.0702   0.5702     H
H       0.8006   0.4298   0.0702     H
H       0.8006   0.4298   0.9298     H
H       0.8006   0.5702   0.0702     H
H       0.8006   0.5702   0.9298     H
H       0.8006   0.9298   0.4298     H
H       0.8006   0.9298   0.5702     H
H       0.8035   0.1237   0.2637     H
H       0.8035   0.1237   0.7363     H
H       0.8035   0.2363   0.3763     H
H       0.8035   0.2363   0.6237     H
H       0.8035   0.2637   0.1237     H
H       0.8035   0.2637   0.8763     H
H       0.8035   0.3763   0.2363     H
H       0.8035   0.3763   0.7637     H
H       0.8035   0.6237   0.2363     H
H       0.8035   0.6237   0.7637     H
H       0.8035   0.7363   0.1237     H
H       0.8035   0.7363   0.8763     H
H       0.8035   0.7637   0.3763     H
H       0.8035   0.7637   0.6237     H
H       0.8035   0.8763   0.2637     H
H       0.8035   0.8763   0.7363     H
H        0.807   0.1091   0.3909     H
H        0.807   0.1091   0.6091     H
H        0.807   0.3909   0.1091     H
H        0.807   0.3909   0.8909     H
H        0.807   0.6091   0.1091     H
H        0.807   0.6091   0.8909     H
H        0.807   0.8909   0.3909     H
H        0.807   0.8909   0.6091     H
Ni     0.81227  0.12899  0.12899    Ni
Ni     0.81227  0.12899  0.87101    Ni
Ni     0.81227  0.37101  0.37101    Ni
Ni     0.81227  0.37101  0.62899    Ni
Ni     0.81227  0.62899  0.37101    Ni
Ni     0.81227  0.62899  0.62899    Ni
Ni     0.81227  0.87101  0.12899    Ni
Ni     0.81227  0.87101  0.87101    Ni
H        0.817    0.028   0.1141     H
H        0.817    0.028   0.8859     H
H        0.817   0.1141    0.028     H
H        0.817   0.1141    0.972     H
H        0.817   0.3859    0.472     H
H        0.817   0.3859    0.528     H
H        0.817    0.472   0.3859     H
H        0.817    0.472   0.6141     H
H        0.817    0.528   0.3859     H
H        0.817    0.528   0.6141     H
H        0.817   0.6141    0.472     H
H        0.817   0.6141    0.528     H
H        0.817   0.8859    0.028     H
H        0.817   0.8859    0.972     H
H        0.817    0.972   0.1141     H
H        0.817    0.972   0.8859     H
O      0.82736  0.12406   0.2098     O
O      0.82736  0.12406   0.7902     O
O      0.82736   0.2098  0.12406     O
O      0.82736   0.2098  0.87594     O
O      0.82736   0.2902  0.37594     O
O      0.82736   0.2902  0.62406     O
O      0.82736  0.37594   0.2902     O
O      0.82736  0.37594   0.7098     O
O      0.82736  0.62406   0.2902     O
O      0.82736  0.62406   0.7098     O
O      0.82736   0.7098  0.37594     O
O      0.82736   0.7098  0.62406     O
O      0.82736   0.7902  0.12406     O
O      0.82736   0.7902  0.87594     O
O      0.82736  0.87594   0.2098     O
O      0.82736  0.87594   0.7902     O
O      0.82995  0.08337  0.13208     O
O      0.82995  0.08337  0.86792     O
O      0.82995  0.13208  0.08337     O
O      0.82995  0.13208  0.91663     O
O      0.82995  0.36792  0.41663     O
O      0.82995  0.36792  0.58337     O
O      0.82995  0.41663  0.36792     O
O      0.82995  0.41663  0.63208     O
O      0.82995  0.58337  0.36792     O
O      0.82995  0.58337  0.63208     O
O      0.82995  0.63208  0.41663     O
O      0.82995  0.63208  0.58337     O
O      0.82995  0.86792  0.08337     O
O      0.82995  0.86792  0.91663     O
O      0.82995  0.91663  0.13208     O
O      0.82995  0.91663  0.86792     O
C      0.83032  0.01677  0.12819     C
C      0.83032  0.01677  0.87181     C
C      0.83032  0.12819  0.01677     C
C      0.83032  0.12819  0.98323     C
C      0.83032  0.37181  0.48323     C
C      0.83032  0.37181  0.51677     C
C      0.83032  0.48323  0.37181     C
C      0.83032  0.48323  0.62819     C
C      0.83032  0.51677  0.37181     C
C      0.83032  0.51677  0.62819     C
C      0.83032  0.62819  0.48323     C
C      0.83032  0.62819  0.51677     C
C      0.83032  0.87181  0.01677     C
C      0.83032  0.87181  0.98323     C
C      0.83032  0.98323  0.12819     C
C      0.83032  0.98323  0.87181     C
C      0.84966  0.06983  0.15034     C
C      0.84966  0.06983  0.84966     C
C      0.84966  0.15034  0.06983     C
C      0.84966  0.15034  0.93017     C
C      0.84966  0.34966  0.43017     C
C      0.84966  0.34966  0.56983     C
C      0.84966  0.43017  0.34966     C
C      0.84966  0.43017  0.65034     C
C      0.84966  0.56983  0.34966     C
C      0.84966  0.56983  0.65034     C
C      0.84966  0.65034  0.43017     C
C      0.84966  0.65034  0.56983     C
C      0.84966  0.84966  0.06983     C
C      0.84966  0.84966  0.93017     C
C      0.84966  0.93017  0.15034     C
C      0.84966  0.93017  0.84966     C
C      0.85051  0.03349  0.14949     C
C      0.85051  0.03349  0.85051     C
C      0.85051  0.14949  0.03349     C
C      0.85051  0.14949  0.96651     C
C      0.85051  0.35051  0.46651     C
C      0.85051  0.35051  0.53349     C
C      0.85051  0.46651  0.35051     C
C      0.85051  0.46651  0.64949     C
C      0.85051  0.53349  0.35051     C
C      0.85051  0.53349  0.64949     C
C      0.85051  0.64949  0.46651     C
C      0.85051  0.64949  0.53349     C
C      0.85051  0.85051  0.03349     C
C      0.85051  0.85051  0.96651     C
C      0.85051  0.96651  0.14949     C
C      0.85051  0.96651  0.85051     C
O      0.85341  0.14659  0.14659     O
O      0.85341  0.14659  0.85341     O
O      0.85341  0.35341  0.35341     O
O      0.85341  0.35341  0.64659     O
O      0.85341  0.64659  0.35341     O
O      0.85341  0.64659  0.64659     O
O      0.85341  0.85341  0.14659     O
O      0.85341  0.85341  0.85341     O
H       0.8671   0.1329   0.2629     H
H       0.8671   0.1329   0.7371     H
H       0.8671   0.2371   0.3671     H
H       0.8671   0.2371   0.6329     H
H       0.8671   0.2629   0.1329     H
H       0.8671   0.2629   0.8671     H
H       0.8671   0.3671   0.2371     H
H       0.8671   0.3671   0.7629     H
H       0.8671   0.6329   0.2371     H
H       0.8671   0.6329   0.7629     H
H       0.8671   0.7371   0.1329     H
H       0.8671   0.7371   0.8671     H
H       0.8671   0.7629   0.3671     H
H       0.8671   0.7629   0.6329     H
H       0.8671   0.8671   0.2629     H
H       0.8671   0.8671   0.7371     H
O      0.86792  0.08337  0.17005     O
O      0.86792  0.08337  0.82995     O
O      0.86792  0.17005  0.08337     O
O      0.86792  0.17005  0.91663     O
O      0.86792  0.32995  0.41663     O
O      0.86792  0.32995  0.58337     O
O      0.86792  0.41663  0.32995     O
O      0.86792  0.41663  0.67005     O
O      0.86792  0.58337  0.32995     O
O      0.86792  0.58337  0.67005     O
O      0.86792  0.67005  0.41663     O
O      0.86792  0.67005  0.58337     O
O      0.86792  0.82995  0.08337     O
O      0.86792  0.82995  0.91663     O
O      0.86792  0.91663  0.17005     O
O      0.86792  0.91663  0.82995     O
Ni     0.87101  0.12899  0.18773    Ni
Ni     0.87101  0.12899  0.81227    Ni
Ni     0.87101  0.18773  0.12899    Ni
Ni     0.87101  0.18773  0.87101    Ni
Ni     0.87101  0.31227  0.37101    Ni
Ni     0.87101  0.31227  0.62899    Ni
Ni     0.87101  0.37101  0.31227    Ni
Ni     0.87101  0.37101  0.68773    Ni
Ni     0.87101  0.62899  0.31227    Ni
Ni     0.87101  0.62899  0.68773    Ni
Ni     0.87101  0.68773  0.37101    Ni
Ni     0.87101  0.68773  0.62899    Ni
Ni     0.87101  0.81227  0.12899    Ni
Ni     0.87101  0.81227  0.87101    Ni
Ni     0.87101  0.87101  0.18773    Ni
Ni     0.87101  0.87101  0.81227    Ni
C      0.87181  0.01677  0.16968     C
C      0.87181  0.01677  0.83032     C
C      0.87181  0.16968  0.01677     C
C      0.87181  0.16968  0.98323     C
C      0.87181  0.33032  0.48323     C
C      0.87181  0.33032  0.51677     C
C      0.87181  0.48323  0.33032     C
C      0.87181  0.48323  0.66968     C
C      0.87181  0.51677  0.33032     C
C      0.87181  0.51677  0.66968     C
C      0.87181  0.66968  0.48323     C
C      0.87181  0.66968  0.51677     C
C      0.87181  0.83032  0.01677     C
C      0.87181  0.83032  0.98323     C
C      0.87181  0.98323  0.16968     C
C      0.87181  0.98323  0.83032     C
O      0.87594  0.17264   0.2098     O
O      0.87594  0.17264   0.7902     O
O      0.87594   0.2098  0.17264     O
O      0.87594   0.2098  0.82736     O
O      0.87594   0.2902  0.32736     O
O      0.87594   0.2902  0.67264     O
O      0.87594  0.32736   0.2902     O
O      0.87594  0.32736   0.7098     O
O      0.87594  0.67264   0.2902     O
O      0.87594  0.67264   0.7098     O
O      0.87594   0.7098  0.32736     O
O      0.87594   0.7098  0.67264     O
O      0.87594   0.7902  0.17264     O
O      0.87594   0.7902  0.82736     O
O      0.87594  0.82736   0.2098     O
O      0.87594  0.82736   0.7902     O
C        0.876  0.19954  0.19954     C
C        0.876  0.19954  0.80046     C
C        0.876  0.30046  0.30046     C
C        0.876  0.30046  0.69954     C
C        0.876  0.69954  0.30046     C
C        0.876  0.69954  0.69954     C
C        0.876  0.80046  0.19954     C
C        0.876  0.80046  0.80046     C
H       0.8763   0.1965   0.2637     H
H       0.8763   0.1965   0.7363     H
H       0.8763   0.2363   0.3035     H
H       0.8763   0.2363   0.6965     H
H       0.8763   0.2637   0.1965     H
H       0.8763   0.2637   0.8035     H
H       0.8763   0.3035   0.2363     H
H       0.8763   0.3035   0.7637     H
H       0.8763   0.6965   0.2363     H
H       0.8763   0.6965   0.7637     H
H       0.8763   0.7363   0.1965     H
H       0.8763   0.7363   0.8035     H
H       0.8763   0.7637   0.3035     H
H       0.8763   0.7637   0.6965     H
H       0.8763   0.8035   0.2637     H
H       0.8763   0.8035   0.7363     H
C       0.8767   0.2182   0.2577     C
C       0.8767   0.2182   0.7423     C
C       0.8767   0.2423   0.2818     C
C       0.8767   0.2423   0.7182     C
C       0.8767   0.2577   0.2182     C
C       0.8767   0.2577   0.7818     C
C       0.8767   0.2818   0.2423     C
C       0.8767   0.2818   0.7577     C
C       0.8767   0.7182   0.2423     C
C       0.8767   0.7182   0.7577     C
C       0.8767   0.7423   0.2182     C
C       0.8767   0.7423   0.7818     C
C       0.8767   0.7577   0.2818     C
C       0.8767   0.7577   0.7182     C
C       0.8767   0.7818   0.2577     C
C       0.8767   0.7818   0.7423     C
C       0.8773  0.22618  0.22618     C
C       0.8773  0.22618  0.77382     C
C       0.8773  0.27382  0.27382     C
C       0.8773  0.27382  0.72618     C
C       0.8773  0.72618  0.27382     C
C       0.8773  0.72618  0.72618     C
C       0.8773  0.77382  0.22618     C
C       0.8773  0.77382  0.77382     C
C       0.8829   0.1171   0.2599     C
C       0.8829   0.1171   0.7401     C
C       0.8829   0.2401   0.3829     C
C       0.8829   0.2401   0.6171     C
C       0.8829   0.2599   0.1171     C
C       0.8829   0.2599   0.8829     C
C       0.8829   0.3829   0.2401     C
C       0.8829   0.3829   0.7599     C
C       0.8829   0.6171   0.2401     C
C       0.8829   0.6171   0.7599     C
C       0.8829   0.7401   0.1171     C
C       0.8829   0.7401   0.8829     C
C       0.8829   0.7599   0.3829     C
C       0.8829   0.7599   0.6171     C
C       0.8829   0.8829   0.2599     C
C       0.8829   0.8829   0.7401     C
H       0.8859    0.028    0.183     H
H       0.8859    0.028    0.817     H
H       0.8859    0.183    0.028     H
H       0.8859    0.183    0.972     H
H       0.8859    0.317    0.472     H
H       0.8859    0.317    0.528     H
H       0.8859    0.472    0.317     H
H       0.8859    0.472    0.683     H
H       0.8859    0.528    0.317     H
H       0.8859    0.528    0.683     H
H       0.8859    0.683    0.472     H
H       0.8859    0.683    0.528     H
H       0.8859    0.817    0.028     H
H       0.8859    0.817    0.972     H
H       0.8859    0.972    0.183     H
H       0.8859    0.972    0.817     H
H       0.8909   0.1091    0.307     H
H       0.8909   0.1091    0.693     H
H       0.8909    0.193   0.3909     H
H       0.8909    0.193   0.6091     H
H       0.8909    0.307   0.1091     H
H       0.8909    0.307   0.8909     H
H       0.8909   0.3909    0.193     H
H       0.8909   0.3909    0.807     H
H       0.8909   0.6091    0.193     H
H       0.8909   0.6091    0.807     H
H       0.8909    0.693   0.1091     H
H       0.8909    0.693   0.8909     H
H       0.8909    0.807   0.3909     H
H       0.8909    0.807   0.6091     H
H       0.8909   0.8909    0.307     H
H       0.8909   0.8909    0.693     H
N       0.8916   0.1084   0.2291     N
N       0.8916   0.1084   0.7709     N
N       0.8916   0.2291   0.1084     N
N       0.8916   0.2291   0.8916     N
N       0.8916   0.2709   0.3916     N
N       0.8916   0.2709   0.6084     N
N       0.8916   0.3916   0.2709     N
N       0.8916   0.3916   0.7291     N
N       0.8916   0.6084   0.2709     N
N       0.8916   0.6084   0.7291     N
N       0.8916   0.7291   0.3916     N
N       0.8916   0.7291   0.6084     N
N       0.8916   0.7709   0.1084     N
N       0.8916   0.7709   0.8916     N
N       0.8916   0.8916   0.2291     N
N       0.8916   0.8916   0.7709     N
C       0.8971   0.1029   0.2864     C
C       0.8971   0.1029   0.7136     C
C       0.8971   0.2136   0.3971     C
C       0.8971   0.2136   0.6029     C
C       0.8971   0.2864   0.1029     C
C       0.8971   0.2864   0.8971     C
C       0.8971   0.3971   0.2136     C
C       0.8971   0.3971   0.7864     C
C       0.8971   0.6029   0.2136     C
C       0.8971   0.6029   0.7864     C
C       0.8971   0.7136   0.1029     C
C       0.8971   0.7136   0.8971     C
C       0.8971   0.7864   0.3971     C
C       0.8971   0.7864   0.6029     C
C       0.8971   0.8971   0.2864     C
C       0.8971   0.8971   0.7136     C
C       0.9155   0.0845   0.2251     C
C       0.9155   0.0845   0.7749     C
C       0.9155   0.2251   0.0845     C
C       0.9155   0.2251   0.9155     C
C       0.9155   0.2749   0.4155     C
C       0.9155   0.2749   0.5845     C
C       0.9155   0.4155   0.2749     C
C       0.9155   0.4155   0.7251     C
C       0.9155   0.5845   0.2749     C
C       0.9155   0.5845   0.7251     C
C       0.9155   0.7251   0.4155     C
C       0.9155   0.7251   0.5845     C
C       0.9155   0.7749   0.0845     C
C       0.9155   0.7749   0.9155     C
C       0.9155   0.9155   0.2251     C
C       0.9155   0.9155   0.7749     C
O      0.91663  0.13208  0.17005     O
O      0.91663  0.13208  0.82995     O
O      0.91663  0.17005  0.13208     O
O      0.91663  0.17005  0.86792     O
O      0.91663  0.32995  0.36792     O
O      0.91663  0.32995  0.63208     O
O      0.91663  0.36792  0.32995     O
O      0.91663  0.36792  0.67005     O
O      0.91663  0.63208  0.32995     O
O      0.91663  0.63208  0.67005     O
O      0.91663  0.67005  0.36792     O
O      0.91663  0.67005  0.63208     O
O      0.91663  0.82995  0.13208     O
O      0.91663  0.82995  0.86792     O
O      0.91663  0.86792  0.17005     O
O      0.91663  0.86792  0.82995     O
C       0.9204   0.0796   0.2825     C
C       0.9204   0.0796   0.7175     C
C       0.9204   0.2175   0.4204     C
C       0.9204   0.2175   0.5796     C
C       0.9204   0.2825   0.0796     C
C       0.9204   0.2825   0.9204     C
C       0.9204   0.4204   0.2175     C
C       0.9204   0.4204   0.7825     C
C       0.9204   0.5796   0.2175     C
C       0.9204   0.5796   0.7825     C
C       0.9204   0.7175   0.0796     C
C       0.9204   0.7175   0.9204     C
C       0.9204   0.7825   0.4204     C
C       0.9204   0.7825   0.5796     C
C       0.9204   0.9204   0.2825     C
C       0.9204   0.9204   0.7175     C
H       0.9217   0.0783   0.2044     H
H       0.9217   0.0783   0.7956     H
H       0.9217   0.2044   0.0783     H
H       0.9217   0.2044   0.9217     H
H       0.9217   0.2956   0.4217     H
H       0.9217   0.2956   0.5783     H
H       0.9217   0.4217   0.2956     H
H       0.9217   0.4217   0.7044     H
H       0.9217   0.5783   0.2956     H
H       0.9217   0.5783   0.7044     H
H       0.9217   0.7044   0.4217     H
H       0.9217   0.7044   0.5783     H
H       0.9217   0.7956   0.0783     H
H       0.9217   0.7956   0.9217     H
H       0.9217   0.9217   0.2044     H
H       0.9217   0.9217   0.7956     H
H       0.9298   0.0702   0.3006     H
H       0.9298   0.0702   0.6994     H
H       0.9298   0.1994   0.4298     H
H       0.9298   0.1994   0.5702     H
H       0.9298   0.3006   0.0702     H
H       0.9298   0.3006   0.9298     H
H       0.9298   0.4298   0.1994     H
H       0.9298   0.4298   0.8006     H
H       0.9298   0.5702   0.1994     H
H       0.9298   0.5702   0.8006     H
H       0.9298   0.6994   0.0702     H
H       0.9298   0.6994   0.9298     H
H       0.9298   0.8006   0.4298     H
H       0.9298   0.8006   0.5702     H
H       0.9298   0.9298   0.3006     H
H       0.9298   0.9298   0.6994     H
C       0.9301   0.0699    0.252     C
C       0.9301   0.0699    0.748     C
C       0.9301    0.248   0.4301     C
C       0.9301    0.248   0.5699     C
C       0.9301    0.252   0.0699     C
C       0.9301    0.252   0.9301     C
C       0.9301   0.4301    0.248     C
C       0.9301   0.4301    0.752     C
C       0.9301   0.5699    0.248     C
C       0.9301   0.5699    0.752     C
C       0.9301    0.748   0.0699     C
C       0.9301    0.748   0.9301     C
C       0.9301    0.752   0.4301     C
C       0.9301    0.752   0.5699     C
C       0.9301   0.9301    0.252     C
C       0.9301   0.9301    0.748     C
C      0.93017  0.15034  0.15034     C
C      0.93017  0.15034  0.84966     C
C      0.93017  0.34966  0.34966     C
C      0.93017  0.34966  0.65034     C
C      0.93017  0.65034  0.34966     C
C      0.93017  0.65034  0.65034     C
C      0.93017  0.84966  0.15034     C
C      0.93017  0.84966  0.84966     C
C         0.95     0.05   0.2483     C
C         0.95     0.05   0.7517     C
C         0.95   0.2483     0.05     C
C         0.95   0.2483     0.95     C
C         0.95   0.2517     0.45     C
C         0.95   0.2517     0.55     C
C         0.95     0.45   0.2517     C
C         0.95     0.45   0.7483     C
C         0.95     0.55   0.2517     C
C         0.95     0.55   0.7483     C
C         0.95   0.7483     0.45     C
C         0.95   0.7483     0.55     C
C         0.95   0.7517     0.05     C
C         0.95   0.7517     0.95     C
C         0.95     0.95   0.2483     C
C         0.95     0.95   0.7517     C
O       0.9622   0.0378   0.2219     O
O       0.9622   0.0378   0.7781     O
O       0.9622   0.2219   0.0378     O
O       0.9622   0.2219   0.9622     O
O       0.9622   0.2781   0.4622     O
O       0.9622   0.2781   0.5378     O
O       0.9622   0.4622   0.2781     O
O       0.9622   0.4622   0.7219     O
O       0.9622   0.5378   0.2781     O
O       0.9622   0.5378   0.7219     O
O       0.9622   0.7219   0.4622     O
O       0.9622   0.7219   0.5378     O
O       0.9622   0.7781   0.0378     O
O       0.9622   0.7781   0.9622     O
O       0.9622   0.9622   0.2219     O
O       0.9622   0.9622   0.7781     O
C      0.96651  0.14949  0.14949     C
C      0.96651  0.14949  0.85051     C
C      0.96651  0.35051  0.35051     C
C      0.96651  0.35051  0.64949     C
C      0.96651  0.64949  0.35051     C
C      0.96651  0.64949  0.64949     C
C      0.96651  0.85051  0.14949     C
C      0.96651  0.85051  0.85051     C
O        0.967    0.033   0.2689     O
O        0.967    0.033   0.7311     O
O        0.967   0.2311    0.467     O
O        0.967   0.2311    0.533     O
O        0.967   0.2689    0.033     O
O        0.967   0.2689    0.967     O
O        0.967    0.467   0.2311     O
O        0.967    0.467   0.7689     O
O        0.967    0.533   0.2311     O
O        0.967    0.533   0.7689     O
O        0.967   0.7311    0.033     O
O        0.967   0.7311    0.967     O
O        0.967   0.7689    0.467     O
O        0.967   0.7689    0.533     O
O        0.967    0.967   0.2689     O
O        0.967    0.967   0.7311     O
H        0.972   0.1141    0.183     H
H        0.972   0.1141    0.817     H
H        0.972    0.183   0.1141     H
H        0.972    0.183   0.8859     H
H        0.972    0.317   0.3859     H
H        0.972    0.317   0.6141     H
H        0.972   0.3859    0.317     H
H        0.972   0.3859    0.683     H
H        0.972   0.6141    0.317     H
H        0.972   0.6141    0.683     H
H        0.972    0.683   0.3859     H
H        0.972    0.683   0.6141     H
H        0.972    0.817   0.1141     H
H        0.972    0.817   0.8859     H
H        0.972   0.8859    0.183     H
H        0.972   0.8859    0.817     H
C      0.98323  0.12819  0.16968     C
C      0.98323  0.12819  0.83032     C
C      0.98323  0.16968  0.12819     C
C      0.98323  0.16968  0.87181     C
C      0.98323  0.33032  0.37181     C
C      0.98323  0.33032  0.62819     C
C      0.98323  0.37181  0.33032     C
C      0.98323  0.37181  0.66968     C
C      0.98323  0.62819  0.33032     C
C      0.98323  0.62819  0.66968     C
C      0.98323  0.66968  0.37181     C
C      0.98323  0.66968  0.62819     C
C      0.98323  0.83032  0.12819     C
C      0.98323  0.83032  0.87181     C
C      0.98323  0.87181  0.16968     C
C      0.98323  0.87181  0.83032     C
