data_I
_chemical_name_common  '/home/zhangsd/repos/MofS-CGCNN/ML/data/TSD/clean_cifs/SUWQEI_clean'
_cell_length_a 12.79600
_cell_length_b 25.62500
_cell_length_c 16.11200
_cell_angle_alpha 90.00000
_cell_angle_beta  119.95500
_cell_angle_gamma 90.00000
_space_group_name_H-M_alt      'P 1'


loop_
_space_group_symop_operation_xyz
  'x, y, z' 

loop_
_atom_site_label
_atom_site_fract_x
_atom_site_fract_y
_atom_site_fract_z
_atom_site_type_symbol
Cu         0.0      0.0      0.5    Cu
Cu         0.0      0.5      0.0    Cu
C        0.008    0.231    0.492     C
C        0.008    0.269    0.992     C
C        0.027    0.084    0.386     C
C        0.027    0.416    0.886     C
H         0.03   0.1581   0.5428     H
H         0.03   0.1974   0.9515     H
H         0.03   0.3026   0.4515     H
H         0.03   0.3419   0.0428     H
H       0.0334     0.54   0.8475     H
H       0.0334     0.96   0.3475     H
H       0.0379   0.1388   0.2969     H
H       0.0379   0.3612   0.7969     H
H       0.0567   0.5827   0.1465     H
H       0.0567   0.9173   0.6465     H
C        0.067   0.2251    0.993     C
C        0.067   0.2749    0.493     C
C         0.07   0.1885    0.544     C
C         0.07   0.3115    0.044     C
C        0.083   0.1178     0.35     C
C        0.083   0.3822     0.85     C
N       0.0849   0.0541   0.4636     N
N       0.0849   0.4459   0.9636     N
C        0.097   0.5586    0.896     C
C        0.097   0.9414    0.396     C
N         0.11   0.5565    0.981     N
N         0.11   0.9435    0.481     N
C         0.13    0.732     0.07     C
C         0.13    0.768     0.57     C
H        0.144   0.6839   0.1754     H
H        0.144   0.8161   0.6754     H
H       0.1566   0.5867   0.8083     H
H       0.1566   0.9133   0.3083     H
H         0.16   0.7147   0.4926     H
H         0.16   0.7853   0.9926     H
C        0.171   0.5865    0.871     C
C        0.171   0.9135    0.371     C
C        0.188    0.705    0.157     C
C        0.188    0.795    0.657     C
C        0.192   0.2249    0.063     C
C        0.192   0.2751    0.563     C
C        0.195    0.191    0.599     C
C        0.195    0.309    0.099     C
C        0.196   0.7357    0.547     C
C        0.196   0.7643    0.047     C
H       0.1961   0.2197   0.3656     H
H       0.1961   0.2803   0.8656     H
C          0.2   0.5814    0.049     C
C          0.2   0.9186    0.549     C
C        0.206   0.1176   0.3987     C
C        0.206   0.3824   0.8987     C
C         0.21    0.056   0.5096     C
C         0.21    0.444   0.0096     C
H       0.2116   0.5796   0.1104     H
H       0.2116   0.9204   0.6104     H
H       0.2304   0.1926   0.0805     H
H       0.2304   0.3074   0.5805     H
H        0.237   0.1615    0.633     H
H        0.237   0.3385    0.133     H
C        0.248   0.2042    0.348     C
C        0.248   0.2958    0.848     C
H        0.254   0.0357   0.5639     H
H        0.254   0.4643   0.0639     H
N        0.257   0.2341   0.6055     N
N        0.257   0.2659   0.1055     N
C        0.269   0.0864    0.478     C
C        0.269   0.4136    0.978     C
C        0.269   0.6144   0.9449     C
C        0.269   0.8856   0.4449     C
C        0.272   0.1524   0.3609     C
C        0.272   0.3476   0.8609     C
C        0.281   0.6113    0.033     C
C        0.281   0.8887    0.533     C
H       0.2865   0.2311   0.7982     H
H       0.2865   0.2689   0.2982     H
C        0.305   0.2336   0.3087     C
C        0.305   0.2664   0.8087     C
C        0.313   0.7096    0.217     C
C        0.313   0.7904    0.717     C
C        0.319   0.7361    0.609     C
C        0.319   0.7639    0.109     C
H       0.3439    0.629    0.084     H
H       0.3439    0.871    0.584     H
H       0.3513   0.6901   0.2729     H
H       0.3513   0.8099   0.7729     H
C        0.352   0.1306   0.3358     C
C        0.352   0.3694   0.8358     C
H       0.3532   0.0863   0.5106     H
H       0.3532   0.4137   0.0106     H
C        0.354   0.6435     0.92     C
C        0.354   0.8565     0.42     C
H       0.3612   0.5897   0.8309     H
H       0.3612   0.9103   0.3309     H
H       0.3657   0.7188   0.5881     H
H       0.3657   0.7812   0.0881     H
H       0.3719   0.0954   0.3461     H
H       0.3719   0.4046   0.8461     H
N       0.3802    0.742   0.1949     N
N       0.3802    0.758   0.6949     N
N        0.383   0.2143   0.2849     N
N        0.383   0.2857   0.7849     N
H       0.3858   0.7048   0.0056     H
H       0.3858   0.7952   0.5056     H
C        0.386   0.6228    0.857     C
C        0.386   0.8772    0.357     C
C        0.401   0.1627   0.2951     C
C        0.401   0.3373   0.7951     C
C        0.401   0.6911    0.959     C
C        0.401   0.8089    0.459     C
Cu      0.4399  0.24408   0.7059    Cu
Cu      0.4399  0.25592   0.2059    Cu
H       0.4497   0.1475   0.2736     H
H       0.4497   0.3525   0.7736     H
C        0.458    0.653    0.834     C
C        0.458    0.847    0.334     C
C        0.469   0.7185    0.932     C
C        0.469   0.7815    0.432     C
H       0.4811   0.6385   0.7932     H
H       0.4811   0.8615   0.2932     H
N       0.4973   0.7012   0.8665     N
N       0.4973   0.7988   0.3665     N
H       0.4983    0.749   0.4597     H
H       0.4983    0.751   0.9597     H
H       0.5017    0.249   0.0403     H
H       0.5017    0.251   0.5403     H
N       0.5027   0.2012   0.6335     N
N       0.5027   0.2988   0.1335     N
H       0.5189   0.1385   0.7068     H
H       0.5189   0.3615   0.2068     H
C        0.531   0.2185    0.568     C
C        0.531   0.2815    0.068     C
C        0.542    0.153    0.666     C
C        0.542    0.347    0.166     C
H       0.5503   0.6475   0.2264     H
H       0.5503   0.8525   0.7264     H
Cu      0.5601  0.74408   0.7941    Cu
Cu      0.5601  0.75592   0.2941    Cu
C        0.599   0.1911    0.541     C
C        0.599   0.3089    0.041     C
C        0.599   0.6627   0.2049     C
C        0.599   0.8373   0.7049     C
C        0.614   0.1228    0.643     C
C        0.614   0.3772    0.143     C
H       0.6142   0.2048   0.4944     H
H       0.6142   0.2952   0.9944     H
N        0.617   0.7143   0.2151     N
N        0.617   0.7857   0.7151     N
N       0.6198    0.242   0.3051     N
N       0.6198    0.258   0.8051     N
H       0.6281   0.5954   0.1539     H
H       0.6281   0.9046   0.6539     H
H       0.6343   0.2188   0.9119     H
H       0.6343   0.2812   0.4119     H
H       0.6388   0.0897   0.6691     H
H       0.6388   0.4103   0.1691     H
C        0.646   0.1435     0.58     C
C        0.646   0.3565     0.08     C
H       0.6468   0.5863   0.9894     H
H       0.6468   0.9137   0.4894     H
C        0.648   0.6306   0.1642     C
C        0.648   0.8694   0.6642     C
H       0.6487   0.1901   0.2271     H
H       0.6487   0.3099   0.7271     H
H       0.6561    0.129    0.416     H
H       0.6561    0.371    0.916     H
C        0.681   0.2361    0.891     C
C        0.681   0.2639    0.391     C
C        0.687   0.2096    0.283     C
C        0.687   0.2904    0.783     C
C        0.695   0.7336   0.1913     C
C        0.695   0.7664   0.6913     C
H       0.7135   0.7311   0.7018     H
H       0.7135   0.7689   0.2018     H
C        0.719   0.1113    0.467     C
C        0.719   0.3887    0.967     C
C        0.728   0.6524   0.1391     C
C        0.728   0.8476   0.6391     C
C        0.731   0.1144   0.5551     C
C        0.731   0.3856   0.0551     C
C        0.731   0.5864    0.022     C
C        0.731   0.9136    0.522     C
N        0.743   0.7341   0.8945     N
N        0.743   0.7659   0.3945     N
H        0.746   0.5357   0.9361     H
H        0.746   0.9643   0.4361     H
C        0.752   0.7042    0.152     C
C        0.752   0.7958    0.652     C
H        0.763   0.6615    0.867     H
H        0.763   0.8385    0.367     H
H       0.7696   0.6926   0.4195     H
H       0.7696   0.8074   0.9195     H
H       0.7884   0.0796   0.3896     H
H       0.7884   0.4204   0.8896     H
C         0.79    0.556   0.9904     C
C         0.79    0.944   0.4904     C
C        0.794   0.6176   0.1013     C
C        0.794   0.8824   0.6013     C
C          0.8   0.0814    0.451     C
C          0.8   0.4186    0.951     C
H       0.8039   0.7197   0.1344     H
H       0.8039   0.7803   0.6344     H
C        0.804   0.2357    0.953     C
C        0.804   0.2643    0.453     C
C        0.805    0.691    0.901     C
C        0.805    0.809    0.401     C
C        0.808   0.7249    0.437     C
C        0.808   0.7751    0.937     C
C        0.812    0.205    0.343     C
C        0.812    0.295    0.843     C
C        0.829   0.0865    0.629     C
C        0.829   0.4135    0.129     C
H         0.84   0.2147   0.0074     H
H         0.84   0.2853   0.5074     H
H       0.8434   0.0867   0.6917     H
H       0.8434   0.4133   0.1917     H
H        0.856   0.1839   0.3246     H
H        0.856   0.3161   0.8246     H
C         0.87    0.232     0.43     C
C         0.87    0.268     0.93     C
N         0.89   0.0565    0.519     N
N         0.89   0.4435    0.019     N
C        0.903   0.0586    0.604     C
C        0.903   0.4414    0.104     C
N       0.9151   0.5541   0.0364     N
N       0.9151   0.9459   0.5364     N
C        0.917   0.6178     0.15     C
C        0.917   0.8822     0.65     C
C         0.93   0.6885    0.956     C
C         0.93   0.8115    0.456     C
C        0.933   0.7251    0.507     C
C        0.933   0.7749    0.007     C
H       0.9433   0.0827   0.3535     H
H       0.9433   0.4173   0.8535     H
H       0.9621   0.6388   0.2031     H
H       0.9621   0.8612   0.7031     H
H       0.9666     0.04   0.6525     H
H       0.9666     0.46   0.1525     H
H         0.97   0.6581   0.9572     H
H         0.97   0.6974   0.5485     H
H         0.97   0.8026   0.0485     H
H         0.97   0.8419   0.4572     H
C        0.973    0.584    0.114     C
C        0.973    0.916    0.614     C
C        0.992    0.731    0.008     C
C        0.992    0.769    0.508     C
