data_I
_chemical_name_common  '/home/zhangsd/repos/MofS-CGCNN/ML/data/TSD/clean_cifs/TACJIS_clean'
_cell_length_a  8.89620
_cell_length_b 16.57820
_cell_length_c 16.57820
_cell_angle_alpha 85.87170
_cell_angle_beta  74.43630
_cell_angle_gamma 74.43620
_space_group_name_H-M_alt      'P 1'


loop_
_space_group_symop_operation_xyz
  'x, y, z' 

loop_
_atom_site_label
_atom_site_fract_x
_atom_site_fract_y
_atom_site_fract_z
_atom_site_type_symbol
C          0.0      0.0      0.0     C
H       0.0038   0.9447   0.1155     H
Cd     0.00931  0.09795  0.53595    Cd
H       0.0141   0.4814   0.8162     H
O        0.019  0.43814  0.42066     O
C       0.0273   0.5136   0.7678     C
O       0.0456   0.3282   0.0352     O
O       0.0474   0.2167   0.5839     O
H       0.0515   0.8845   0.9447     H
H        0.064   0.0553   0.8845     H
C       0.0644   0.6114    0.624     C
H       0.0661   0.5207   0.2779     H
H       0.0743   0.6449   0.5765     H
C       0.0813   0.9616   0.0688     C
H       0.1071   0.6681   0.3537     H
C       0.1092   0.7528    0.437     C
C       0.1117   0.0384   0.9312     C
H       0.1286   0.0875   0.9523     H
H       0.1289   0.3319   0.6463     H
C        0.138    0.563   0.7528     C
O       0.1439  0.02375  0.09545     O
H       0.1506   0.8985   0.2029     H
C       0.1532   0.6126    0.679     C
C       0.1582   0.4395   0.3613     C
O       0.1583   0.4065   0.0907     O
C       0.1615    0.488   0.2884     C
C       0.1653     0.34   0.0544     C
C       0.1678    0.679   0.3874     C
H       0.1684   0.9125   0.0477     H
H       0.1697   0.8162   0.5186     H
C       0.1947   0.1919   0.5591     C
C       0.2049   0.7678   0.4864     C
O       0.2099   0.5277   0.8809     O
C       0.2156   0.9325   0.2079     C
H       0.2248   0.6463   0.6681     H
C       0.2278   0.0014   0.1546     C
C       0.2342    0.321   0.6126     C
C       0.2462   0.5591   0.8081     C
H        0.252   0.1015   0.7971     H
O       0.2624   0.1191   0.5277     O
O       0.2631  0.97625  0.90455     O
H       0.2808   0.4235   0.6449     H
H       0.2897   0.2214   0.9348     H
H       0.2939   0.8712   0.3056     H
H       0.2957   0.3551   0.4235     H
C        0.299   0.2472    0.563     C
C       0.2998   0.3886    0.376     C
C       0.3034   0.9157   0.2687     C
C       0.3087   0.4864   0.2322     C
C       0.3116    0.624   0.3886     C
H       0.3117   0.5186   0.1838     H
C       0.3228   0.2741   0.0359     C
C       0.3242    0.376   0.6114     C
C       0.3297   0.0496   0.1596     C
H       0.3382   0.0943   0.1229     H
H       0.3492   0.5765   0.3551     H
C       0.3505   0.7116    0.488     C
C        0.356   0.0675   0.7921     C
C       0.3617   0.2184   0.9672     C
O       0.3687   0.5839   0.7833     O
C       0.3838   0.9986   0.8454     C
H       0.4005   0.3056   0.1288     H
C       0.4023   0.6387   0.4395     C
C       0.4031   0.9641   0.2741     C
O        0.409   0.6718   0.9648     O
H       0.4132   0.7221   0.5207     H
C       0.4199   0.0328   0.2184     C
C       0.4279   0.2687   0.0843     C
O       0.4352   0.9093   0.4065     O
C       0.4448   0.3874    0.321     C
H       0.4459   0.7786   0.0652     H
C       0.4538    0.437   0.2472     C
Cd     0.45474  0.53595  0.90205    Cd
C       0.4591   0.2322   0.5136     C
H       0.4707   0.1288   0.6944     H
C       0.4805   0.3613   0.5605     C
C       0.4878   0.0843   0.7313     C
H       0.4889   0.0652   0.2214     H
C       0.4947   0.9456     0.34     C
H       0.5045   0.1838   0.4814     H
C       0.5107   0.1596   0.9504     C
H       0.5308   0.5782   0.5592     H
H       0.5389   0.1229   0.9057     H
C       0.5389   0.9504   0.8404     C
H       0.5392   0.3537   0.3319     H
O      0.54286  0.57934  0.43814     O
C       0.5473   0.7816   0.0328     C
C       0.5501   0.2884    0.512     C
H       0.5554   0.9057   0.8771     H
C       0.5597     0.66   0.9456     C
O      0.56034  0.42066  0.56186     O
H       0.5675   0.8771   0.0943     H
C       0.5765   0.2079   0.0675     C
C       0.6118   0.5783   0.5067     C
C       0.6134   0.4409   0.1919     C
C       0.6176   0.1546   0.9986     C
O       0.6185   0.4723   0.1191     O
C       0.6207   0.8404   0.0496     C
O       0.6262   0.9648   0.3282     O
C       0.6328   0.7259   0.9641     C
C       0.6413   0.0359   0.7259     C
Cd     0.64321  0.90205  0.46405    Cd
H       0.6465   0.2029   0.1015     H
H       0.6512   0.6277   0.5051     H
O       0.6555   0.5935   0.9093     O
H        0.656   0.2779   0.4793     H
H       0.6682   0.4218   0.4408     H
C       0.6711   0.9672   0.7816     C
C       0.6968   0.4217   0.4933     C
H       0.7211   0.4949   0.6277     H
O       0.7359   0.4161   0.2167     O
C         0.75      0.5      0.5     C
O        0.751   0.0907   0.5935     O
O      0.76065  0.09545  0.97625     O
C       0.7708   0.8454   0.0014     C
H       0.7755   0.9348   0.7786     H
C       0.7803   0.0544     0.66     C
C       0.7809   0.7313   0.9157     C
H       0.7839   0.0477   0.0875     H
H        0.784   0.3723   0.4949     H
C       0.8099   0.4933   0.5783     C
O      0.83235  0.90455  0.02375     O
H       0.8349   0.6944   0.8712     H
H       0.8437   0.5051   0.3723     H
O        0.848   0.7833   0.4161     O
C       0.8499   0.0688   0.0384     C
C       0.8519   0.7921   0.9325     C
H       0.8647   0.4793   0.7221     H
O       0.8778  0.56186  0.57934     O
H       0.8807   0.1155   0.0553     H
C       0.8815   0.5067   0.4217     C
H        0.891   0.4408   0.5782     H
Cd     0.89274  0.46405  0.09795    Cd
O       0.9092   0.8809   0.4723     O
H         0.91   0.5592   0.4218     H
H       0.9191   0.9523   0.9125     H
O       0.9192   0.0352   0.6718     O
C       0.9379    0.512   0.7116     C
C       0.9457   0.8081   0.4409     C
H       0.9509   0.7971   0.8985     H
C       0.9571   0.9312   0.9616     C
C        0.959   0.5605   0.6387     C
