data_I
_chemical_name_common  '/home/zhangsd/repos/MofS-CGCNN/ML/data/TSD/clean_cifs/TAJXIO04_clean'
_cell_length_a  7.16200
_cell_length_b 23.76510
_cell_length_c 30.70490
_cell_angle_alpha 90.00000
_cell_angle_beta  90.00000
_cell_angle_gamma 90.00000
_space_group_name_H-M_alt      'P 1'


loop_
_space_group_symop_operation_xyz
  'x, y, z' 

loop_
_atom_site_label
_atom_site_fract_x
_atom_site_fract_y
_atom_site_fract_z
_atom_site_type_symbol
C       0.0011   0.1418   0.6446     C
C       0.0011   0.3582   0.1446     C
C       0.0011   0.6418   0.3554     C
C       0.0011   0.8582   0.8554     C
C       0.0142   0.1074  0.85658     C
C       0.0142   0.3926  0.35658     C
C       0.0142   0.6074  0.14342     C
C       0.0142   0.8926  0.64342     C
N       0.0168   0.1258  0.06837     N
N       0.0168   0.3742  0.56837     N
N       0.0168   0.6258  0.93163     N
N       0.0168   0.8742  0.43163     N
O       0.0178  0.08797  0.44675     O
O       0.0178  0.41203  0.94675     O
O       0.0178  0.58797  0.55325     O
O       0.0178  0.91203  0.05325     O
C       0.0307   0.1144  0.81172     C
C       0.0307   0.3856  0.31172     C
C       0.0307   0.6144  0.18828     C
C       0.0307   0.8856  0.68828     C
Ag     0.03163  0.05709   0.5158    Ag
Ag     0.03163  0.44291   0.0158    Ag
Ag     0.03163  0.55709   0.4842    Ag
Ag     0.03163  0.94291   0.9842    Ag
C        0.045   0.1117   0.6073     C
C        0.045   0.3883   0.1073     C
C        0.045   0.6117   0.3927     C
C        0.045   0.8883   0.8927     C
O       0.0467  0.16706  0.24915     O
O       0.0467  0.33294  0.74915     O
O       0.0467  0.66706  0.75085     O
O       0.0467  0.83294  0.25085     O
H       0.0486   0.1298   0.6719     H
H       0.0486   0.3702   0.1719     H
H       0.0486   0.6298   0.3281     H
H       0.0486   0.8702   0.8281     H
H       0.0594    0.133    0.373     H
H       0.0594    0.367    0.873     H
H       0.0594    0.633    0.627     H
H       0.0594    0.867    0.127     H
C       0.0653   0.1637     0.29     C
C       0.0653   0.3363     0.79     C
C       0.0653   0.6637     0.71     C
C       0.0653   0.8363     0.21     C
C       0.0823   0.0539   0.9252     C
C       0.0823   0.4461   0.4252     C
C       0.0823   0.5539   0.0748     C
C       0.0823   0.9461   0.5748     C
C       0.1049   0.0632   0.8775     C
C       0.1049   0.4368   0.3775     C
C       0.1049   0.5632   0.1225     C
C       0.1049   0.9368   0.6225     C
N       0.1075  0.18762  0.14245     N
N       0.1075  0.31238  0.64245     N
N       0.1075  0.68762  0.85755     N
N       0.1075  0.81238  0.35755     N
C       0.1228   0.1718  0.06648     C
C       0.1228   0.3282  0.56648     C
C       0.1228   0.6718  0.93352     C
C       0.1228   0.8282  0.43352     C
H        0.123   0.0796   0.6099     H
H        0.123   0.4204   0.1099     H
H        0.123   0.5796   0.3901     H
H        0.123   0.9204   0.8901     H
C       0.1402    0.077   0.7878     C
C       0.1402    0.423   0.2878     C
C       0.1402    0.577   0.2122     C
C       0.1402    0.923   0.7122     C
H       0.1515   0.0812   0.7571     H
H       0.1515   0.4188   0.2571     H
H       0.1515   0.5812   0.2429     H
H       0.1515   0.9188   0.7429     H
O       0.1549  0.19591   0.3141     O
O       0.1549  0.30409   0.8141     O
O       0.1549  0.69591   0.6859     O
O       0.1549  0.80409   0.1859     O
O       0.1604  0.01114  0.94156     O
O       0.1604  0.48886  0.44156     O
O       0.1604  0.51114  0.05844     O
O       0.1604  0.98886  0.55844     O
H       0.1684   0.1839    0.039     H
H       0.1684   0.3161    0.539     H
H       0.1684   0.6839    0.961     H
H       0.1684   0.8161    0.461     H
C       0.1685   0.2024  0.10301     C
C       0.1685   0.2976  0.60301     C
C       0.1685   0.7024  0.89699     C
C       0.1685   0.7976  0.39699     C
H       0.1923   0.0082   0.2074     H
H       0.1923   0.4918   0.7074     H
H       0.1923   0.5082   0.7926     H
H       0.1923   0.9918   0.2926     H
Ag     0.19536  0.22996  0.20925    Ag
Ag     0.19536  0.27004  0.70925    Ag
Ag     0.19536  0.72996  0.79075    Ag
Ag     0.19536  0.77004  0.29075    Ag
C       0.2152   0.0272   0.8527     C
C       0.2152   0.4728   0.3527     C
C       0.2152   0.5272   0.1473     C
C       0.2152   0.9728   0.6473     C
H       0.2198   0.0025   0.3668     H
H       0.2198   0.4975   0.8668     H
H       0.2198   0.5025   0.6332     H
H       0.2198   0.9975   0.1332     H
C       0.2324   0.0336   0.8088     C
C       0.2324   0.4664   0.3088     C
C       0.2324   0.5336   0.1912     C
C       0.2324   0.9664   0.6912     C
H       0.2453   0.2348   0.1001     H
H       0.2453   0.2652   0.6001     H
H       0.2453   0.7348   0.8999     H
H       0.2453   0.7652   0.3999     H
H       0.2547   0.2348   0.8999     H
H       0.2547   0.2652   0.3999     H
H       0.2547   0.7348   0.1001     H
H       0.2547   0.7652   0.6001     H
C       0.2676   0.0336   0.1912     C
C       0.2676   0.4664   0.6912     C
C       0.2676   0.5336   0.8088     C
C       0.2676   0.9664   0.3088     C
H       0.2802   0.0025   0.6332     H
H       0.2802   0.4975   0.1332     H
H       0.2802   0.5025   0.3668     H
H       0.2802   0.9975   0.8668     H
C       0.2848   0.0272   0.1473     C
C       0.2848   0.4728   0.6473     C
C       0.2848   0.5272   0.8527     C
C       0.2848   0.9728   0.3527     C
Ag     0.30464  0.22996  0.79075    Ag
Ag     0.30464  0.27004  0.29075    Ag
Ag     0.30464  0.72996  0.20925    Ag
Ag     0.30464  0.77004  0.70925    Ag
H       0.3077   0.0082   0.7926     H
H       0.3077   0.4918   0.2926     H
H       0.3077   0.5082   0.2074     H
H       0.3077   0.9918   0.7074     H
C       0.3315   0.2024  0.89699     C
C       0.3315   0.2976  0.39699     C
C       0.3315   0.7024  0.10301     C
C       0.3315   0.7976  0.60301     C
H       0.3316   0.1839    0.961     H
H       0.3316   0.3161    0.461     H
H       0.3316   0.6839    0.039     H
H       0.3316   0.8161    0.539     H
O       0.3396  0.01114  0.05844     O
O       0.3396  0.48886  0.55844     O
O       0.3396  0.51114  0.94156     O
O       0.3396  0.98886  0.44156     O
O       0.3451  0.19591   0.6859     O
O       0.3451  0.30409   0.1859     O
O       0.3451  0.69591   0.3141     O
O       0.3451  0.80409   0.8141     O
H       0.3485   0.0812   0.2429     H
H       0.3485   0.4188   0.7429     H
H       0.3485   0.5812   0.7571     H
H       0.3485   0.9188   0.2571     H
C       0.3598    0.077   0.2122     C
C       0.3598    0.423   0.7122     C
C       0.3598    0.577   0.7878     C
C       0.3598    0.923   0.2878     C
H        0.377   0.0796   0.3901     H
H        0.377   0.4204   0.8901     H
H        0.377   0.5796   0.6099     H
H        0.377   0.9204   0.1099     H
C       0.3772   0.1718  0.93352     C
C       0.3772   0.3282  0.43352     C
C       0.3772   0.6718  0.06648     C
C       0.3772   0.8282  0.56648     C
N       0.3925  0.18762  0.85755     N
N       0.3925  0.31238  0.35755     N
N       0.3925  0.68762  0.14245     N
N       0.3925  0.81238  0.64245     N
C       0.3951   0.0632   0.1225     C
C       0.3951   0.4368   0.6225     C
C       0.3951   0.5632   0.8775     C
C       0.3951   0.9368   0.3775     C
C       0.4177   0.0539   0.0748     C
C       0.4177   0.4461   0.5748     C
C       0.4177   0.5539   0.9252     C
C       0.4177   0.9461   0.4252     C
C       0.4347   0.1637     0.71     C
C       0.4347   0.3363     0.21     C
C       0.4347   0.6637     0.29     C
C       0.4347   0.8363     0.79     C
H       0.4406    0.133    0.627     H
H       0.4406    0.367    0.127     H
H       0.4406    0.633    0.373     H
H       0.4406    0.867    0.873     H
H       0.4514   0.1298   0.3281     H
H       0.4514   0.3702   0.8281     H
H       0.4514   0.6298   0.6719     H
H       0.4514   0.8702   0.1719     H
O       0.4533  0.16706  0.75085     O
O       0.4533  0.33294  0.25085     O
O       0.4533  0.66706  0.24915     O
O       0.4533  0.83294  0.74915     O
C        0.455   0.1117   0.3927     C
C        0.455   0.3883   0.8927     C
C        0.455   0.6117   0.6073     C
C        0.455   0.8883   0.1073     C
Ag     0.46837  0.05709   0.4842    Ag
Ag     0.46837  0.44291   0.9842    Ag
Ag     0.46837  0.55709   0.5158    Ag
Ag     0.46837  0.94291   0.0158    Ag
C       0.4693   0.1144  0.18828     C
C       0.4693   0.3856  0.68828     C
C       0.4693   0.6144  0.81172     C
C       0.4693   0.8856  0.31172     C
O       0.4822  0.08797  0.55325     O
O       0.4822  0.41203  0.05325     O
O       0.4822  0.58797  0.44675     O
O       0.4822  0.91203  0.94675     O
N       0.4832   0.1258  0.93163     N
N       0.4832   0.3742  0.43163     N
N       0.4832   0.6258  0.06837     N
N       0.4832   0.8742  0.56837     N
C       0.4858   0.1074  0.14342     C
C       0.4858   0.3926  0.64342     C
C       0.4858   0.6074  0.85658     C
C       0.4858   0.8926  0.35658     C
C       0.4989   0.1418   0.3554     C
C       0.4989   0.3582   0.8554     C
C       0.4989   0.6418   0.6446     C
C       0.4989   0.8582   0.1446     C
C       0.5011   0.1418   0.8554     C
C       0.5011   0.3582   0.3554     C
C       0.5011   0.6418   0.1446     C
C       0.5011   0.8582   0.6446     C
C       0.5142   0.1074  0.64342     C
C       0.5142   0.3926  0.14342     C
C       0.5142   0.6074  0.35658     C
C       0.5142   0.8926  0.85658     C
N       0.5168   0.1258  0.43163     N
N       0.5168   0.3742  0.93163     N
N       0.5168   0.6258  0.56837     N
N       0.5168   0.8742  0.06837     N
O       0.5178  0.08797  0.05325     O
O       0.5178  0.41203  0.55325     O
O       0.5178  0.58797  0.94675     O
O       0.5178  0.91203  0.44675     O
C       0.5307   0.1144  0.68828     C
C       0.5307   0.3856  0.18828     C
C       0.5307   0.6144  0.31172     C
C       0.5307   0.8856  0.81172     C
Ag     0.53163  0.05709   0.9842    Ag
Ag     0.53163  0.44291   0.4842    Ag
Ag     0.53163  0.55709   0.0158    Ag
Ag     0.53163  0.94291   0.5158    Ag
C        0.545   0.1117   0.8927     C
C        0.545   0.3883   0.3927     C
C        0.545   0.6117   0.1073     C
C        0.545   0.8883   0.6073     C
O       0.5467  0.16706  0.25085     O
O       0.5467  0.33294  0.75085     O
O       0.5467  0.66706  0.74915     O
O       0.5467  0.83294  0.24915     O
H       0.5486   0.1298   0.8281     H
H       0.5486   0.3702   0.3281     H
H       0.5486   0.6298   0.1719     H
H       0.5486   0.8702   0.6719     H
H       0.5594    0.133    0.127     H
H       0.5594    0.367    0.627     H
H       0.5594    0.633    0.873     H
H       0.5594    0.867    0.373     H
C       0.5653   0.1637     0.21     C
C       0.5653   0.3363     0.71     C
C       0.5653   0.6637     0.79     C
C       0.5653   0.8363     0.29     C
C       0.5823   0.0539   0.5748     C
C       0.5823   0.4461   0.0748     C
C       0.5823   0.5539   0.4252     C
C       0.5823   0.9461   0.9252     C
C       0.6049   0.0632   0.6225     C
C       0.6049   0.4368   0.1225     C
C       0.6049   0.5632   0.3775     C
C       0.6049   0.9368   0.8775     C
N       0.6075  0.18762  0.35755     N
N       0.6075  0.31238  0.85755     N
N       0.6075  0.68762  0.64245     N
N       0.6075  0.81238  0.14245     N
C       0.6228   0.1718  0.43352     C
C       0.6228   0.3282  0.93352     C
C       0.6228   0.6718  0.56648     C
C       0.6228   0.8282  0.06648     C
H        0.623   0.0796   0.8901     H
H        0.623   0.4204   0.3901     H
H        0.623   0.5796   0.1099     H
H        0.623   0.9204   0.6099     H
C       0.6402    0.077   0.7122     C
C       0.6402    0.423   0.2122     C
C       0.6402    0.577   0.2878     C
C       0.6402    0.923   0.7878     C
H       0.6515   0.0812   0.7429     H
H       0.6515   0.4188   0.2429     H
H       0.6515   0.5812   0.2571     H
H       0.6515   0.9188   0.7571     H
O       0.6549  0.19591   0.1859     O
O       0.6549  0.30409   0.6859     O
O       0.6549  0.69591   0.8141     O
O       0.6549  0.80409   0.3141     O
O       0.6604  0.01114  0.55844     O
O       0.6604  0.48886  0.05844     O
O       0.6604  0.51114  0.44156     O
O       0.6604  0.98886  0.94156     O
H       0.6684   0.1839    0.461     H
H       0.6684   0.3161    0.961     H
H       0.6684   0.6839    0.539     H
H       0.6684   0.8161    0.039     H
C       0.6685   0.2024  0.39699     C
C       0.6685   0.2976  0.89699     C
C       0.6685   0.7024  0.60301     C
C       0.6685   0.7976  0.10301     C
H       0.6923   0.0082   0.2926     H
H       0.6923   0.4918   0.7926     H
H       0.6923   0.5082   0.7074     H
H       0.6923   0.9918   0.2074     H
Ag     0.69536  0.22996  0.29075    Ag
Ag     0.69536  0.27004  0.79075    Ag
Ag     0.69536  0.72996  0.70925    Ag
Ag     0.69536  0.77004  0.20925    Ag
C       0.7152   0.0272   0.6473     C
C       0.7152   0.4728   0.1473     C
C       0.7152   0.5272   0.3527     C
C       0.7152   0.9728   0.8527     C
H       0.7198   0.0025   0.1332     H
H       0.7198   0.4975   0.6332     H
H       0.7198   0.5025   0.8668     H
H       0.7198   0.9975   0.3668     H
C       0.7324   0.0336   0.6912     C
C       0.7324   0.4664   0.1912     C
C       0.7324   0.5336   0.3088     C
C       0.7324   0.9664   0.8088     C
H       0.7453   0.2348   0.3999     H
H       0.7453   0.2652   0.8999     H
H       0.7453   0.7348   0.6001     H
H       0.7453   0.7652   0.1001     H
H       0.7547   0.2348   0.6001     H
H       0.7547   0.2652   0.1001     H
H       0.7547   0.7348   0.3999     H
H       0.7547   0.7652   0.8999     H
C       0.7676   0.0336   0.3088     C
C       0.7676   0.4664   0.8088     C
C       0.7676   0.5336   0.6912     C
C       0.7676   0.9664   0.1912     C
H       0.7802   0.0025   0.8668     H
H       0.7802   0.4975   0.3668     H
H       0.7802   0.5025   0.1332     H
H       0.7802   0.9975   0.6332     H
C       0.7848   0.0272   0.3527     C
C       0.7848   0.4728   0.8527     C
C       0.7848   0.5272   0.6473     C
C       0.7848   0.9728   0.1473     C
Ag     0.80464  0.22996  0.70925    Ag
Ag     0.80464  0.27004  0.20925    Ag
Ag     0.80464  0.72996  0.29075    Ag
Ag     0.80464  0.77004  0.79075    Ag
H       0.8077   0.0082   0.7074     H
H       0.8077   0.4918   0.2074     H
H       0.8077   0.5082   0.2926     H
H       0.8077   0.9918   0.7926     H
C       0.8315   0.2024  0.60301     C
C       0.8315   0.2976  0.10301     C
C       0.8315   0.7024  0.39699     C
C       0.8315   0.7976  0.89699     C
H       0.8316   0.1839    0.539     H
H       0.8316   0.3161    0.039     H
H       0.8316   0.6839    0.461     H
H       0.8316   0.8161    0.961     H
O       0.8396  0.01114  0.44156     O
O       0.8396  0.48886  0.94156     O
O       0.8396  0.51114  0.55844     O
O       0.8396  0.98886  0.05844     O
O       0.8451  0.19591   0.8141     O
O       0.8451  0.30409   0.3141     O
O       0.8451  0.69591   0.1859     O
O       0.8451  0.80409   0.6859     O
H       0.8485   0.0812   0.2571     H
H       0.8485   0.4188   0.7571     H
H       0.8485   0.5812   0.7429     H
H       0.8485   0.9188   0.2429     H
C       0.8598    0.077   0.2878     C
C       0.8598    0.423   0.7878     C
C       0.8598    0.577   0.7122     C
C       0.8598    0.923   0.2122     C
H        0.877   0.0796   0.1099     H
H        0.877   0.4204   0.6099     H
H        0.877   0.5796   0.8901     H
H        0.877   0.9204   0.3901     H
C       0.8772   0.1718  0.56648     C
C       0.8772   0.3282  0.06648     C
C       0.8772   0.6718  0.43352     C
C       0.8772   0.8282  0.93352     C
N       0.8925  0.18762  0.64245     N
N       0.8925  0.31238  0.14245     N
N       0.8925  0.68762  0.35755     N
N       0.8925  0.81238  0.85755     N
C       0.8951   0.0632   0.3775     C
C       0.8951   0.4368   0.8775     C
C       0.8951   0.5632   0.6225     C
C       0.8951   0.9368   0.1225     C
C       0.9177   0.0539   0.4252     C
C       0.9177   0.4461   0.9252     C
C       0.9177   0.5539   0.5748     C
C       0.9177   0.9461   0.0748     C
C       0.9347   0.1637     0.79     C
C       0.9347   0.3363     0.29     C
C       0.9347   0.6637     0.21     C
C       0.9347   0.8363     0.71     C
H       0.9406    0.133    0.873     H
H       0.9406    0.367    0.373     H
H       0.9406    0.633    0.127     H
H       0.9406    0.867    0.627     H
H       0.9514   0.1298   0.1719     H
H       0.9514   0.3702   0.6719     H
H       0.9514   0.6298   0.8281     H
H       0.9514   0.8702   0.3281     H
O       0.9533  0.16706  0.74915     O
O       0.9533  0.33294  0.24915     O
O       0.9533  0.66706  0.25085     O
O       0.9533  0.83294  0.75085     O
C        0.955   0.1117   0.1073     C
C        0.955   0.3883   0.6073     C
C        0.955   0.6117   0.8927     C
C        0.955   0.8883   0.3927     C
Ag     0.96837  0.05709   0.0158    Ag
Ag     0.96837  0.44291   0.5158    Ag
Ag     0.96837  0.55709   0.9842    Ag
Ag     0.96837  0.94291   0.4842    Ag
C       0.9693   0.1144  0.31172     C
C       0.9693   0.3856  0.81172     C
C       0.9693   0.6144  0.68828     C
C       0.9693   0.8856  0.18828     C
O       0.9822  0.08797  0.94675     O
O       0.9822  0.41203  0.44675     O
O       0.9822  0.58797  0.05325     O
O       0.9822  0.91203  0.55325     O
N       0.9832   0.1258  0.56837     N
N       0.9832   0.3742  0.06837     N
N       0.9832   0.6258  0.43163     N
N       0.9832   0.8742  0.93163     N
C       0.9858   0.1074  0.35658     C
C       0.9858   0.3926  0.85658     C
C       0.9858   0.6074  0.64342     C
C       0.9858   0.8926  0.14342     C
C       0.9989   0.1418   0.1446     C
C       0.9989   0.3582   0.6446     C
C       0.9989   0.6418   0.8554     C
C       0.9989   0.8582   0.3554     C
