data_I
_chemical_name_common  '/home/zhangsd/repos/MofS-CGCNN/ML/data/TSD/clean_cifs/TAJXIO01_clean'
_cell_length_a  7.24990
_cell_length_b 23.76250
_cell_length_c 30.73500
_cell_angle_alpha 90.00000
_cell_angle_beta  90.00000
_cell_angle_gamma 90.00000
_space_group_name_H-M_alt      'P 1'


loop_
_space_group_symop_operation_xyz
  'x, y, z' 

loop_
_atom_site_label
_atom_site_fract_x
_atom_site_fract_y
_atom_site_fract_z
_atom_site_type_symbol
C        0.002  0.14185  0.14417     C
C        0.002  0.35815  0.64417     C
C        0.002  0.64185  0.85583     C
C        0.002  0.85815  0.35583     C
C       0.0091  0.10727  0.85673     C
C       0.0091  0.39273  0.35673     C
C       0.0091  0.60727  0.14327     C
C       0.0091  0.89273  0.64327     C
N       0.0216  0.12589   0.0685     N
N       0.0216  0.37411   0.5685     N
N       0.0216  0.62589   0.9315     N
N       0.0216  0.87411   0.4315     N
O       0.0239    0.088  0.44647     O
O       0.0239    0.412  0.94647     O
O       0.0239    0.588  0.55353     O
O       0.0239    0.912  0.05353     O
Ag     0.02526  0.05769  0.51598    Ag
Ag     0.02526  0.44231  0.01598    Ag
Ag     0.02526  0.55768  0.48402    Ag
Ag     0.02526  0.94232  0.98402    Ag
C       0.0265  0.11456  0.81192     C
C       0.0265  0.38544  0.31192     C
C       0.0265  0.61456  0.18808     C
C       0.0265  0.88544  0.68808     C
C       0.0406  0.11166   0.6074     C
C       0.0406  0.38834   0.1074     C
C       0.0406  0.61166   0.3926     C
C       0.0406  0.88834   0.8926     C
H       0.0452   0.1303   0.6708     H
H       0.0452   0.3697   0.1708     H
H       0.0452   0.6303   0.3292     H
H       0.0452   0.8697   0.8292     H
O       0.0483   0.1677  0.24974     O
O       0.0483   0.3323  0.74974     O
O       0.0483   0.6677  0.75026     O
O       0.0483   0.8323  0.25026     O
H        0.063   0.1321   0.3728     H
H        0.063   0.3679   0.8728     H
H        0.063   0.6321   0.6272     H
H        0.063   0.8679   0.1272     H
C       0.0676  0.16341  0.29011     C
C       0.0676  0.33659  0.79011     C
C       0.0676  0.66341  0.70989     C
C       0.0676  0.83659  0.20989     C
C        0.075  0.05381  0.92545     C
C        0.075  0.44619  0.42545     C
C        0.075  0.55381  0.07455     C
C        0.075  0.94619  0.57455     C
C       0.0987   0.0632  0.87756     C
C       0.0987   0.4368  0.37756     C
C       0.0987   0.5632  0.12244     C
C       0.0987   0.9368  0.62244     C
N       0.1095  0.18726  0.14249     N
N       0.1095  0.31274  0.64249     N
N       0.1095  0.68726  0.85751     N
N       0.1095  0.81274  0.35751     N
H       0.1157   0.0801     0.61     H
H       0.1157   0.4199     0.11     H
H       0.1157   0.5801     0.39     H
H       0.1157   0.9199     0.89     H
C       0.1264  0.17169  0.06687     C
C       0.1264  0.32831  0.56687     C
C       0.1264  0.67169  0.93313     C
C       0.1264  0.82831  0.43313     C
C       0.1341  0.07741   0.7883     C
C       0.1341  0.42259   0.2883     C
C       0.1341  0.57741   0.2117     C
C       0.1341  0.92259   0.7117     C
H       0.1453   0.0817   0.7583     H
H       0.1453   0.4183   0.2583     H
H       0.1453   0.5817   0.2417     H
H       0.1453   0.9183   0.7417     H
O       0.1547  0.01204  0.94185     O
O       0.1547  0.48796  0.44185     O
O       0.1547  0.51204  0.05815     O
O       0.1547  0.98796  0.55815     O
O       0.1576  0.19581  0.31389     O
O       0.1576  0.30419  0.81389     O
O       0.1576  0.69581  0.68611     O
O       0.1576  0.80419  0.18611     O
C       0.1709  0.20205   0.1033     C
C       0.1709  0.29795   0.6033     C
C       0.1709  0.70205   0.8967     C
C       0.1709  0.79795   0.3967     C
H       0.1712   0.1836     0.04     H
H       0.1712   0.3164     0.54     H
H       0.1712   0.6836     0.96     H
H       0.1712   0.8164     0.46     H
Ag     0.19513  0.22995  0.20937    Ag
Ag     0.19513  0.27005  0.70937    Ag
Ag     0.19513  0.72995  0.79063    Ag
Ag     0.19513  0.77005  0.29063    Ag
H       0.2032    0.009    0.207     H
H       0.2032    0.491    0.707     H
H       0.2032    0.509    0.793     H
H       0.2032    0.991    0.293     H
C       0.2086  0.02736  0.85324     C
C       0.2086  0.47264  0.35324     C
C       0.2086  0.52736  0.14676     C
C       0.2086  0.97264  0.64676     C
C       0.2247  0.03393  0.80904     C
C       0.2247  0.46607  0.30904     C
C       0.2247  0.53393  0.19096     C
C       0.2247  0.96607  0.69096     C
H       0.2277   0.0015   0.3671     H
H       0.2277   0.4985   0.8671     H
H       0.2277   0.5015   0.6329     H
H       0.2277   0.9985   0.1329     H
H       0.2456   0.2337   0.1006     H
H       0.2456   0.2663   0.6006     H
H       0.2456   0.7337   0.8994     H
H       0.2456   0.7663   0.3994     H
H       0.2544   0.2337   0.8994     H
H       0.2544   0.2663   0.3994     H
H       0.2544   0.7337   0.1006     H
H       0.2544   0.7663   0.6006     H
H       0.2723   0.0015   0.6329     H
H       0.2723   0.4985   0.1329     H
H       0.2723   0.5015   0.3671     H
H       0.2723   0.9985   0.8671     H
C       0.2753  0.03393  0.19096     C
C       0.2753  0.46607  0.69096     C
C       0.2753  0.53393  0.80904     C
C       0.2753  0.96607  0.30904     C
C       0.2914  0.02736  0.14676     C
C       0.2914  0.47264  0.64676     C
C       0.2914  0.52736  0.85324     C
C       0.2914  0.97264  0.35324     C
H       0.2968    0.009    0.793     H
H       0.2968    0.491    0.293     H
H       0.2968    0.509    0.207     H
H       0.2968    0.991    0.707     H
Ag     0.30487  0.22995  0.79063    Ag
Ag     0.30487  0.27005  0.29063    Ag
Ag     0.30487  0.72995  0.20937    Ag
Ag     0.30487  0.77005  0.70937    Ag
H       0.3288   0.1836     0.96     H
H       0.3288   0.3164     0.46     H
H       0.3288   0.6836     0.04     H
H       0.3288   0.8164     0.54     H
C       0.3291  0.20205   0.8967     C
C       0.3291  0.29795   0.3967     C
C       0.3291  0.70205   0.1033     C
C       0.3291  0.79795   0.6033     C
O       0.3424  0.19581  0.68611     O
O       0.3424  0.30419  0.18611     O
O       0.3424  0.69581  0.31389     O
O       0.3424  0.80419  0.81389     O
O       0.3453  0.01204  0.05815     O
O       0.3453  0.48796  0.55815     O
O       0.3453  0.51204  0.94185     O
O       0.3453  0.98796  0.44185     O
H       0.3547   0.0817   0.2417     H
H       0.3547   0.4183   0.7417     H
H       0.3547   0.5817   0.7583     H
H       0.3547   0.9183   0.2583     H
C       0.3659  0.07741   0.2117     C
C       0.3659  0.42259   0.7117     C
C       0.3659  0.57741   0.7883     C
C       0.3659  0.92259   0.2883     C
C       0.3736  0.17169  0.93313     C
C       0.3736  0.32831  0.43313     C
C       0.3736  0.67169  0.06687     C
C       0.3736  0.82831  0.56687     C
H       0.3843   0.0801     0.39     H
H       0.3843   0.4199     0.89     H
H       0.3843   0.5801     0.61     H
H       0.3843   0.9199     0.11     H
N       0.3905  0.18726  0.85751     N
N       0.3905  0.31274  0.35751     N
N       0.3905  0.68726  0.14249     N
N       0.3905  0.81274  0.64249     N
C       0.4013   0.0632  0.12244     C
C       0.4013   0.4368  0.62244     C
C       0.4013   0.5632  0.87756     C
C       0.4013   0.9368  0.37756     C
C        0.425  0.05381  0.07455     C
C        0.425  0.44619  0.57455     C
C        0.425  0.55381  0.92545     C
C        0.425  0.94619  0.42545     C
C       0.4324  0.16341  0.70989     C
C       0.4324  0.33659  0.20989     C
C       0.4324  0.66341  0.29011     C
C       0.4324  0.83659  0.79011     C
H        0.437   0.1321   0.6272     H
H        0.437   0.3679   0.1272     H
H        0.437   0.6321   0.3728     H
H        0.437   0.8679   0.8728     H
O       0.4517   0.1677  0.75026     O
O       0.4517   0.3323  0.25026     O
O       0.4517   0.6677  0.24974     O
O       0.4517   0.8323  0.74974     O
H       0.4548   0.1303   0.3292     H
H       0.4548   0.3697   0.8292     H
H       0.4548   0.6303   0.6708     H
H       0.4548   0.8697   0.1708     H
C       0.4594  0.11166   0.3926     C
C       0.4594  0.38834   0.8926     C
C       0.4594  0.61166   0.6074     C
C       0.4594  0.88834   0.1074     C
C       0.4735  0.11456  0.18808     C
C       0.4735  0.38544  0.68808     C
C       0.4735  0.61456  0.81192     C
C       0.4735  0.88544  0.31192     C
Ag     0.47474  0.05769  0.48402    Ag
Ag     0.47474  0.44231  0.98402    Ag
Ag     0.47474  0.55768  0.51598    Ag
Ag     0.47474  0.94232  0.01598    Ag
O       0.4761    0.088  0.55353     O
O       0.4761    0.412  0.05353     O
O       0.4761    0.588  0.44647     O
O       0.4761    0.912  0.94647     O
N       0.4784  0.12589   0.9315     N
N       0.4784  0.37411   0.4315     N
N       0.4784  0.62589   0.0685     N
N       0.4784  0.87411   0.5685     N
C       0.4909  0.10727  0.14327     C
C       0.4909  0.39273  0.64327     C
C       0.4909  0.60727  0.85673     C
C       0.4909  0.89273  0.35673     C
C        0.498  0.14185  0.85583     C
C        0.498  0.35815  0.35583     C
C        0.498  0.64185  0.14417     C
C        0.498  0.85815  0.64417     C
C        0.502  0.14185  0.35583     C
C        0.502  0.35815  0.85583     C
C        0.502  0.64185  0.64417     C
C        0.502  0.85815  0.14417     C
C       0.5091  0.10727  0.64327     C
C       0.5091  0.39273  0.14327     C
C       0.5091  0.60727  0.35673     C
C       0.5091  0.89273  0.85673     C
N       0.5216  0.12589   0.4315     N
N       0.5216  0.37411   0.9315     N
N       0.5216  0.62589   0.5685     N
N       0.5216  0.87411   0.0685     N
O       0.5239    0.088  0.05353     O
O       0.5239    0.412  0.55353     O
O       0.5239    0.588  0.94647     O
O       0.5239    0.912  0.44647     O
Ag     0.52526  0.05769  0.98402    Ag
Ag     0.52526  0.44231  0.48402    Ag
Ag     0.52526  0.55768  0.01598    Ag
Ag     0.52526  0.94232  0.51598    Ag
C       0.5265  0.11456  0.68808     C
C       0.5265  0.38544  0.18808     C
C       0.5265  0.61456  0.31192     C
C       0.5265  0.88544  0.81192     C
C       0.5406  0.11166   0.8926     C
C       0.5406  0.38834   0.3926     C
C       0.5406  0.61166   0.1074     C
C       0.5406  0.88834   0.6074     C
H       0.5452   0.1303   0.8292     H
H       0.5452   0.3697   0.3292     H
H       0.5452   0.6303   0.1708     H
H       0.5452   0.8697   0.6708     H
O       0.5483   0.1677  0.25026     O
O       0.5483   0.3323  0.75026     O
O       0.5483   0.6677  0.74974     O
O       0.5483   0.8323  0.24974     O
H        0.563   0.1321   0.1272     H
H        0.563   0.3679   0.6272     H
H        0.563   0.6321   0.8728     H
H        0.563   0.8679   0.3728     H
C       0.5676  0.16341  0.20989     C
C       0.5676  0.33659  0.70989     C
C       0.5676  0.66341  0.79011     C
C       0.5676  0.83659  0.29011     C
C        0.575  0.05381  0.57455     C
C        0.575  0.44619  0.07455     C
C        0.575  0.55381  0.42545     C
C        0.575  0.94619  0.92545     C
C       0.5987   0.0632  0.62244     C
C       0.5987   0.4368  0.12244     C
C       0.5987   0.5632  0.37756     C
C       0.5987   0.9368  0.87756     C
N       0.6095  0.18726  0.35751     N
N       0.6095  0.31274  0.85751     N
N       0.6095  0.68726  0.64249     N
N       0.6095  0.81274  0.14249     N
H       0.6157   0.0801     0.89     H
H       0.6157   0.4199     0.39     H
H       0.6157   0.5801     0.11     H
H       0.6157   0.9199     0.61     H
C       0.6264  0.17169  0.43313     C
C       0.6264  0.32831  0.93313     C
C       0.6264  0.67169  0.56687     C
C       0.6264  0.82831  0.06687     C
C       0.6341  0.07741   0.7117     C
C       0.6341  0.42259   0.2117     C
C       0.6341  0.57741   0.2883     C
C       0.6341  0.92259   0.7883     C
H       0.6453   0.0817   0.7417     H
H       0.6453   0.4183   0.2417     H
H       0.6453   0.5817   0.2583     H
H       0.6453   0.9183   0.7583     H
O       0.6547  0.01204  0.55815     O
O       0.6547  0.48796  0.05815     O
O       0.6547  0.51204  0.44185     O
O       0.6547  0.98796  0.94185     O
O       0.6576  0.19581  0.18611     O
O       0.6576  0.30419  0.68611     O
O       0.6576  0.69581  0.81389     O
O       0.6576  0.80419  0.31389     O
C       0.6709  0.20205   0.3967     C
C       0.6709  0.29795   0.8967     C
C       0.6709  0.70205   0.6033     C
C       0.6709  0.79795   0.1033     C
H       0.6712   0.1836     0.46     H
H       0.6712   0.3164     0.96     H
H       0.6712   0.6836     0.54     H
H       0.6712   0.8164     0.04     H
Ag     0.69513  0.22995  0.29063    Ag
Ag     0.69513  0.27005  0.79063    Ag
Ag     0.69513  0.72995  0.70937    Ag
Ag     0.69513  0.77005  0.20937    Ag
H       0.7032    0.009    0.293     H
H       0.7032    0.491    0.793     H
H       0.7032    0.509    0.707     H
H       0.7032    0.991    0.207     H
C       0.7086  0.02736  0.64676     C
C       0.7086  0.47264  0.14676     C
C       0.7086  0.52736  0.35324     C
C       0.7086  0.97264  0.85324     C
C       0.7247  0.03393  0.69096     C
C       0.7247  0.46607  0.19096     C
C       0.7247  0.53393  0.30904     C
C       0.7247  0.96607  0.80904     C
H       0.7277   0.0015   0.1329     H
H       0.7277   0.4985   0.6329     H
H       0.7277   0.5015   0.8671     H
H       0.7277   0.9985   0.3671     H
H       0.7456   0.2337   0.3994     H
H       0.7456   0.2663   0.8994     H
H       0.7456   0.7337   0.6006     H
H       0.7456   0.7663   0.1006     H
H       0.7544   0.2337   0.6006     H
H       0.7544   0.2663   0.1006     H
H       0.7544   0.7337   0.3994     H
H       0.7544   0.7663   0.8994     H
H       0.7723   0.0015   0.8671     H
H       0.7723   0.4985   0.3671     H
H       0.7723   0.5015   0.1329     H
H       0.7723   0.9985   0.6329     H
C       0.7753  0.03393  0.30904     C
C       0.7753  0.46607  0.80904     C
C       0.7753  0.53393  0.69096     C
C       0.7753  0.96607  0.19096     C
C       0.7914  0.02736  0.35324     C
C       0.7914  0.47264  0.85324     C
C       0.7914  0.52736  0.64676     C
C       0.7914  0.97264  0.14676     C
H       0.7968    0.009    0.707     H
H       0.7968    0.491    0.207     H
H       0.7968    0.509    0.293     H
H       0.7968    0.991    0.793     H
Ag     0.80487  0.22995  0.70937    Ag
Ag     0.80487  0.27005  0.20937    Ag
Ag     0.80487  0.72995  0.29063    Ag
Ag     0.80487  0.77005  0.79063    Ag
H       0.8288   0.1836     0.54     H
H       0.8288   0.3164     0.04     H
H       0.8288   0.6836     0.46     H
H       0.8288   0.8164     0.96     H
C       0.8291  0.20205   0.6033     C
C       0.8291  0.29795   0.1033     C
C       0.8291  0.70205   0.3967     C
C       0.8291  0.79795   0.8967     C
O       0.8424  0.19581  0.81389     O
O       0.8424  0.30419  0.31389     O
O       0.8424  0.69581  0.18611     O
O       0.8424  0.80419  0.68611     O
O       0.8453  0.01204  0.44185     O
O       0.8453  0.48796  0.94185     O
O       0.8453  0.51204  0.55815     O
O       0.8453  0.98796  0.05815     O
H       0.8547   0.0817   0.2583     H
H       0.8547   0.4183   0.7583     H
H       0.8547   0.5817   0.7417     H
H       0.8547   0.9183   0.2417     H
C       0.8659  0.07741   0.2883     C
C       0.8659  0.42259   0.7883     C
C       0.8659  0.57741   0.7117     C
C       0.8659  0.92259   0.2117     C
C       0.8736  0.17169  0.56687     C
C       0.8736  0.32831  0.06687     C
C       0.8736  0.67169  0.43313     C
C       0.8736  0.82831  0.93313     C
H       0.8843   0.0801     0.11     H
H       0.8843   0.4199     0.61     H
H       0.8843   0.5801     0.89     H
H       0.8843   0.9199     0.39     H
N       0.8905  0.18726  0.64249     N
N       0.8905  0.31274  0.14249     N
N       0.8905  0.68726  0.35751     N
N       0.8905  0.81274  0.85751     N
C       0.9013   0.0632  0.37756     C
C       0.9013   0.4368  0.87756     C
C       0.9013   0.5632  0.62244     C
C       0.9013   0.9368  0.12244     C
C        0.925  0.05381  0.42545     C
C        0.925  0.44619  0.92545     C
C        0.925  0.55381  0.57455     C
C        0.925  0.94619  0.07455     C
C       0.9324  0.16341  0.79011     C
C       0.9324  0.33659  0.29011     C
C       0.9324  0.66341  0.20989     C
C       0.9324  0.83659  0.70989     C
H        0.937   0.1321   0.8728     H
H        0.937   0.3679   0.3728     H
H        0.937   0.6321   0.1272     H
H        0.937   0.8679   0.6272     H
O       0.9517   0.1677  0.74974     O
O       0.9517   0.3323  0.24974     O
O       0.9517   0.6677  0.25026     O
O       0.9517   0.8323  0.75026     O
H       0.9548   0.1303   0.1708     H
H       0.9548   0.3697   0.6708     H
H       0.9548   0.6303   0.8292     H
H       0.9548   0.8697   0.3292     H
C       0.9594  0.11166   0.1074     C
C       0.9594  0.38834   0.6074     C
C       0.9594  0.61166   0.8926     C
C       0.9594  0.88834   0.3926     C
C       0.9735  0.11456  0.31192     C
C       0.9735  0.38544  0.81192     C
C       0.9735  0.61456  0.68808     C
C       0.9735  0.88544  0.18808     C
Ag     0.97474  0.05769  0.01598    Ag
Ag     0.97474  0.44231  0.51598    Ag
Ag     0.97474  0.55768  0.98402    Ag
Ag     0.97474  0.94232  0.48402    Ag
O       0.9761    0.088  0.94647     O
O       0.9761    0.412  0.44647     O
O       0.9761    0.588  0.05353     O
O       0.9761    0.912  0.55353     O
N       0.9784  0.12589   0.5685     N
N       0.9784  0.37411   0.0685     N
N       0.9784  0.62589   0.4315     N
N       0.9784  0.87411   0.9315     N
C       0.9909  0.10727  0.35673     C
C       0.9909  0.39273  0.85673     C
C       0.9909  0.60727  0.64327     C
C       0.9909  0.89273  0.14327     C
C        0.998  0.14185  0.64417     C
C        0.998  0.35815  0.14417     C
C        0.998  0.64185  0.35583     C
C        0.998  0.85815  0.85583     C
