data_I
_chemical_name_common  '/home/zhangsd/repos/MofS-CGCNN/ML/data/TSD/clean_cifs/TAJXIO05_clean'
_cell_length_a 14.28850
_cell_length_b 23.82300
_cell_length_c 30.74900
_cell_angle_alpha 90.00000
_cell_angle_beta  90.00000
_cell_angle_gamma 90.00000
_space_group_name_H-M_alt      'P 1'


loop_
_space_group_symop_operation_xyz
  'x, y, z' 

loop_
_atom_site_label
_atom_site_fract_x
_atom_site_fract_y
_atom_site_fract_z
_atom_site_type_symbol
Ag     0.00018  0.56029  0.97178    Ag
Ag     0.00018  0.93971  0.47178    Ag
C       0.0026   0.6087    0.643     C
C       0.0026   0.8913    0.143     C
H       0.0037   0.6361   0.8169     H
H       0.0037   0.8639   0.3169     H
N        0.005    0.626   0.4324     N
N        0.005    0.874   0.9324     N
C       0.0051   0.1108   0.3646     C
C       0.0051   0.3892   0.8646     C
C       0.0071   0.6186    0.687     C
C       0.0071   0.8814    0.187     C
C       0.0074   0.6137   0.8803     C
C       0.0074   0.8863   0.3803     C
C       0.0113   0.1397    0.143     C
C       0.0113   0.3603    0.643     C
O       0.0116   0.0842   0.9473     O
O       0.0116   0.4158   0.4473     O
C       0.0135   0.1136   0.3197     C
C       0.0135   0.3864   0.8197     C
C       0.0159   0.1473   0.6549     C
C       0.0159   0.3527   0.1549     C
N       0.0165    0.127   0.5797     N
N       0.0165    0.373   0.0797     N
O         0.02   0.6591   0.2463     O
O         0.02   0.8409   0.7463     O
Ag     0.02144  0.05562  0.01449    Ag
Ag     0.02144  0.44438  0.51449    Ag
O       0.0241   0.6012   0.0452     O
O       0.0241   0.8988   0.5452     O
C       0.0284   0.6592   0.2058     C
C       0.0284   0.8408   0.7058     C
H       0.0307   0.6386   0.1208     H
H       0.0307   0.8614   0.6208     H
C       0.0319   0.0654   0.4361     C
C       0.0319   0.4346   0.9361     C
H       0.0321   0.1334   0.8751     H
H       0.0321   0.3666   0.3751     H
O       0.0337   0.1756   0.7529     O
O       0.0337   0.3244   0.2529     O
H        0.035    0.126   0.1698     H
H        0.035    0.374   0.6698     H
C       0.0378   0.1126    0.105     C
C       0.0378   0.3874    0.605     C
C       0.0388   0.5511   0.5767     C
C       0.0388   0.9489   0.0767     C
H       0.0417   0.5801   0.8754     H
H       0.0417   0.9199   0.3754     H
C        0.042   0.1693   0.7936     C
C        0.042   0.3307   0.2936     C
N       0.0451   0.6836   0.3562     N
N       0.0451   0.8164   0.8562     N
C       0.0465   0.0692   0.3885     C
C       0.0465   0.4308   0.8885     C
C       0.0475   0.5635   0.6248     C
C       0.0475   0.9365   0.1248     C
C       0.0578   0.5809   0.7142     C
C       0.0578   0.9191   0.2142     C
H       0.0588   0.5856   0.7449     H
H       0.0588   0.9144   0.2449     H
C       0.0601   0.6701   0.4329     C
C       0.0601   0.8299   0.9329     C
N       0.0628   0.1929   0.6508     N
N       0.0628   0.3071   0.1508     N
C       0.0646   0.1741   0.5744     C
C       0.0646   0.3259   0.0744     C
O       0.0712   0.6953   0.1841     O
O       0.0712   0.8047   0.6841     O
C       0.0718   0.0711   0.2994     C
C       0.0718   0.4289   0.7994     C
O       0.0721   0.0285   0.4594     O
O       0.0721   0.4715   0.9594     O
O       0.0758   0.5069   0.5622     O
O       0.0758   0.9931   0.0622     O
H       0.0807    0.071   0.2688     H
H       0.0807    0.429   0.7688     H
H       0.0811   0.1862    0.546     H
H       0.0811   0.3138    0.046     H
C       0.0826   0.6989    0.396     C
C       0.0826   0.8011    0.896     C
O       0.0838   0.1999   0.8196     O
O       0.0838   0.3001   0.3196     O
H       0.0852   0.6824   0.4598     H
H       0.0852   0.8176   0.9598     H
H       0.0858    0.085   0.1054     H
H       0.0858    0.415   0.6054     H
Ag     0.08796  0.72252  0.28948    Ag
Ag     0.08796  0.77748  0.78948    Ag
C       0.0912   0.2061   0.6106     C
C       0.0912   0.2939   0.1106     C
H        0.094   0.5026   0.2176     H
H        0.094   0.9974   0.7176     H
H       0.0972    0.518   0.2977     H
H       0.0972    0.982   0.7977     H
C       0.1006   0.5282   0.6513     C
C       0.1006   0.9718   0.1513     C
C       0.1042   0.0296   0.3684     C
C       0.1042   0.4704   0.8684     C
C       0.1054   0.5373   0.6947     C
C       0.1054   0.9627   0.1947     C
H       0.1079    0.514   0.1441     H
H       0.1079    0.986   0.6441     H
Ag     0.11053  0.23856  0.71618    Ag
Ag     0.11053  0.26144  0.21618    Ag
C       0.1144    0.031   0.3252     C
C       0.1144    0.469   0.8252     C
H       0.1196   0.5046   0.3734     H
H       0.1196   0.9954   0.8734     H
H       0.1244   0.7298   0.3977     H
H       0.1244   0.7702   0.8977     H
H        0.129   0.7363   0.6008     H
H        0.129   0.7637   0.1008     H
H       0.1303   0.2379   0.6064     H
H       0.1303   0.2621   0.1064     H
C       0.1307   0.0229   0.7011     C
C       0.1307   0.4771   0.2011     C
H       0.1335   0.0025   0.1388     H
H       0.1335   0.4975   0.6388     H
H       0.1358   0.0021   0.3852     H
H       0.1358   0.4979   0.8852     H
C       0.1376   0.5421   0.3137     C
C       0.1376   0.9579   0.8137     C
H       0.1379   0.2335   0.4085     H
H       0.1379   0.2665   0.9085     H
C       0.1387   0.0166   0.6578     C
C       0.1387   0.4834   0.1578     C
H       0.1425   0.5131   0.7121     H
H       0.1425   0.9869   0.2121     H
Ag     0.14908  0.73335  0.71115    Ag
Ag     0.14908  0.76665  0.21115    Ag
C       0.1516   0.5342   0.3589     C
C       0.1516   0.9658   0.8589     C
H       0.1523   0.0032   0.3116     H
H       0.1523   0.4968   0.8116     H
O       0.1538   0.0045   0.5679     O
O       0.1538   0.4955   0.0679     O
Ag     0.15792  0.22316  0.29923    Ag
Ag     0.15792  0.27684  0.79923    Ag
O       0.1594   0.7021    0.816     O
O       0.1594   0.7979    0.316     O
H       0.1603   0.1809   0.4697     H
H       0.1603   0.3191   0.9697     H
C       0.1658   0.7036   0.6049     C
C       0.1658   0.7964   0.1049     C
H       0.1719   0.6855   0.5409     H
H       0.1719   0.8145   0.0409     H
C       0.1721   0.1994   0.4061     C
C       0.1721   0.3006   0.9061     C
H       0.1749   0.0727   0.7525     H
H       0.1749   0.4273   0.2525     H
H       0.1767   0.5917    0.263     H
H       0.1767   0.9083    0.763     H
C       0.1778   0.0681   0.7218     C
C       0.1778   0.4319   0.2218     C
C       0.1844   0.5859   0.2933     C
C       0.1844   0.9141   0.7933     C
O       0.1853    0.189   0.1939     O
O       0.1853    0.311   0.6939     O
O       0.1855   0.5162   0.4455     O
O       0.1855   0.9838   0.9455     O
C       0.1876   0.1693   0.4431     C
C       0.1876   0.3307   0.9431     C
N       0.1894   0.6897   0.6443     N
N       0.1894   0.8103   0.1443     N
C       0.1905   0.0534   0.6323     C
C       0.1905   0.4466   0.1323     C
H       0.1909   0.0746   0.9008     H
H       0.1909   0.4254   0.4008     H
C       0.1916   0.6731   0.5688     C
C       0.1916   0.8269   0.0688     C
H       0.1945   0.5795   0.1157     H
H       0.1945   0.9205   0.6157     H
C       0.2002   0.0445   0.5845     C
C       0.2002   0.4555   0.0845     C
Ag     0.20101  0.56503  0.01922    Ag
Ag     0.20101  0.93497  0.51922    Ag
N       0.2015   0.1843    0.367     N
N       0.2015   0.3157    0.867     N
H       0.2022   0.6375   0.8763     H
H       0.2022   0.8625   0.3763     H
C       0.2093   0.6699   0.7932     C
C       0.2093   0.8301   0.2932     C
C       0.2104   0.5683   0.3823     C
C       0.2104   0.9317   0.8823     C
H       0.2163   0.1254   0.8383     H
H       0.2163   0.3746   0.3383     H
O       0.2172   0.5905   0.9498     O
O       0.2172   0.9095   0.4498     O
O       0.2238   0.6734   0.7536     O
O       0.2238   0.8266   0.2536     O
C       0.2241   0.1544   0.2197     C
C       0.2241   0.3456   0.7197     C
C       0.2265   0.1044   0.6971     C
C       0.2265   0.3956   0.1971     C
O       0.2266   0.1568     0.26     O
O       0.2266   0.3432     0.76     O
C       0.2268   0.5583   0.4299     C
C       0.2268   0.9417   0.9299     C
C       0.2269   0.1081   0.9028     C
C       0.2269   0.3919   0.4028     C
H       0.2278   0.1245   0.1371     H
H       0.2278   0.3755   0.6371     H
C       0.2313   0.6124   0.1121     C
C       0.2313   0.8876   0.6121     C
H       0.2344   0.6308   0.1764     H
H       0.2344   0.8692   0.6764     H
C       0.2358   0.0986   0.6533     C
C       0.2358   0.4014   0.1533     C
C       0.2416   0.6206   0.3167     C
C       0.2416   0.8794   0.8167     C
N        0.242    0.123   0.4417     N
N        0.242    0.377   0.9417     N
C       0.2429   0.1373    0.865     C
C       0.2429   0.3627    0.365     C
C       0.2429   0.6132   0.8608     C
C       0.2429   0.8868   0.3608     C
N       0.2434   0.6268   0.5719     N
N       0.2434   0.8732   0.0719     N
O       0.2442   0.0802   0.5626     O
O       0.2442   0.4198   0.0626     O
C       0.2446   0.6424   0.6485     C
C       0.2446   0.8576   0.1485     C
Ag     0.24852  0.04925    0.993    Ag
Ag     0.24852  0.45075    0.493    Ag
Ag     0.25148  0.04925    0.493    Ag
Ag     0.25148  0.45075    0.993    Ag
C       0.2554   0.6424   0.1485     C
C       0.2554   0.8576   0.6485     C
O       0.2558   0.0802   0.0626     O
O       0.2558   0.4198   0.5626     O
N       0.2566   0.6268   0.0719     N
N       0.2566   0.8732   0.5719     N
C       0.2571   0.1373    0.365     C
C       0.2571   0.3627    0.865     C
C       0.2571   0.6132   0.3608     C
C       0.2571   0.8868   0.8608     C
N        0.258    0.123   0.9417     N
N        0.258    0.377   0.4417     N
C       0.2584   0.6206   0.8167     C
C       0.2584   0.8794   0.3167     C
C       0.2642   0.0986   0.1533     C
C       0.2642   0.4014   0.6533     C
H       0.2656   0.6308   0.6764     H
H       0.2656   0.8692   0.1764     H
C       0.2687   0.6124   0.6121     C
C       0.2687   0.8876   0.1121     C
H       0.2722   0.1245   0.6371     H
H       0.2722   0.3755   0.1371     H
C       0.2731   0.1081   0.4028     C
C       0.2731   0.3919   0.9028     C
C       0.2732   0.5583   0.9299     C
C       0.2732   0.9417   0.4299     C
O       0.2734   0.1568     0.76     O
O       0.2734   0.3432     0.26     O
C       0.2735   0.1044   0.1971     C
C       0.2735   0.3956   0.6971     C
C       0.2759   0.1544   0.7197     C
C       0.2759   0.3456   0.2197     C
O       0.2762   0.6734   0.2536     O
O       0.2762   0.8266   0.7536     O
O       0.2828   0.5905   0.4498     O
O       0.2828   0.9095   0.9498     O
H       0.2837   0.1254   0.3383     H
H       0.2837   0.3746   0.8383     H
C       0.2896   0.5683   0.8823     C
C       0.2896   0.9317   0.3823     C
C       0.2907   0.6699   0.2932     C
C       0.2907   0.8301   0.7932     C
H       0.2978   0.6375   0.3763     H
H       0.2978   0.8625   0.8763     H
N       0.2985   0.1843    0.867     N
N       0.2985   0.3157    0.367     N
Ag     0.29899  0.56503  0.51922    Ag
Ag     0.29899  0.93497  0.01922    Ag
C       0.2998   0.0445   0.0845     C
C       0.2998   0.4555   0.5845     C
H       0.3055   0.5795   0.6157     H
H       0.3055   0.9205   0.1157     H
C       0.3084   0.6731   0.0688     C
C       0.3084   0.8269   0.5688     C
H       0.3091   0.0746   0.4008     H
H       0.3091   0.4254   0.9008     H
C       0.3095   0.0534   0.1323     C
C       0.3095   0.4466   0.6323     C
N       0.3106   0.6897   0.1443     N
N       0.3106   0.8103   0.6443     N
C       0.3124   0.1693   0.9431     C
C       0.3124   0.3307   0.4431     C
O       0.3145   0.5162   0.9455     O
O       0.3145   0.9838   0.4455     O
O       0.3147    0.189   0.6939     O
O       0.3147    0.311   0.1939     O
C       0.3156   0.5859   0.7933     C
C       0.3156   0.9141   0.2933     C
C       0.3222   0.0681   0.2218     C
C       0.3222   0.4319   0.7218     C
H       0.3233   0.5917    0.763     H
H       0.3233   0.9083    0.263     H
H       0.3251   0.0727   0.2525     H
H       0.3251   0.4273   0.7525     H
C       0.3279   0.1994   0.9061     C
C       0.3279   0.3006   0.4061     C
H       0.3281   0.6855   0.0409     H
H       0.3281   0.8145   0.5409     H
C       0.3342   0.7036   0.1049     C
C       0.3342   0.7964   0.6049     C
H       0.3397   0.1809   0.9697     H
H       0.3397   0.3191   0.4697     H
O       0.3406   0.7021    0.316     O
O       0.3406   0.7979    0.816     O
Ag     0.34208  0.22316  0.79923    Ag
Ag     0.34208  0.27684  0.29923    Ag
O       0.3462   0.0045   0.0679     O
O       0.3462   0.4955   0.5679     O
H       0.3477   0.0032   0.8116     H
H       0.3477   0.4968   0.3116     H
C       0.3484   0.5342   0.8589     C
C       0.3484   0.9658   0.3589     C
Ag     0.35092  0.73335  0.21115    Ag
Ag     0.35092  0.76665  0.71115    Ag
H       0.3575   0.5131   0.2121     H
H       0.3575   0.9869   0.7121     H
C       0.3613   0.0166   0.1578     C
C       0.3613   0.4834   0.6578     C
H       0.3621   0.2335   0.9085     H
H       0.3621   0.2665   0.4085     H
C       0.3624   0.5421   0.8137     C
C       0.3624   0.9579   0.3137     C
H       0.3642   0.0021   0.8852     H
H       0.3642   0.4979   0.3852     H
H       0.3665   0.0025   0.6388     H
H       0.3665   0.4975   0.1388     H
C       0.3693   0.0229   0.2011     C
C       0.3693   0.4771   0.7011     C
H       0.3697   0.2379   0.1064     H
H       0.3697   0.2621   0.6064     H
H        0.371   0.7363   0.1008     H
H        0.371   0.7637   0.6008     H
H       0.3756   0.7298   0.8977     H
H       0.3756   0.7702   0.3977     H
H       0.3804   0.5046   0.8734     H
H       0.3804   0.9954   0.3734     H
C       0.3856    0.031   0.8252     C
C       0.3856    0.469   0.3252     C
Ag     0.38947  0.23856  0.21618    Ag
Ag     0.38947  0.26144  0.71618    Ag
H       0.3921    0.514   0.6441     H
H       0.3921    0.986   0.1441     H
C       0.3946   0.5373   0.1947     C
C       0.3946   0.9627   0.6947     C
C       0.3958   0.0296   0.8684     C
C       0.3958   0.4704   0.3684     C
C       0.3994   0.5282   0.1513     C
C       0.3994   0.9718   0.6513     C
H       0.4028    0.518   0.7977     H
H       0.4028    0.982   0.2977     H
H        0.406   0.5026   0.7176     H
H        0.406   0.9974   0.2176     H
C       0.4088   0.2061   0.1106     C
C       0.4088   0.2939   0.6106     C
Ag     0.41204  0.72252  0.78948    Ag
Ag     0.41204  0.77748  0.28948    Ag
H       0.4142    0.085   0.6054     H
H       0.4142    0.415   0.1054     H
H       0.4148   0.6824   0.9598     H
H       0.4148   0.8176   0.4598     H
O       0.4162   0.1999   0.3196     O
O       0.4162   0.3001   0.8196     O
C       0.4174   0.6989    0.896     C
C       0.4174   0.8011    0.396     C
H       0.4189   0.1862    0.046     H
H       0.4189   0.3138    0.546     H
H       0.4193    0.071   0.7688     H
H       0.4193    0.429   0.2688     H
O       0.4242   0.5069   0.0622     O
O       0.4242   0.9931   0.5622     O
O       0.4279   0.0285   0.9594     O
O       0.4279   0.4715   0.4594     O
C       0.4282   0.0711   0.7994     C
C       0.4282   0.4289   0.2994     C
O       0.4288   0.6953   0.6841     O
O       0.4288   0.8047   0.1841     O
C       0.4354   0.1741   0.0744     C
C       0.4354   0.3259   0.5744     C
N       0.4372   0.1929   0.1508     N
N       0.4372   0.3071   0.6508     N
C       0.4399   0.6701   0.9329     C
C       0.4399   0.8299   0.4329     C
H       0.4412   0.5856   0.2449     H
H       0.4412   0.9144   0.7449     H
C       0.4422   0.5809   0.2142     C
C       0.4422   0.9191   0.7142     C
C       0.4525   0.5635   0.1248     C
C       0.4525   0.9365   0.6248     C
C       0.4535   0.0692   0.8885     C
C       0.4535   0.4308   0.3885     C
N       0.4549   0.6836   0.8562     N
N       0.4549   0.8164   0.3562     N
C        0.458   0.1693   0.2936     C
C        0.458   0.3307   0.7936     C
H       0.4583   0.5801   0.3754     H
H       0.4583   0.9199   0.8754     H
C       0.4612   0.5511   0.0767     C
C       0.4612   0.9489   0.5767     C
C       0.4622   0.1126    0.605     C
C       0.4622   0.3874    0.105     C
H        0.465    0.126   0.6698     H
H        0.465    0.374   0.1698     H
O       0.4663   0.1756   0.2529     O
O       0.4663   0.3244   0.7529     O
H       0.4679   0.1334   0.3751     H
H       0.4679   0.3666   0.8751     H
C       0.4681   0.0654   0.9361     C
C       0.4681   0.4346   0.4361     C
H       0.4693   0.6386   0.6208     H
H       0.4693   0.8614   0.1208     H
C       0.4716   0.6592   0.7058     C
C       0.4716   0.8408   0.2058     C
O       0.4759   0.6012   0.5452     O
O       0.4759   0.8988   0.0452     O
Ag     0.47856  0.05562  0.51449    Ag
Ag     0.47856  0.44438  0.01449    Ag
O         0.48   0.6591   0.7463     O
O         0.48   0.8409   0.2463     O
N       0.4835    0.127   0.0797     N
N       0.4835    0.373   0.5797     N
C       0.4841   0.1473   0.1549     C
C       0.4841   0.3527   0.6549     C
C       0.4865   0.1136   0.8197     C
C       0.4865   0.3864   0.3197     C
O       0.4884   0.0842   0.4473     O
O       0.4884   0.4158   0.9473     O
C       0.4887   0.1397    0.643     C
C       0.4887   0.3603    0.143     C
C       0.4926   0.6137   0.3803     C
C       0.4926   0.8863   0.8803     C
C       0.4929   0.6186    0.187     C
C       0.4929   0.8814    0.687     C
C       0.4949   0.1108   0.8646     C
C       0.4949   0.3892   0.3646     C
N        0.495    0.626   0.9324     N
N        0.495    0.874   0.4324     N
H       0.4963   0.6361   0.3169     H
H       0.4963   0.8639   0.8169     H
C       0.4974   0.6087    0.143     C
C       0.4974   0.8913    0.643     C
Ag     0.49982  0.56029  0.47178    Ag
Ag     0.49982  0.93971  0.97178    Ag
Ag     0.50018  0.06029  0.02822    Ag
Ag     0.50018  0.43971  0.52822    Ag
C       0.5026   0.1087    0.357     C
C       0.5026   0.3913    0.857     C
H       0.5037   0.1361   0.1831     H
H       0.5037   0.3639   0.6831     H
N        0.505    0.126   0.5676     N
N        0.505    0.374   0.0676     N
C       0.5051   0.6108   0.6354     C
C       0.5051   0.8892   0.1354     C
C       0.5071   0.1186    0.313     C
C       0.5071   0.3814    0.813     C
C       0.5074   0.1137   0.1197     C
C       0.5074   0.3863   0.6197     C
C       0.5113   0.6397    0.857     C
C       0.5113   0.8603    0.357     C
O       0.5116   0.5842   0.0527     O
O       0.5116   0.9158   0.5527     O
C       0.5135   0.6136   0.6803     C
C       0.5135   0.8864   0.1803     C
C       0.5159   0.6473   0.3451     C
C       0.5159   0.8527   0.8451     C
N       0.5165    0.627   0.4203     N
N       0.5165    0.873   0.9203     N
O         0.52   0.1591   0.7537     O
O         0.52   0.3409   0.2537     O
Ag     0.52144  0.55562  0.98551    Ag
Ag     0.52144  0.94438  0.48551    Ag
O       0.5241   0.1012   0.9548     O
O       0.5241   0.3988   0.4548     O
C       0.5284   0.1592   0.7942     C
C       0.5284   0.3408   0.2942     C
H       0.5307   0.1386   0.8792     H
H       0.5307   0.3614   0.3792     H
C       0.5319   0.5654   0.5639     C
C       0.5319   0.9346   0.0639     C
H       0.5321   0.6334   0.1249     H
H       0.5321   0.8666   0.6249     H
O       0.5337   0.6756   0.2471     O
O       0.5337   0.8244   0.7471     O
H        0.535    0.626   0.8302     H
H        0.535    0.874   0.3302     H
C       0.5378   0.6126    0.895     C
C       0.5378   0.8874    0.395     C
C       0.5388   0.0511   0.4233     C
C       0.5388   0.4489   0.9233     C
H       0.5417   0.0801   0.1246     H
H       0.5417   0.4199   0.6246     H
C        0.542   0.6693   0.2064     C
C        0.542   0.8307   0.7064     C
N       0.5451   0.1836   0.6438     N
N       0.5451   0.3164   0.1438     N
C       0.5465   0.5692   0.6115     C
C       0.5465   0.9308   0.1115     C
C       0.5475   0.0635   0.3752     C
C       0.5475   0.4365   0.8752     C
C       0.5578   0.0809   0.2858     C
C       0.5578   0.4191   0.7858     C
H       0.5588   0.0856   0.2551     H
H       0.5588   0.4144   0.7551     H
C       0.5601   0.1701   0.5671     C
C       0.5601   0.3299   0.0671     C
N       0.5628   0.6929   0.3492     N
N       0.5628   0.8071   0.8492     N
C       0.5646   0.6741   0.4256     C
C       0.5646   0.8259   0.9256     C
O       0.5712   0.1953   0.8159     O
O       0.5712   0.3047   0.3159     O
C       0.5718   0.5711   0.7006     C
C       0.5718   0.9289   0.2006     C
O       0.5721   0.5285   0.5406     O
O       0.5721   0.9715   0.0406     O
O       0.5758   0.0069   0.4378     O
O       0.5758   0.4931   0.9378     O
H       0.5807    0.571   0.7312     H
H       0.5807    0.929   0.2312     H
H       0.5811   0.6862    0.454     H
H       0.5811   0.8138    0.954     H
C       0.5826   0.1989    0.604     C
C       0.5826   0.3011    0.104     C
O       0.5838   0.6999   0.1804     O
O       0.5838   0.8001   0.6804     O
H       0.5852   0.1824   0.5402     H
H       0.5852   0.3176   0.0402     H
H       0.5858    0.585   0.8946     H
H       0.5858    0.915   0.3946     H
Ag     0.58796  0.22252  0.71052    Ag
Ag     0.58796  0.27748  0.21052    Ag
C       0.5912   0.7061   0.3894     C
C       0.5912   0.7939   0.8894     C
H        0.594   0.0026   0.7824     H
H        0.594   0.4974   0.2824     H
H       0.5972    0.018   0.7023     H
H       0.5972    0.482   0.2023     H
C       0.6006   0.0282   0.3487     C
C       0.6006   0.4718   0.8487     C
C       0.6042   0.5296   0.6316     C
C       0.6042   0.9704   0.1316     C
C       0.6054   0.0373   0.3053     C
C       0.6054   0.4627   0.8053     C
H       0.6079    0.014   0.8559     H
H       0.6079    0.486   0.3559     H
Ag     0.61053  0.73856  0.28382    Ag
Ag     0.61053  0.76144  0.78382    Ag
C       0.6144    0.531   0.6748     C
C       0.6144    0.969   0.1748     C
H       0.6196   0.0046   0.6266     H
H       0.6196   0.4954   0.1266     H
H       0.6244   0.2298   0.6023     H
H       0.6244   0.2702   0.1023     H
H        0.629   0.2363   0.3992     H
H        0.629   0.2637   0.8992     H
H       0.6303   0.7379   0.3936     H
H       0.6303   0.7621   0.8936     H
C       0.6307   0.5229   0.2989     C
C       0.6307   0.9771   0.7989     C
H       0.6335   0.5025   0.8612     H
H       0.6335   0.9975   0.3612     H
H       0.6358   0.5021   0.6148     H
H       0.6358   0.9979   0.1148     H
C       0.6376   0.0421   0.6863     C
C       0.6376   0.4579   0.1863     C
H       0.6379   0.7335   0.5915     H
H       0.6379   0.7665   0.0915     H
C       0.6387   0.5166   0.3422     C
C       0.6387   0.9834   0.8422     C
H       0.6425   0.0131   0.2879     H
H       0.6425   0.4869   0.7879     H
Ag     0.64908  0.23335  0.28885    Ag
Ag     0.64908  0.26665  0.78885    Ag
C       0.6516   0.0342   0.6411     C
C       0.6516   0.4658   0.1411     C
H       0.6523   0.5032   0.6884     H
H       0.6523   0.9968   0.1884     H
O       0.6538   0.5045   0.4321     O
O       0.6538   0.9955   0.9321     O
Ag     0.65792  0.72316  0.70077    Ag
Ag     0.65792  0.77684  0.20077    Ag
O       0.6594   0.2021    0.184     O
O       0.6594   0.2979    0.684     O
H       0.6603   0.6809   0.5303     H
H       0.6603   0.8191   0.0303     H
C       0.6658   0.2036   0.3951     C
C       0.6658   0.2964   0.8951     C
H       0.6719   0.1855   0.4591     H
H       0.6719   0.3145   0.9591     H
C       0.6721   0.6994   0.5939     C
C       0.6721   0.8006   0.0939     C
H       0.6749   0.5727   0.2475     H
H       0.6749   0.9273   0.7475     H
H       0.6767   0.0917    0.737     H
H       0.6767   0.4083    0.237     H
C       0.6778   0.5681   0.2782     C
C       0.6778   0.9319   0.7782     C
C       0.6844   0.0859   0.7067     C
C       0.6844   0.4141   0.2067     C
O       0.6853    0.689   0.8061     O
O       0.6853    0.811   0.3061     O
O       0.6855   0.0162   0.5545     O
O       0.6855   0.4838   0.0545     O
C       0.6876   0.6693   0.5569     C
C       0.6876   0.8307   0.0569     C
N       0.6894   0.1897   0.3557     N
N       0.6894   0.3103   0.8557     N
C       0.6905   0.5534   0.3677     C
C       0.6905   0.9466   0.8677     C
H       0.6909   0.5746   0.0992     H
H       0.6909   0.9254   0.5992     H
C       0.6916   0.1731   0.4312     C
C       0.6916   0.3269   0.9312     C
H       0.6945   0.0795   0.8843     H
H       0.6945   0.4205   0.3843     H
C       0.7002   0.5445   0.4155     C
C       0.7002   0.9555   0.9155     C
Ag     0.70101  0.06503  0.98078    Ag
Ag     0.70101  0.43497  0.48078    Ag
N       0.7015   0.6843    0.633     N
N       0.7015   0.8157    0.133     N
H       0.7022   0.1375   0.1237     H
H       0.7022   0.3625   0.6237     H
C       0.7093   0.1699   0.2068     C
C       0.7093   0.3301   0.7068     C
C       0.7104   0.0683   0.6177     C
C       0.7104   0.4317   0.1177     C
H       0.7163   0.6254   0.1617     H
H       0.7163   0.8746   0.6617     H
O       0.7172   0.0905   0.0502     O
O       0.7172   0.4095   0.5502     O
O       0.7238   0.1734   0.2464     O
O       0.7238   0.3266   0.7464     O
C       0.7241   0.6544   0.7803     C
C       0.7241   0.8456   0.2803     C
C       0.7265   0.6044   0.3029     C
C       0.7265   0.8956   0.8029     C
O       0.7266   0.6568     0.74     O
O       0.7266   0.8432     0.24     O
C       0.7268   0.0583   0.5701     C
C       0.7268   0.4417   0.0701     C
C       0.7269   0.6081   0.0972     C
C       0.7269   0.8919   0.5972     C
H       0.7278   0.6245   0.8629     H
H       0.7278   0.8755   0.3629     H
C       0.7313   0.1124   0.8879     C
C       0.7313   0.3876   0.3879     C
H       0.7344   0.1308   0.8236     H
H       0.7344   0.3692   0.3236     H
C       0.7358   0.5986   0.3467     C
C       0.7358   0.9014   0.8467     C
C       0.7416   0.1206   0.6833     C
C       0.7416   0.3794   0.1833     C
N        0.742    0.623   0.5583     N
N        0.742    0.877   0.0583     N
C       0.7429   0.1132   0.1392     C
C       0.7429   0.3868   0.6392     C
C       0.7429   0.6373    0.135     C
C       0.7429   0.8627    0.635     C
N       0.7434   0.1268   0.4281     N
N       0.7434   0.3732   0.9281     N
O       0.7442   0.5802   0.4374     O
O       0.7442   0.9198   0.9374     O
C       0.7446   0.1424   0.3515     C
C       0.7446   0.3576   0.8515     C
Ag     0.74852  0.54925    0.007    Ag
Ag     0.74852  0.95075    0.507    Ag
Ag     0.75148  0.54925    0.507    Ag
Ag     0.75148  0.95075    0.007    Ag
C       0.7554   0.1424   0.8515     C
C       0.7554   0.3576   0.3515     C
O       0.7558   0.5802   0.9374     O
O       0.7558   0.9198   0.4374     O
N       0.7566   0.1268   0.9281     N
N       0.7566   0.3732   0.4281     N
C       0.7571   0.1132   0.6392     C
C       0.7571   0.3868   0.1392     C
C       0.7571   0.6373    0.635     C
C       0.7571   0.8627    0.135     C
N        0.758    0.623   0.0583     N
N        0.758    0.877   0.5583     N
C       0.7584   0.1206   0.1833     C
C       0.7584   0.3794   0.6833     C
C       0.7642   0.5986   0.8467     C
C       0.7642   0.9014   0.3467     C
H       0.7656   0.1308   0.3236     H
H       0.7656   0.3692   0.8236     H
C       0.7687   0.1124   0.3879     C
C       0.7687   0.3876   0.8879     C
H       0.7722   0.6245   0.3629     H
H       0.7722   0.8755   0.8629     H
C       0.7731   0.6081   0.5972     C
C       0.7731   0.8919   0.0972     C
C       0.7732   0.0583   0.0701     C
C       0.7732   0.4417   0.5701     C
O       0.7734   0.6568     0.24     O
O       0.7734   0.8432     0.74     O
C       0.7735   0.6044   0.8029     C
C       0.7735   0.8956   0.3029     C
C       0.7759   0.6544   0.2803     C
C       0.7759   0.8456   0.7803     C
O       0.7762   0.1734   0.7464     O
O       0.7762   0.3266   0.2464     O
O       0.7828   0.0905   0.5502     O
O       0.7828   0.4095   0.0502     O
H       0.7837   0.6254   0.6617     H
H       0.7837   0.8746   0.1617     H
C       0.7896   0.0683   0.1177     C
C       0.7896   0.4317   0.6177     C
C       0.7907   0.1699   0.7068     C
C       0.7907   0.3301   0.2068     C
H       0.7978   0.1375   0.6237     H
H       0.7978   0.3625   0.1237     H
N       0.7985   0.6843    0.133     N
N       0.7985   0.8157    0.633     N
Ag     0.79899  0.06503  0.48078    Ag
Ag     0.79899  0.43497  0.98078    Ag
C       0.7998   0.5445   0.9155     C
C       0.7998   0.9555   0.4155     C
H       0.8055   0.0795   0.3843     H
H       0.8055   0.4205   0.8843     H
C       0.8084   0.1731   0.9312     C
C       0.8084   0.3269   0.4312     C
H       0.8091   0.5746   0.5992     H
H       0.8091   0.9254   0.0992     H
C       0.8095   0.5534   0.8677     C
C       0.8095   0.9466   0.3677     C
N       0.8106   0.1897   0.8557     N
N       0.8106   0.3103   0.3557     N
C       0.8124   0.6693   0.0569     C
C       0.8124   0.8307   0.5569     C
O       0.8145   0.0162   0.0545     O
O       0.8145   0.4838   0.5545     O
O       0.8147    0.689   0.3061     O
O       0.8147    0.811   0.8061     O
C       0.8156   0.0859   0.2067     C
C       0.8156   0.4141   0.7067     C
C       0.8222   0.5681   0.7782     C
C       0.8222   0.9319   0.2782     C
H       0.8233   0.0917    0.237     H
H       0.8233   0.4083    0.737     H
H       0.8251   0.5727   0.7475     H
H       0.8251   0.9273   0.2475     H
C       0.8279   0.6994   0.0939     C
C       0.8279   0.8006   0.5939     C
H       0.8281   0.1855   0.9591     H
H       0.8281   0.3145   0.4591     H
C       0.8342   0.2036   0.8951     C
C       0.8342   0.2964   0.3951     C
H       0.8397   0.6809   0.0303     H
H       0.8397   0.8191   0.5303     H
O       0.8406   0.2021    0.684     O
O       0.8406   0.2979    0.184     O
Ag     0.84208  0.72316  0.20077    Ag
Ag     0.84208  0.77684  0.70077    Ag
O       0.8462   0.5045   0.9321     O
O       0.8462   0.9955   0.4321     O
H       0.8477   0.5032   0.1884     H
H       0.8477   0.9968   0.6884     H
C       0.8484   0.0342   0.1411     C
C       0.8484   0.4658   0.6411     C
Ag     0.85092  0.23335  0.78885    Ag
Ag     0.85092  0.26665  0.28885    Ag
H       0.8575   0.0131   0.7879     H
H       0.8575   0.4869   0.2879     H
C       0.8613   0.5166   0.8422     C
C       0.8613   0.9834   0.3422     C
H       0.8621   0.7335   0.0915     H
H       0.8621   0.7665   0.5915     H
C       0.8624   0.0421   0.1863     C
C       0.8624   0.4579   0.6863     C
H       0.8642   0.5021   0.1148     H
H       0.8642   0.9979   0.6148     H
H       0.8665   0.5025   0.3612     H
H       0.8665   0.9975   0.8612     H
C       0.8693   0.5229   0.7989     C
C       0.8693   0.9771   0.2989     C
H       0.8697   0.7379   0.8936     H
H       0.8697   0.7621   0.3936     H
H        0.871   0.2363   0.8992     H
H        0.871   0.2637   0.3992     H
H       0.8756   0.2298   0.1023     H
H       0.8756   0.2702   0.6023     H
H       0.8804   0.0046   0.1266     H
H       0.8804   0.4954   0.6266     H
C       0.8856    0.531   0.1748     C
C       0.8856    0.969   0.6748     C
Ag     0.88947  0.73856  0.78382    Ag
Ag     0.88947  0.76144  0.28382    Ag
H       0.8921    0.014   0.3559     H
H       0.8921    0.486   0.8559     H
C       0.8946   0.0373   0.8053     C
C       0.8946   0.4627   0.3053     C
C       0.8958   0.5296   0.1316     C
C       0.8958   0.9704   0.6316     C
C       0.8994   0.0282   0.8487     C
C       0.8994   0.4718   0.3487     C
H       0.9028    0.018   0.2023     H
H       0.9028    0.482   0.7023     H
H        0.906   0.0026   0.2824     H
H        0.906   0.4974   0.7824     H
C       0.9088   0.7061   0.8894     C
C       0.9088   0.7939   0.3894     C
Ag     0.91204  0.22252  0.21052    Ag
Ag     0.91204  0.27748  0.71052    Ag
H       0.9142    0.585   0.3946     H
H       0.9142    0.915   0.8946     H
H       0.9148   0.1824   0.0402     H
H       0.9148   0.3176   0.5402     H
O       0.9162   0.6999   0.6804     O
O       0.9162   0.8001   0.1804     O
C       0.9174   0.1989    0.104     C
C       0.9174   0.3011    0.604     C
H       0.9189   0.6862    0.954     H
H       0.9189   0.8138    0.454     H
H       0.9193    0.571   0.2312     H
H       0.9193    0.929   0.7312     H
O       0.9242   0.0069   0.9378     O
O       0.9242   0.4931   0.4378     O
O       0.9279   0.5285   0.0406     O
O       0.9279   0.9715   0.5406     O
C       0.9282   0.5711   0.2006     C
C       0.9282   0.9289   0.7006     C
O       0.9288   0.1953   0.3159     O
O       0.9288   0.3047   0.8159     O
C       0.9354   0.6741   0.9256     C
C       0.9354   0.8259   0.4256     C
N       0.9372   0.6929   0.8492     N
N       0.9372   0.8071   0.3492     N
C       0.9399   0.1701   0.0671     C
C       0.9399   0.3299   0.5671     C
H       0.9412   0.0856   0.7551     H
H       0.9412   0.4144   0.2551     H
C       0.9422   0.0809   0.7858     C
C       0.9422   0.4191   0.2858     C
C       0.9525   0.0635   0.8752     C
C       0.9525   0.4365   0.3752     C
C       0.9535   0.5692   0.1115     C
C       0.9535   0.9308   0.6115     C
N       0.9549   0.1836   0.1438     N
N       0.9549   0.3164   0.6438     N
C        0.958   0.6693   0.7064     C
C        0.958   0.8307   0.2064     C
H       0.9583   0.0801   0.6246     H
H       0.9583   0.4199   0.1246     H
C       0.9612   0.0511   0.9233     C
C       0.9612   0.4489   0.4233     C
C       0.9622   0.6126    0.395     C
C       0.9622   0.8874    0.895     C
H        0.965    0.626   0.3302     H
H        0.965    0.874   0.8302     H
O       0.9663   0.6756   0.7471     O
O       0.9663   0.8244   0.2471     O
H       0.9679   0.6334   0.6249     H
H       0.9679   0.8666   0.1249     H
C       0.9681   0.5654   0.0639     C
C       0.9681   0.9346   0.5639     C
H       0.9693   0.1386   0.3792     H
H       0.9693   0.3614   0.8792     H
C       0.9716   0.1592   0.2942     C
C       0.9716   0.3408   0.7942     C
O       0.9759   0.1012   0.4548     O
O       0.9759   0.3988   0.9548     O
Ag     0.97856  0.55562  0.48551    Ag
Ag     0.97856  0.94438  0.98551    Ag
O         0.98   0.1591   0.2537     O
O         0.98   0.3409   0.7537     O
N       0.9835    0.627   0.9203     N
N       0.9835    0.873   0.4203     N
C       0.9841   0.6473   0.8451     C
C       0.9841   0.8527   0.3451     C
C       0.9865   0.6136   0.1803     C
C       0.9865   0.8864   0.6803     C
O       0.9884   0.5842   0.5527     O
O       0.9884   0.9158   0.0527     O
C       0.9887   0.6397    0.357     C
C       0.9887   0.8603    0.857     C
C       0.9926   0.1137   0.6197     C
C       0.9926   0.3863   0.1197     C
C       0.9929   0.1186    0.813     C
C       0.9929   0.3814    0.313     C
C       0.9949   0.6108   0.1354     C
C       0.9949   0.8892   0.6354     C
N        0.995    0.126   0.0676     N
N        0.995    0.374   0.5676     N
H       0.9963   0.1361   0.6831     H
H       0.9963   0.3639   0.1831     H
C       0.9974   0.1087    0.857     C
C       0.9974   0.3913    0.357     C
Ag     0.99982  0.06029  0.52822    Ag
Ag     0.99982  0.43971  0.02822    Ag
