data_I
_chemical_name_common  '/home/zhangsd/repos/MofS-CGCNN/ML/data/TSD/clean_cifs/TAJXIO_clean'
_cell_length_a  7.23500
_cell_length_b 23.71100
_cell_length_c 30.53000
_cell_angle_alpha 90.00000
_cell_angle_beta  90.00000
_cell_angle_gamma 90.00000
_space_group_name_H-M_alt      'P 1'


loop_
_space_group_symop_operation_xyz
  'x, y, z' 

loop_
_atom_site_label
_atom_site_fract_x
_atom_site_fract_y
_atom_site_fract_z
_atom_site_type_symbol
C       0.0033  0.14176  0.14425     C
C       0.0033  0.35824  0.64425     C
C       0.0033  0.64176  0.85575     C
C       0.0033  0.85824  0.35575     C
C       0.0071  0.10719  0.85659     C
C       0.0071  0.39281  0.35659     C
C       0.0071  0.60719  0.14341     C
C       0.0071  0.89281  0.64341     C
N       0.0227   0.1259   0.0687     N
N       0.0227   0.3741   0.5687     N
N       0.0227   0.6259   0.9313     N
N       0.0227   0.8741   0.4313     N
Ag      0.0236  0.05784  0.51607    Ag
Ag      0.0236  0.44216  0.01607    Ag
Ag      0.0236  0.55784  0.48393    Ag
Ag      0.0236  0.94216  0.98393    Ag
C       0.0245  0.11473  0.81207     C
C       0.0245  0.38527  0.31207     C
C       0.0245  0.61473  0.18793     C
C       0.0245  0.88527  0.68793     C
O       0.0254  0.08778  0.44631     O
O       0.0254  0.41222  0.94631     O
O       0.0254  0.58778  0.55369     O
O       0.0254  0.91222  0.05369     O
C       0.0393   0.1118   0.6075     C
C       0.0393   0.3882   0.1075     C
C       0.0393   0.6118   0.3925     C
C       0.0393   0.8882   0.8925     C
H       0.0438     0.13   0.6714     H
H       0.0438     0.37   0.1714     H
H       0.0438     0.63   0.3286     H
H       0.0438     0.87   0.8286     H
O       0.0492  0.16791  0.24989     O
O       0.0492  0.33209  0.74989     O
O       0.0492  0.66791  0.75011     O
O       0.0492  0.83209  0.25011     O
H       0.0665   0.1322   0.3729     H
H       0.0665   0.3678   0.8729     H
H       0.0665   0.6322   0.6271     H
H       0.0665   0.8678   0.1271     H
C       0.0688   0.1637  0.29035     C
C       0.0688   0.3363  0.79035     C
C       0.0688   0.6637  0.70965     C
C       0.0688   0.8363  0.20965     C
C       0.0729    0.054   0.9255     C
C       0.0729    0.446   0.4255     C
C       0.0729    0.554   0.0745     C
C       0.0729    0.946   0.5745     C
C       0.0967  0.06331  0.87764     C
C       0.0967  0.43669  0.37764     C
C       0.0967  0.56331  0.12236     C
C       0.0967  0.93669  0.62236     C
N         0.11  0.18715  0.14239     N
N         0.11  0.31285  0.64239     N
N         0.11  0.68715  0.85761     N
N         0.11  0.81285  0.35761     N
H        0.116     0.08   0.6101     H
H        0.116     0.42   0.1101     H
H        0.116     0.58   0.3899     H
H        0.116     0.92   0.8899     H
C       0.1281   0.1716  0.06706     C
C       0.1281   0.3284  0.56706     C
C       0.1281   0.6716  0.93294     C
C       0.1281   0.8284  0.43294     C
C       0.1317   0.0778  0.78845     C
C       0.1317   0.4222  0.28845     C
C       0.1317   0.5778  0.21155     C
C       0.1317   0.9222  0.71155     C
H       0.1431   0.0822    0.758     H
H       0.1431   0.4178    0.258     H
H       0.1431   0.5822    0.242     H
H       0.1431   0.9178    0.742     H
O       0.1517  0.01231  0.94193     O
O       0.1517  0.48769  0.44193     O
O       0.1517  0.51231  0.05807     O
O       0.1517  0.98769  0.55807     O
O       0.1591  0.19581  0.31393     O
O       0.1591  0.30419  0.81393     O
O       0.1591  0.69581  0.68607     O
O       0.1591  0.80419  0.18607     O
C       0.1714   0.2019  0.10324     C
C       0.1714   0.2981  0.60324     C
C       0.1714   0.7019  0.89676     C
C       0.1714   0.7981  0.39676     C
H       0.1744   0.1834   0.0398     H
H       0.1744   0.3166   0.5398     H
H       0.1744   0.6834   0.9602     H
H       0.1744   0.8166   0.4602     H
Ag     0.19517  0.22994   0.2094    Ag
Ag     0.19517  0.27006   0.7094    Ag
Ag     0.19517  0.72994   0.7906    Ag
Ag     0.19517  0.77006   0.2906    Ag
H       0.2036   0.0092   0.2071     H
H       0.2036   0.4908   0.7071     H
H       0.2036   0.5092   0.7929     H
H       0.2036   0.9908   0.2929     H
C       0.2057   0.0275  0.85312     C
C       0.2057   0.4725  0.35312     C
C       0.2057   0.5275  0.14688     C
C       0.2057   0.9725  0.64688     C
C       0.2227   0.0342  0.80917     C
C       0.2227   0.4658  0.30917     C
C       0.2227   0.5342  0.19083     C
C       0.2227   0.9658  0.69083     C
H       0.2309   0.0021   0.3671     H
H       0.2309   0.4979   0.8671     H
H       0.2309   0.5021   0.6329     H
H       0.2309   0.9979   0.1329     H
H       0.2464   0.2341   0.1005     H
H       0.2464   0.2659   0.6005     H
H       0.2464   0.7341   0.8995     H
H       0.2464   0.7659   0.3995     H
H       0.2536   0.2341   0.8995     H
H       0.2536   0.2659   0.3995     H
H       0.2536   0.7341   0.1005     H
H       0.2536   0.7659   0.6005     H
H       0.2691   0.0021   0.6329     H
H       0.2691   0.4979   0.1329     H
H       0.2691   0.5021   0.3671     H
H       0.2691   0.9979   0.8671     H
C       0.2773   0.0342  0.19083     C
C       0.2773   0.4658  0.69083     C
C       0.2773   0.5342  0.80917     C
C       0.2773   0.9658  0.30917     C
C       0.2943   0.0275  0.14688     C
C       0.2943   0.4725  0.64688     C
C       0.2943   0.5275  0.85312     C
C       0.2943   0.9725  0.35312     C
H       0.2964   0.0092   0.7929     H
H       0.2964   0.4908   0.2929     H
H       0.2964   0.5092   0.2071     H
H       0.2964   0.9908   0.7071     H
Ag     0.30483  0.22994   0.7906    Ag
Ag     0.30483  0.27006   0.2906    Ag
Ag     0.30483  0.72994   0.2094    Ag
Ag     0.30483  0.77006   0.7094    Ag
H       0.3256   0.1834   0.9602     H
H       0.3256   0.3166   0.4602     H
H       0.3256   0.6834   0.0398     H
H       0.3256   0.8166   0.5398     H
C       0.3286   0.2019  0.89676     C
C       0.3286   0.2981  0.39676     C
C       0.3286   0.7019  0.10324     C
C       0.3286   0.7981  0.60324     C
O       0.3409  0.19581  0.68607     O
O       0.3409  0.30419  0.18607     O
O       0.3409  0.69581  0.31393     O
O       0.3409  0.80419  0.81393     O
O       0.3483  0.01231  0.05807     O
O       0.3483  0.48769  0.55807     O
O       0.3483  0.51231  0.94193     O
O       0.3483  0.98769  0.44193     O
H       0.3569   0.0822    0.242     H
H       0.3569   0.4178    0.742     H
H       0.3569   0.5822    0.758     H
H       0.3569   0.9178    0.258     H
C       0.3683   0.0778  0.21155     C
C       0.3683   0.4222  0.71155     C
C       0.3683   0.5778  0.78845     C
C       0.3683   0.9222  0.28845     C
C       0.3719   0.1716  0.93294     C
C       0.3719   0.3284  0.43294     C
C       0.3719   0.6716  0.06706     C
C       0.3719   0.8284  0.56706     C
H        0.384     0.08   0.3899     H
H        0.384     0.42   0.8899     H
H        0.384     0.58   0.6101     H
H        0.384     0.92   0.1101     H
N         0.39  0.18715  0.85761     N
N         0.39  0.31285  0.35761     N
N         0.39  0.68715  0.14239     N
N         0.39  0.81285  0.64239     N
C       0.4033  0.06331  0.12236     C
C       0.4033  0.43669  0.62236     C
C       0.4033  0.56331  0.87764     C
C       0.4033  0.93669  0.37764     C
C       0.4271    0.054   0.0745     C
C       0.4271    0.446   0.5745     C
C       0.4271    0.554   0.9255     C
C       0.4271    0.946   0.4255     C
C       0.4312   0.1637  0.70965     C
C       0.4312   0.3363  0.20965     C
C       0.4312   0.6637  0.29035     C
C       0.4312   0.8363  0.79035     C
H       0.4335   0.1322   0.6271     H
H       0.4335   0.3678   0.1271     H
H       0.4335   0.6322   0.3729     H
H       0.4335   0.8678   0.8729     H
O       0.4508  0.16791  0.75011     O
O       0.4508  0.33209  0.25011     O
O       0.4508  0.66791  0.24989     O
O       0.4508  0.83209  0.74989     O
H       0.4562     0.13   0.3286     H
H       0.4562     0.37   0.8286     H
H       0.4562     0.63   0.6714     H
H       0.4562     0.87   0.1714     H
C       0.4607   0.1118   0.3925     C
C       0.4607   0.3882   0.8925     C
C       0.4607   0.6118   0.6075     C
C       0.4607   0.8882   0.1075     C
O       0.4746  0.08778  0.55369     O
O       0.4746  0.41222  0.05369     O
O       0.4746  0.58778  0.44631     O
O       0.4746  0.91222  0.94631     O
C       0.4755  0.11473  0.18793     C
C       0.4755  0.38527  0.68793     C
C       0.4755  0.61473  0.81207     C
C       0.4755  0.88527  0.31207     C
Ag      0.4764  0.05784  0.48393    Ag
Ag      0.4764  0.44216  0.98393    Ag
Ag      0.4764  0.55784  0.51607    Ag
Ag      0.4764  0.94216  0.01607    Ag
N       0.4773   0.1259   0.9313     N
N       0.4773   0.3741   0.4313     N
N       0.4773   0.6259   0.0687     N
N       0.4773   0.8741   0.5687     N
C       0.4929  0.10719  0.14341     C
C       0.4929  0.39281  0.64341     C
C       0.4929  0.60719  0.85659     C
C       0.4929  0.89281  0.35659     C
C       0.4967  0.14176  0.85575     C
C       0.4967  0.35824  0.35575     C
C       0.4967  0.64176  0.14425     C
C       0.4967  0.85824  0.64425     C
C       0.5033  0.14176  0.35575     C
C       0.5033  0.35824  0.85575     C
C       0.5033  0.64176  0.64425     C
C       0.5033  0.85824  0.14425     C
C       0.5071  0.10719  0.64341     C
C       0.5071  0.39281  0.14341     C
C       0.5071  0.60719  0.35659     C
C       0.5071  0.89281  0.85659     C
N       0.5227   0.1259   0.4313     N
N       0.5227   0.3741   0.9313     N
N       0.5227   0.6259   0.5687     N
N       0.5227   0.8741   0.0687     N
Ag      0.5236  0.05784  0.98393    Ag
Ag      0.5236  0.44216  0.48393    Ag
Ag      0.5236  0.55784  0.01607    Ag
Ag      0.5236  0.94216  0.51607    Ag
C       0.5245  0.11473  0.68793     C
C       0.5245  0.38527  0.18793     C
C       0.5245  0.61473  0.31207     C
C       0.5245  0.88527  0.81207     C
O       0.5254  0.08778  0.05369     O
O       0.5254  0.41222  0.55369     O
O       0.5254  0.58778  0.94631     O
O       0.5254  0.91222  0.44631     O
C       0.5393   0.1118   0.8925     C
C       0.5393   0.3882   0.3925     C
C       0.5393   0.6118   0.1075     C
C       0.5393   0.8882   0.6075     C
H       0.5438     0.13   0.8286     H
H       0.5438     0.37   0.3286     H
H       0.5438     0.63   0.1714     H
H       0.5438     0.87   0.6714     H
O       0.5492  0.16791  0.25011     O
O       0.5492  0.33209  0.75011     O
O       0.5492  0.66791  0.74989     O
O       0.5492  0.83209  0.24989     O
H       0.5665   0.1322   0.1271     H
H       0.5665   0.3678   0.6271     H
H       0.5665   0.6322   0.8729     H
H       0.5665   0.8678   0.3729     H
C       0.5688   0.1637  0.20965     C
C       0.5688   0.3363  0.70965     C
C       0.5688   0.6637  0.79035     C
C       0.5688   0.8363  0.29035     C
C       0.5729    0.054   0.5745     C
C       0.5729    0.446   0.0745     C
C       0.5729    0.554   0.4255     C
C       0.5729    0.946   0.9255     C
C       0.5967  0.06331  0.62236     C
C       0.5967  0.43669  0.12236     C
C       0.5967  0.56331  0.37764     C
C       0.5967  0.93669  0.87764     C
N         0.61  0.18715  0.35761     N
N         0.61  0.31285  0.85761     N
N         0.61  0.68715  0.64239     N
N         0.61  0.81285  0.14239     N
H        0.616     0.08   0.8899     H
H        0.616     0.42   0.3899     H
H        0.616     0.58   0.1101     H
H        0.616     0.92   0.6101     H
C       0.6281   0.1716  0.43294     C
C       0.6281   0.3284  0.93294     C
C       0.6281   0.6716  0.56706     C
C       0.6281   0.8284  0.06706     C
C       0.6317   0.0778  0.71155     C
C       0.6317   0.4222  0.21155     C
C       0.6317   0.5778  0.28845     C
C       0.6317   0.9222  0.78845     C
H       0.6431   0.0822    0.742     H
H       0.6431   0.4178    0.242     H
H       0.6431   0.5822    0.258     H
H       0.6431   0.9178    0.758     H
O       0.6517  0.01231  0.55807     O
O       0.6517  0.48769  0.05807     O
O       0.6517  0.51231  0.44193     O
O       0.6517  0.98769  0.94193     O
O       0.6591  0.19581  0.18607     O
O       0.6591  0.30419  0.68607     O
O       0.6591  0.69581  0.81393     O
O       0.6591  0.80419  0.31393     O
C       0.6714   0.2019  0.39676     C
C       0.6714   0.2981  0.89676     C
C       0.6714   0.7019  0.60324     C
C       0.6714   0.7981  0.10324     C
H       0.6744   0.1834   0.4602     H
H       0.6744   0.3166   0.9602     H
H       0.6744   0.6834   0.5398     H
H       0.6744   0.8166   0.0398     H
Ag     0.69517  0.22994   0.2906    Ag
Ag     0.69517  0.27006   0.7906    Ag
Ag     0.69517  0.72994   0.7094    Ag
Ag     0.69517  0.77006   0.2094    Ag
H       0.7036   0.0092   0.2929     H
H       0.7036   0.4908   0.7929     H
H       0.7036   0.5092   0.7071     H
H       0.7036   0.9908   0.2071     H
C       0.7057   0.0275  0.64688     C
C       0.7057   0.4725  0.14688     C
C       0.7057   0.5275  0.35312     C
C       0.7057   0.9725  0.85312     C
C       0.7227   0.0342  0.69083     C
C       0.7227   0.4658  0.19083     C
C       0.7227   0.5342  0.30917     C
C       0.7227   0.9658  0.80917     C
H       0.7309   0.0021   0.1329     H
H       0.7309   0.4979   0.6329     H
H       0.7309   0.5021   0.8671     H
H       0.7309   0.9979   0.3671     H
H       0.7464   0.2341   0.3995     H
H       0.7464   0.2659   0.8995     H
H       0.7464   0.7341   0.6005     H
H       0.7464   0.7659   0.1005     H
H       0.7536   0.2341   0.6005     H
H       0.7536   0.2659   0.1005     H
H       0.7536   0.7341   0.3995     H
H       0.7536   0.7659   0.8995     H
H       0.7691   0.0021   0.8671     H
H       0.7691   0.4979   0.3671     H
H       0.7691   0.5021   0.1329     H
H       0.7691   0.9979   0.6329     H
C       0.7773   0.0342  0.30917     C
C       0.7773   0.4658  0.80917     C
C       0.7773   0.5342  0.69083     C
C       0.7773   0.9658  0.19083     C
C       0.7943   0.0275  0.35312     C
C       0.7943   0.4725  0.85312     C
C       0.7943   0.5275  0.64688     C
C       0.7943   0.9725  0.14688     C
H       0.7964   0.0092   0.7071     H
H       0.7964   0.4908   0.2071     H
H       0.7964   0.5092   0.2929     H
H       0.7964   0.9908   0.7929     H
Ag     0.80483  0.22994   0.7094    Ag
Ag     0.80483  0.27006   0.2094    Ag
Ag     0.80483  0.72994   0.2906    Ag
Ag     0.80483  0.77006   0.7906    Ag
H       0.8256   0.1834   0.5398     H
H       0.8256   0.3166   0.0398     H
H       0.8256   0.6834   0.4602     H
H       0.8256   0.8166   0.9602     H
C       0.8286   0.2019  0.60324     C
C       0.8286   0.2981  0.10324     C
C       0.8286   0.7019  0.39676     C
C       0.8286   0.7981  0.89676     C
O       0.8409  0.19581  0.81393     O
O       0.8409  0.30419  0.31393     O
O       0.8409  0.69581  0.18607     O
O       0.8409  0.80419  0.68607     O
O       0.8483  0.01231  0.44193     O
O       0.8483  0.48769  0.94193     O
O       0.8483  0.51231  0.55807     O
O       0.8483  0.98769  0.05807     O
H       0.8569   0.0822    0.258     H
H       0.8569   0.4178    0.758     H
H       0.8569   0.5822    0.742     H
H       0.8569   0.9178    0.242     H
C       0.8683   0.0778  0.28845     C
C       0.8683   0.4222  0.78845     C
C       0.8683   0.5778  0.71155     C
C       0.8683   0.9222  0.21155     C
C       0.8719   0.1716  0.56706     C
C       0.8719   0.3284  0.06706     C
C       0.8719   0.6716  0.43294     C
C       0.8719   0.8284  0.93294     C
H        0.884     0.08   0.1101     H
H        0.884     0.42   0.6101     H
H        0.884     0.58   0.8899     H
H        0.884     0.92   0.3899     H
N         0.89  0.18715  0.64239     N
N         0.89  0.31285  0.14239     N
N         0.89  0.68715  0.35761     N
N         0.89  0.81285  0.85761     N
C       0.9033  0.06331  0.37764     C
C       0.9033  0.43669  0.87764     C
C       0.9033  0.56331  0.62236     C
C       0.9033  0.93669  0.12236     C
C       0.9271    0.054   0.4255     C
C       0.9271    0.446   0.9255     C
C       0.9271    0.554   0.5745     C
C       0.9271    0.946   0.0745     C
C       0.9312   0.1637  0.79035     C
C       0.9312   0.3363  0.29035     C
C       0.9312   0.6637  0.20965     C
C       0.9312   0.8363  0.70965     C
H       0.9335   0.1322   0.8729     H
H       0.9335   0.3678   0.3729     H
H       0.9335   0.6322   0.1271     H
H       0.9335   0.8678   0.6271     H
O       0.9508  0.16791  0.74989     O
O       0.9508  0.33209  0.24989     O
O       0.9508  0.66791  0.25011     O
O       0.9508  0.83209  0.75011     O
H       0.9562     0.13   0.1714     H
H       0.9562     0.37   0.6714     H
H       0.9562     0.63   0.8286     H
H       0.9562     0.87   0.3286     H
C       0.9607   0.1118   0.1075     C
C       0.9607   0.3882   0.6075     C
C       0.9607   0.6118   0.8925     C
C       0.9607   0.8882   0.3925     C
O       0.9746  0.08778  0.94631     O
O       0.9746  0.41222  0.44631     O
O       0.9746  0.58778  0.05369     O
O       0.9746  0.91222  0.55369     O
C       0.9755  0.11473  0.31207     C
C       0.9755  0.38527  0.81207     C
C       0.9755  0.61473  0.68793     C
C       0.9755  0.88527  0.18793     C
Ag      0.9764  0.05784  0.01607    Ag
Ag      0.9764  0.44216  0.51607    Ag
Ag      0.9764  0.55784  0.98393    Ag
Ag      0.9764  0.94216  0.48393    Ag
N       0.9773   0.1259   0.5687     N
N       0.9773   0.3741   0.0687     N
N       0.9773   0.6259   0.4313     N
N       0.9773   0.8741   0.9313     N
C       0.9929  0.10719  0.35659     C
C       0.9929  0.39281  0.85659     C
C       0.9929  0.60719  0.64341     C
C       0.9929  0.89281  0.14341     C
C       0.9967  0.14176  0.64425     C
C       0.9967  0.35824  0.14425     C
C       0.9967  0.64176  0.35575     C
C       0.9967  0.85824  0.85575     C
