data_I
_chemical_name_common  '/home/zhangsd/repos/MofS-CGCNN/ML/data/TSD/clean_cifs/TAKGUK_clean'
_cell_length_a  9.75800
_cell_length_b 16.57500
_cell_length_c 21.45200
_cell_angle_alpha 104.13000
_cell_angle_beta  100.68000
_cell_angle_gamma 96.53000
_space_group_name_H-M_alt      'P 1'


loop_
_space_group_symop_operation_xyz
  'x, y, z' 

loop_
_atom_site_label
_atom_site_fract_x
_atom_site_fract_y
_atom_site_fract_z
_atom_site_type_symbol
Cu     0.01258  0.94228  0.53908    Cu
I      0.01507  0.22152  0.53043     I
H       0.0308   0.3202   0.3279     H
Cu     0.03695  0.18315  0.40287    Cu
C       0.0501   0.4422   0.7243     C
C       0.0531   0.4682   0.7902     C
O       0.0541   0.5108   0.9249     O
C       0.0605   0.5274   0.1142     C
C       0.0641   0.6952   0.6725     C
C       0.0674   0.5538   0.1863     C
H       0.0691   0.6259   0.3634     H
C       0.0706   0.6053   0.3192     C
I      0.08712  0.97835  0.67145     I
N       0.0979   0.7499   0.6375     N
H       0.1179   0.2376    0.698     H
H       0.1298   0.4565   0.7088     H
H       0.1299   0.6283   0.7325     H
H       0.1345   0.5005   0.8194     H
H       0.1421   0.8801   0.2793     H
C       0.1596   0.6624   0.7073     C
O       0.1732   0.5493   0.0943     O
H       0.1793   0.3263   0.8029     H
Cu     0.17983  0.05489  0.37922    Cu
C       0.1908   0.5971   0.2308     C
C       0.1964   0.6232    0.298     C
C       0.2057   0.2399   0.7247     C
I      0.23627  0.00836  0.49975     I
C       0.2382   0.7677   0.6366     C
C       0.2399   0.8962   0.2913     C
H       0.2424    0.758   0.4031     H
C       0.2441   0.2943    0.787     C
Cu     0.24612  0.17305  0.49777    Cu
H       0.2665   0.8054   0.6139     H
H       0.2705   0.1496   0.6605     H
H       0.2716   0.6089   0.2154     H
H       0.2759   0.7914   0.2364     H
Ce      0.2772  0.51746  0.99827    Ce
H       0.2918   0.4297   0.2618     H
N       0.2944   0.9739   0.3339     N
C       0.2982   0.1883   0.7018     C
I      0.29906  0.21231   0.3878     I
C       0.3009   0.6777   0.7069     C
H       0.3105   0.6348    0.818     H
H       0.3115   0.4412   0.1547     H
C       0.3194   0.8427   0.2663     C
O       0.3243   0.4052    0.912     O
C       0.3279   0.7417   0.3965     C
C       0.3289   0.6721   0.3444     C
H       0.3342   0.3186   0.6193     H
C       0.3382   0.7303   0.6689     C
O        0.355   0.5871   0.9188     O
C       0.3692   0.4141   0.2451     C
H       0.3759   0.0387   0.6556     H
C       0.3772   0.3025   0.8265     C
C       0.3831   0.4242   0.1811     C
C       0.3918   0.6239   0.8029     C
C       0.4103   0.6393   0.7434     C
C       0.4176   0.3638    0.893     C
C       0.4214   0.3034   0.6146     C
N       0.4218   0.2369   0.5651     N
O       0.4312   0.4501   0.0628     O
H       0.4317   0.7405   0.6653     H
C       0.4333   0.1944   0.7406     C
C       0.4336   0.9936   0.3503     C
H       0.4375    0.739   0.1711     H
H       0.4494   0.8347   0.4703     H
C       0.4528   0.7862   0.4383     C
O       0.4562   0.6297   0.0736     O
H       0.4587   0.3738   0.3215     H
C       0.4599   0.6483   0.3402     C
H       0.4675   0.6011   0.3079     H
C       0.4683   0.8614   0.2837     C
C       0.4695   0.3818   0.2812     C
H       0.4716   0.0468   0.3786     H
C       0.4718   0.2543   0.8032     C
C       0.4724    0.575   0.9032     C
C        0.473   0.0564   0.6703     C
C       0.4953   0.5921   0.8396     C
C       0.5047   0.4079   0.1604     C
C        0.527   0.9436   0.3297     C
C       0.5276    0.425   0.0968     C
C       0.5282   0.7457   0.1968     C
H       0.5284   0.9532   0.6214     H
C       0.5305   0.6182   0.7188     C
C       0.5317   0.1386   0.7163     C
H       0.5325   0.3989   0.6921     H
C       0.5401   0.3517   0.6598     C
H       0.5413   0.6262   0.6785     H
O       0.5438   0.3703   0.9264     O
C       0.5472   0.2138   0.5617     C
H       0.5506   0.1653   0.5297     H
H       0.5625    0.261   0.8289     H
C       0.5664   0.0064   0.6497     C
C       0.5667   0.8056   0.2594     C
H       0.5683   0.2595   0.3347     H
O       0.5688   0.5499   0.9372     O
N       0.5782   0.7631   0.4349     N
C       0.5786   0.6966   0.3854     C
C       0.5824   0.6362    0.107     C
C       0.5897   0.3607   0.2566     C
C       0.6082   0.3761   0.1971     C
C       0.6169   0.5758   0.8189     C
C       0.6228   0.6975   0.1735     C
H       0.6241   0.9613   0.3444     H
C       0.6308   0.5859   0.7549     C
O        0.645   0.4129   0.0812     O
C       0.6618   0.2697   0.3311     C
H       0.6658   0.6814   0.3807     H
C       0.6711   0.3279   0.6556     C
C       0.6721   0.2583   0.6035     C
O       0.6757   0.5948    0.088     O
C       0.6806   0.1573   0.7337     C
H       0.6885   0.5588   0.8453     H
H       0.6895   0.3652    0.182     H
C       0.6991   0.3223   0.2931     C
I      0.70094  0.78769   0.6122     I
C       0.7018   0.8117   0.2982     C
N       0.7056   0.0261   0.6661     N
H       0.7082   0.5703   0.7382     H
Ce      0.7228  0.48254  0.00173    Ce
H       0.7241   0.2086   0.7636     H
H       0.7284   0.3911   0.7846     H
H       0.7295   0.8504   0.3395     H
H       0.7335   0.1946   0.3861     H
Cu     0.75388  0.82695  0.50223    Cu
C       0.7559   0.7057    0.213     C
H       0.7576    0.242   0.5969     H
C       0.7601   0.1038   0.7087     C
C       0.7618   0.2323   0.3634     C
I      0.76373  0.99164  0.50025     I
C       0.7943   0.7601   0.2753     C
C       0.8036   0.3768    0.702     C
C       0.8092   0.4029   0.7692     C
Cu     0.82017  0.94511  0.62078    Cu
H       0.8207   0.6737   0.1971     H
O       0.8268   0.4507   0.9057     O
C       0.8404   0.3376   0.2927     C
H       0.8579   0.1199   0.7207     H
H       0.8655   0.4995   0.1806     H
H       0.8701   0.3717   0.2675     H
H       0.8702   0.5435   0.2912     H
H       0.8821   0.7624    0.302     H
N       0.9021   0.2501   0.3625     N
I      0.91288  0.02165  0.32855     I
C       0.9294   0.3947   0.6808     C
H       0.9309   0.3741   0.6366     H
C       0.9326   0.4462   0.8137     C
C       0.9359   0.3048   0.3275     C
C       0.9395   0.4726   0.8858     C
O       0.9459   0.4892   0.0751     O
C       0.9469   0.5318   0.2098     C
C       0.9499   0.5578   0.2757     C
Cu     0.96305  0.81685  0.59713    Cu
H       0.9692   0.6798   0.6721     H
I      0.98493  0.77848  0.46957     I
Cu     0.98742  0.05772  0.46092    Cu
