data_I
_chemical_name_common  '/home/zhangsd/repos/MofS-CGCNN/ML/data/TSD/clean_cifs/TAKTOR_clean'
_cell_length_a 14.93200
_cell_length_b 14.93200
_cell_length_c 11.95600
_cell_angle_alpha 90.00000
_cell_angle_beta  90.00000
_cell_angle_gamma 90.00000
_space_group_name_H-M_alt      'P 1'


loop_
_space_group_symop_operation_xyz
  'x, y, z' 

loop_
_atom_site_label
_atom_site_fract_x
_atom_site_fract_y
_atom_site_fract_z
_atom_site_type_symbol
C          0.0      0.0   0.0628     C
C          0.0      0.0   0.2967     C
H          0.0      0.0   0.3745     H
H          0.0      0.0   0.6255     H
C          0.0      0.0   0.7033     C
C          0.0      0.0   0.9372     C
C          0.0      0.5   0.1872     C
C          0.0      0.5   0.3128     C
C          0.0      0.5   0.5467     C
H          0.0      0.5   0.6245     H
H          0.0      0.5   0.8755     H
C          0.0      0.5   0.9533     C
C       0.0394   0.0698   0.8792     C
C       0.0394   0.4302   0.3708     C
C       0.0455   0.0686   0.7593     C
C       0.0455   0.4314   0.4907     C
H       0.0625   0.1184   0.9185     H
H       0.0625   0.3816   0.3315     H
C       0.0686   0.0455   0.2407     C
C       0.0686   0.4545   0.0093     C
C       0.0698   0.0394   0.1208     C
C       0.0698   0.4606   0.1292     C
C        0.092   0.1403   0.7022     C
C        0.092   0.3597   0.5478     C
O      0.10014  0.21348  0.75388     O
O      0.10014  0.28652  0.49612     O
H       0.1184   0.0625   0.0815     H
H       0.1184   0.4375   0.1685     H
O       0.1209   0.1217   0.3934     O
O       0.1209   0.3783   0.8566     O
O       0.1217   0.1209   0.6066     O
O       0.1217   0.3791   0.6434     O
C       0.1403    0.092   0.2978     C
C       0.1403    0.408   0.9522     C
H       0.1916     0.25    0.125     H
Fe     0.19272  0.19272      0.5    Fe
Fe     0.19272  0.30728     0.75    Fe
O      0.21348  0.10014  0.24612     O
O      0.21348  0.39986  0.00388     O
O       0.2468     0.25    0.125     O
H         0.25   0.1916    0.875     H
O         0.25   0.2468    0.875     O
O         0.25   0.2532    0.375     O
H         0.25   0.3084    0.375     H
O       0.2532     0.25    0.625     O
O      0.28652  0.10014  0.50388     O
O      0.28652  0.39986  0.74612     O
Fe     0.30728  0.19272     0.25    Fe
Fe     0.30728  0.30728      0.0    Fe
H       0.3084     0.25    0.625     H
C       0.3597    0.092   0.4522     C
C       0.3597    0.408   0.7978     C
O       0.3783   0.1209   0.1434     O
O       0.3783   0.3791   0.1066     O
O       0.3791   0.1217   0.3566     O
O       0.3791   0.3783   0.8934     O
H       0.3816   0.0625   0.6685     H
H       0.3816   0.4375   0.5815     H
O      0.39986  0.21348  0.99612     O
O      0.39986  0.28652  0.25388     O
C        0.408   0.1403   0.0478     C
C        0.408   0.3597   0.2022     C
C       0.4302   0.0394   0.6292     C
C       0.4302   0.4606   0.6208     C
C       0.4314   0.0455   0.5093     C
C       0.4314   0.4545   0.7407     C
H       0.4375   0.1184   0.8315     H
H       0.4375   0.3816   0.4185     H
C       0.4545   0.0686   0.9907     C
C       0.4545   0.4314   0.2593     C
C       0.4606   0.0698   0.8708     C
C       0.4606   0.4302   0.3792     C
C          0.5      0.0   0.0467     C
H          0.5      0.0   0.1245     H
H          0.5      0.0   0.3755     H
C          0.5      0.0   0.4533     C
C          0.5      0.0   0.6872     C
C          0.5      0.0   0.8128     C
H          0.5      0.5   0.1255     H
C          0.5      0.5   0.2033     C
C          0.5      0.5   0.4372     C
C          0.5      0.5   0.5628     C
C          0.5      0.5   0.7967     C
H          0.5      0.5   0.8745     H
C       0.5394   0.5698   0.3792     C
C       0.5394   0.9302   0.8708     C
C       0.5455   0.5686   0.2593     C
C       0.5455   0.9314   0.9907     C
H       0.5625   0.6184   0.4185     H
H       0.5625   0.8816   0.8315     H
C       0.5686   0.5455   0.7407     C
C       0.5686   0.9545   0.5093     C
C       0.5698   0.5394   0.6208     C
C       0.5698   0.9606   0.6292     C
C        0.592   0.6403   0.2022     C
C        0.592   0.8597   0.0478     C
O      0.60014  0.71348  0.25388     O
O      0.60014  0.78652  0.99612     O
H       0.6184   0.5625   0.5815     H
H       0.6184   0.9375   0.6685     H
O       0.6209   0.6217   0.8934     O
O       0.6209   0.8783   0.3566     O
O       0.6217   0.6209   0.1066     O
O       0.6217   0.8791   0.1434     O
C       0.6403    0.592   0.7978     C
C       0.6403    0.908   0.4522     C
H       0.6916     0.75    0.625     H
Fe     0.69272  0.69272      0.0    Fe
Fe     0.69272  0.80728     0.25    Fe
O      0.71348  0.60014  0.74612     O
O      0.71348  0.89986  0.50388     O
O       0.7468     0.75    0.625     O
H         0.75   0.6916    0.375     H
O         0.75   0.7468    0.375     O
O         0.75   0.7532    0.875     O
H         0.75   0.8084    0.875     H
O       0.7532     0.75    0.125     O
O      0.78652  0.60014  0.00388     O
O      0.78652  0.89986  0.24612     O
Fe     0.80728  0.69272     0.75    Fe
Fe     0.80728  0.80728      0.5    Fe
H       0.8084     0.75    0.125     H
C       0.8597    0.592   0.9522     C
C       0.8597    0.908   0.2978     C
O       0.8783   0.6209   0.6434     O
O       0.8783   0.8791   0.6066     O
O       0.8791   0.6217   0.8566     O
O       0.8791   0.8783   0.3934     O
H       0.8816   0.5625   0.1685     H
H       0.8816   0.9375   0.0815     H
O      0.89986  0.71348  0.49612     O
O      0.89986  0.78652  0.75388     O
C        0.908   0.6403   0.5478     C
C        0.908   0.8597   0.7022     C
C       0.9302   0.5394   0.1292     C
C       0.9302   0.9606   0.1208     C
C       0.9314   0.5455   0.0093     C
C       0.9314   0.9545   0.2407     C
H       0.9375   0.6184   0.3315     H
H       0.9375   0.8816   0.9185     H
C       0.9545   0.5686   0.4907     C
C       0.9545   0.9314   0.7593     C
C       0.9606   0.5698   0.3708     C
C       0.9606   0.9302   0.8792     C
