data_I
_chemical_name_common  '/home/zhangsd/repos/MofS-CGCNN/ML/data/TSD/clean_cifs/TAKTIL_clean'
_cell_length_a 15.05350
_cell_length_b 15.05350
_cell_length_c 11.87370
_cell_angle_alpha 90.00000
_cell_angle_beta  90.00000
_cell_angle_gamma 90.00000
_space_group_name_H-M_alt      'P 1'


loop_
_space_group_symop_operation_xyz
  'x, y, z' 

loop_
_atom_site_label
_atom_site_fract_x
_atom_site_fract_y
_atom_site_fract_z
_atom_site_type_symbol
H          0.0      0.0   0.1198     H
C          0.0      0.0   0.1998     C
C          0.0      0.0   0.4364     C
C          0.0      0.0   0.5636     C
C          0.0      0.0   0.8002     C
H          0.0      0.0   0.8802     H
C          0.0      0.5   0.0502     C
H          0.0      0.5   0.1302     H
H          0.0      0.5   0.3698     H
C          0.0      0.5   0.4498     C
C          0.0      0.5   0.6864     C
C          0.0      0.5   0.8136     C
C        0.038   0.0699   0.3791     C
C        0.038   0.4301   0.8709     C
C       0.0411   0.0697   0.2603     C
C       0.0411   0.4303   0.9897     C
H       0.0623   0.1186   0.4197     H
H       0.0623   0.3814   0.8303     H
C       0.0697   0.0411   0.7397     C
C       0.0697   0.4589   0.5103     C
C       0.0699    0.038   0.6209     C
C       0.0699    0.462   0.6291     C
C       0.0923   0.1381   0.2016     C
C       0.0923   0.3619   0.0484     C
O       0.0996   0.2142   0.2512     O
O       0.0996   0.2858   0.9988     O
H       0.1186   0.0623   0.5803     H
H       0.1186   0.4377   0.6697     H
O       0.1193   0.1251   0.8925     O
O       0.1193   0.3749   0.3575     O
O       0.1251   0.1193   0.1075     O
O       0.1251   0.3807   0.1425     O
C       0.1381   0.0923   0.7984     C
C       0.1381   0.4077   0.4516     C
H       0.1921     0.25    0.625     H
Ga     0.19473  0.19473      0.0    Ga
Ga     0.19473  0.30527     0.25    Ga
O       0.2142   0.0996   0.7488     O
O       0.2142   0.4004   0.5012     O
O       0.2477     0.25    0.625     O
H         0.25   0.1921    0.375     H
O         0.25   0.2477    0.375     O
O         0.25   0.2523    0.875     O
H         0.25   0.3079    0.875     H
O       0.2523     0.25    0.125     O
O       0.2858   0.0996   0.0012     O
O       0.2858   0.4004   0.2488     O
Ga     0.30527  0.19473     0.75    Ga
Ga     0.30527  0.30527      0.5    Ga
H       0.3079     0.25    0.125     H
C       0.3619   0.0923   0.9516     C
C       0.3619   0.4077   0.2984     C
O       0.3749   0.1193   0.6425     O
O       0.3749   0.3807   0.6075     O
O       0.3807   0.1251   0.8575     O
O       0.3807   0.3749   0.3925     O
H       0.3814   0.0623   0.1697     H
H       0.3814   0.4377   0.0803     H
O       0.4004   0.2142   0.4988     O
O       0.4004   0.2858   0.7512     O
C       0.4077   0.1381   0.5484     C
C       0.4077   0.3619   0.7016     C
C       0.4301    0.038   0.1291     C
C       0.4301    0.462   0.1209     C
C       0.4303   0.0411   0.0103     C
C       0.4303   0.4589   0.2397     C
H       0.4377   0.1186   0.3303     H
H       0.4377   0.3814   0.9197     H
C       0.4589   0.0697   0.4897     C
C       0.4589   0.4303   0.7603     C
C        0.462   0.0699   0.3709     C
C        0.462   0.4301   0.8791     C
C          0.5      0.0   0.1864     C
C          0.5      0.0   0.3136     C
C          0.5      0.0   0.5502     C
H          0.5      0.0   0.6302     H
H          0.5      0.0   0.8698     H
C          0.5      0.0   0.9498     C
C          0.5      0.5   0.0636     C
C          0.5      0.5   0.3002     C
H          0.5      0.5   0.3802     H
H          0.5      0.5   0.6198     H
C          0.5      0.5   0.6998     C
C          0.5      0.5   0.9364     C
C        0.538   0.5699   0.8791     C
C        0.538   0.9301   0.3709     C
C       0.5411   0.5697   0.7603     C
C       0.5411   0.9303   0.4897     C
H       0.5623   0.6186   0.9197     H
H       0.5623   0.8814   0.3303     H
C       0.5697   0.5411   0.2397     C
C       0.5697   0.9589   0.0103     C
C       0.5699    0.538   0.1209     C
C       0.5699    0.962   0.1291     C
C       0.5923   0.6381   0.7016     C
C       0.5923   0.8619   0.5484     C
O       0.5996   0.7142   0.7512     O
O       0.5996   0.7858   0.4988     O
H       0.6186   0.5623   0.0803     H
H       0.6186   0.9377   0.1697     H
O       0.6193   0.6251   0.3925     O
O       0.6193   0.8749   0.8575     O
O       0.6251   0.6193   0.6075     O
O       0.6251   0.8807   0.6425     O
C       0.6381   0.5923   0.2984     C
C       0.6381   0.9077   0.9516     C
H       0.6921     0.75    0.125     H
Ga     0.69473  0.69473      0.5    Ga
Ga     0.69473  0.80527     0.75    Ga
O       0.7142   0.5996   0.2488     O
O       0.7142   0.9004   0.0012     O
O       0.7477     0.75    0.125     O
H         0.75   0.6921    0.875     H
O         0.75   0.7477    0.875     O
O         0.75   0.7523    0.375     O
H         0.75   0.8079    0.375     H
O       0.7523     0.75    0.625     O
O       0.7858   0.5996   0.5012     O
O       0.7858   0.9004   0.7488     O
Ga     0.80527  0.69473     0.25    Ga
Ga     0.80527  0.80527      0.0    Ga
H       0.8079     0.75    0.625     H
C       0.8619   0.5923   0.4516     C
C       0.8619   0.9077   0.7984     C
O       0.8749   0.6193   0.1425     O
O       0.8749   0.8807   0.1075     O
O       0.8807   0.6251   0.3575     O
O       0.8807   0.8749   0.8925     O
H       0.8814   0.5623   0.6697     H
H       0.8814   0.9377   0.5803     H
O       0.9004   0.7142   0.9988     O
O       0.9004   0.7858   0.2512     O
C       0.9077   0.6381   0.0484     C
C       0.9077   0.8619   0.2016     C
C       0.9301    0.538   0.6291     C
C       0.9301    0.962   0.6209     C
C       0.9303   0.5411   0.5103     C
C       0.9303   0.9589   0.7397     C
H       0.9377   0.6186   0.8303     H
H       0.9377   0.8814   0.4197     H
C       0.9589   0.5697   0.9897     C
C       0.9589   0.9303   0.2603     C
C        0.962   0.5699   0.8709     C
C        0.962   0.9301   0.3791     C
