data_I
_chemical_name_common  '/home/zhangsd/repos/MofS-CGCNN/ML/data/TSD/clean_cifs/TAKYEL_clean'
_cell_length_a 15.29700
_cell_length_b 15.29700
_cell_length_c 15.37000
_cell_angle_alpha 90.00000
_cell_angle_beta  90.00000
_cell_angle_gamma 120.00000
_space_group_name_H-M_alt      'P 1'


loop_
_space_group_symop_operation_xyz
  'x, y, z' 

loop_
_atom_site_label
_atom_site_fract_x
_atom_site_fract_y
_atom_site_fract_z
_atom_site_type_symbol
Co         0.0      0.5      0.0    Co
Co         0.0      0.5      0.5    Co
H       0.0529   0.2853   0.3451     H
H       0.0529   0.2853   0.6549     H
H       0.0529   0.7676   0.1549     H
H       0.0529   0.7676   0.8451     H
O      0.06013  0.44659   0.4079     O
O      0.06013  0.44659   0.5921     O
O      0.06013  0.61354   0.0921     O
O      0.06013  0.61354   0.9079     O
H      0.10015   0.2003     0.25     H
H      0.10015   0.2003     0.75     H
H      0.10015  0.89985     0.25     H
H      0.10015  0.89985     0.75     H
C      0.10624  0.32008   0.3066     C
C      0.10624  0.32008   0.6934     C
C      0.10624  0.78616   0.1934     C
C      0.10624  0.78616   0.8066     C
C      0.13525   0.2705     0.25     C
C      0.13525   0.2705     0.75     C
C      0.13525  0.86475     0.25     C
C      0.13525  0.86475     0.75     C
C      0.13695    0.491   0.3609     C
C      0.13695    0.491   0.6391     C
C      0.13695  0.64595   0.1391     C
C      0.13695  0.64595   0.8609     C
C      0.16033  0.42508   0.3038     C
C      0.16033  0.42508   0.6962     C
C      0.16033  0.73525   0.1962     C
C      0.16033  0.73525   0.8038     C
O      0.19755  0.58613   0.3565     O
O      0.19755  0.58613   0.6435     O
O      0.19755  0.61142   0.1435     O
O      0.19755  0.61142   0.8565     O
H       0.2003  0.10015     0.25     H
H       0.2003  0.10015     0.75     H
C      0.21384  0.32008   0.1934     C
C      0.21384  0.32008   0.8066     C
C      0.21384  0.89376   0.3066     C
C      0.21384  0.89376   0.6934     C
H       0.2324   0.2853   0.1549     H
H       0.2324   0.2853   0.8451     H
H       0.2324   0.9471   0.3451     H
H       0.2324   0.9471   0.6549     H
N      0.23885   0.4777     0.25     N
N      0.23885   0.4777     0.75     N
N      0.23885  0.76115     0.25     N
N      0.23885  0.76115     0.75     N
C      0.26475  0.42508   0.1962     C
C      0.26475  0.42508   0.8038     C
C      0.26475  0.83967   0.3038     C
C      0.26475  0.83967   0.6962     C
C       0.2705  0.13525     0.25     C
C       0.2705  0.13525     0.75     C
H       0.2853   0.0529   0.1549     H
H       0.2853   0.0529   0.8451     H
H       0.2853   0.2324   0.3451     H
H       0.2853   0.2324   0.6549     H
C      0.32008  0.10624   0.1934     C
C      0.32008  0.10624   0.8066     C
C      0.32008  0.21384   0.3066     C
C      0.32008  0.21384   0.6934     C
Eu     0.33333  0.66666     0.25    Eu
Eu     0.33333  0.66666     0.75    Eu
C      0.35405    0.491   0.1391     C
C      0.35405    0.491   0.8609     C
C      0.35405  0.86305   0.3609     C
C      0.35405  0.86305   0.6391     C
O      0.38646  0.44659   0.0921     O
O      0.38646  0.44659   0.9079     O
O      0.38646  0.93987   0.4079     O
O      0.38646  0.93987   0.5921     O
O      0.38858  0.58613   0.1435     O
O      0.38858  0.58613   0.8565     O
O      0.38858  0.80245   0.3565     O
O      0.38858  0.80245   0.6435     O
O      0.41387  0.61142   0.3565     O
O      0.41387  0.61142   0.6435     O
O      0.41387  0.80245   0.1435     O
O      0.41387  0.80245   0.8565     O
C      0.42508  0.16033   0.1962     C
C      0.42508  0.16033   0.8038     C
C      0.42508  0.26475   0.3038     C
C      0.42508  0.26475   0.6962     C
O      0.44659  0.06013   0.0921     O
O      0.44659  0.06013   0.9079     O
O      0.44659  0.38646   0.4079     O
O      0.44659  0.38646   0.5921     O
N       0.4777  0.23885     0.25     N
N       0.4777  0.23885     0.75     N
C        0.491  0.13695   0.1391     C
C        0.491  0.13695   0.8609     C
C        0.491  0.35405   0.3609     C
C        0.491  0.35405   0.6391     C
Co         0.5     -0.0      0.0    Co
Co         0.5     -0.0      0.5    Co
Co         0.5      0.5      0.0    Co
Co         0.5      0.5      0.5    Co
C        0.509  0.64595   0.3609     C
C        0.509  0.64595   0.6391     C
C        0.509  0.86305   0.1391     C
C        0.509  0.86305   0.8609     C
N       0.5223  0.76115     0.25     N
N       0.5223  0.76115     0.75     N
O      0.55341  0.61354   0.4079     O
O      0.55341  0.61354   0.5921     O
O      0.55341  0.93987   0.0921     O
O      0.55341  0.93987   0.9079     O
C      0.57492  0.73525   0.3038     C
C      0.57492  0.73525   0.6962     C
C      0.57492  0.83967   0.1962     C
C      0.57492  0.83967   0.8038     C
O      0.58613  0.19755   0.1435     O
O      0.58613  0.19755   0.8565     O
O      0.58613  0.38858   0.3565     O
O      0.58613  0.38858   0.6435     O
O      0.61142  0.19755   0.3565     O
O      0.61142  0.19755   0.6435     O
O      0.61142  0.41387   0.1435     O
O      0.61142  0.41387   0.8565     O
O      0.61354  0.06013   0.4079     O
O      0.61354  0.06013   0.5921     O
O      0.61354  0.55341   0.0921     O
O      0.61354  0.55341   0.9079     O
C      0.64595  0.13695   0.3609     C
C      0.64595  0.13695   0.6391     C
C      0.64595    0.509   0.1391     C
C      0.64595    0.509   0.8609     C
Eu     0.66667  0.33334     0.25    Eu
Eu     0.66667  0.33334     0.75    Eu
C      0.67992  0.78616   0.3066     C
C      0.67992  0.78616   0.6934     C
C      0.67992  0.89376   0.1934     C
C      0.67992  0.89376   0.8066     C
H       0.7147   0.7676   0.3451     H
H       0.7147   0.7676   0.6549     H
H       0.7147   0.9471   0.1549     H
H       0.7147   0.9471   0.8451     H
C       0.7295  0.86475     0.25     C
C       0.7295  0.86475     0.75     C
C      0.73525  0.16033   0.3038     C
C      0.73525  0.16033   0.6962     C
C      0.73525  0.57492   0.1962     C
C      0.73525  0.57492   0.8038     C
N      0.76115  0.23885     0.25     N
N      0.76115  0.23885     0.75     N
N      0.76115   0.5223     0.25     N
N      0.76115   0.5223     0.75     N
H       0.7676   0.0529   0.3451     H
H       0.7676   0.0529   0.6549     H
H       0.7676   0.7147   0.1549     H
H       0.7676   0.7147   0.8451     H
C      0.78616  0.10624   0.3066     C
C      0.78616  0.10624   0.6934     C
C      0.78616  0.67992   0.1934     C
C      0.78616  0.67992   0.8066     C
H       0.7997  0.89985     0.25     H
H       0.7997  0.89985     0.75     H
O      0.80245  0.38858   0.1435     O
O      0.80245  0.38858   0.8565     O
O      0.80245  0.41387   0.3565     O
O      0.80245  0.41387   0.6435     O
C      0.83967  0.26475   0.1962     C
C      0.83967  0.26475   0.8038     C
C      0.83967  0.57492   0.3038     C
C      0.83967  0.57492   0.6962     C
C      0.86305  0.35405   0.1391     C
C      0.86305  0.35405   0.8609     C
C      0.86305    0.509   0.3609     C
C      0.86305    0.509   0.6391     C
C      0.86475  0.13525     0.25     C
C      0.86475  0.13525     0.75     C
C      0.86475   0.7295     0.25     C
C      0.86475   0.7295     0.75     C
C      0.89376  0.21384   0.1934     C
C      0.89376  0.21384   0.8066     C
C      0.89376  0.67992   0.3066     C
C      0.89376  0.67992   0.6934     C
H      0.89985  0.10015     0.25     H
H      0.89985  0.10015     0.75     H
H      0.89985   0.7997     0.25     H
H      0.89985   0.7997     0.75     H
O      0.93987  0.38646   0.0921     O
O      0.93987  0.38646   0.9079     O
O      0.93987  0.55341   0.4079     O
O      0.93987  0.55341   0.5921     O
H       0.9471   0.2324   0.1549     H
H       0.9471   0.2324   0.8451     H
H       0.9471   0.7147   0.3451     H
H       0.9471   0.7147   0.6549     H
