data_I
_chemical_name_common  '/home/zhangsd/repos/MofS-CGCNN/ML/data/TSD/clean_cifs/TAKYOV_clean'
_cell_length_a 15.14730
_cell_length_b 15.14730
_cell_length_c 15.47660
_cell_angle_alpha 90.00000
_cell_angle_beta  90.00000
_cell_angle_gamma 120.00000
_space_group_name_H-M_alt      'P 1'


loop_
_space_group_symop_operation_xyz
  'x, y, z' 

loop_
_atom_site_label
_atom_site_fract_x
_atom_site_fract_y
_atom_site_fract_z
_atom_site_type_symbol
Co         0.0      0.5      0.0    Co
Co         0.0      0.5      0.5    Co
H       0.0536   0.2867    0.345     H
H       0.0536   0.2867    0.655     H
H       0.0536   0.7669    0.155     H
H       0.0536   0.7669    0.845     H
O       0.0615   0.4484    0.408     O
O       0.0615   0.4484    0.592     O
O       0.0615   0.6131    0.092     O
O       0.0615   0.6131    0.908     O
H      0.09965   0.1993     0.25     H
H      0.09965   0.1993     0.75     H
H      0.09965  0.90035     0.25     H
H      0.09965  0.90035     0.75     H
C       0.1072   0.3214   0.3064     C
C       0.1072   0.3214   0.6936     C
C       0.1072   0.7858   0.1936     C
C       0.1072   0.7858   0.8064     C
C       0.1351   0.2702     0.25     C
C       0.1351   0.2702     0.75     C
C       0.1351   0.8649     0.25     C
C       0.1351   0.8649     0.75     C
C        0.138   0.4924   0.3608     C
C        0.138   0.4924   0.6392     C
C        0.138   0.6456   0.1392     C
C        0.138   0.6456   0.8608     C
C       0.1615   0.4266   0.3039     C
C       0.1615   0.4266   0.6961     C
C       0.1615   0.7349   0.1961     C
C       0.1615   0.7349   0.8039     C
O       0.1988   0.5877   0.3564     O
O       0.1988   0.5877   0.6436     O
O       0.1988   0.6111   0.1436     O
O       0.1988   0.6111   0.8564     O
H       0.1993  0.09965     0.25     H
H       0.1993  0.09965     0.75     H
C       0.2142   0.3214   0.1936     C
C       0.2142   0.3214   0.8064     C
C       0.2142   0.8928   0.3064     C
C       0.2142   0.8928   0.6936     C
H       0.2331   0.2867    0.155     H
H       0.2331   0.2867    0.845     H
H       0.2331   0.9464    0.345     H
H       0.2331   0.9464    0.655     H
N      0.23905   0.4781     0.25     N
N      0.23905   0.4781     0.75     N
N      0.23905  0.76095     0.25     N
N      0.23905  0.76095     0.75     N
C       0.2651   0.4266   0.1961     C
C       0.2651   0.4266   0.8039     C
C       0.2651   0.8385   0.3039     C
C       0.2651   0.8385   0.6961     C
C       0.2702   0.1351     0.25     C
C       0.2702   0.1351     0.75     C
H       0.2867   0.0536    0.155     H
H       0.2867   0.0536    0.845     H
H       0.2867   0.2331    0.345     H
H       0.2867   0.2331    0.655     H
C       0.3214   0.1072   0.1936     C
C       0.3214   0.1072   0.8064     C
C       0.3214   0.2142   0.3064     C
C       0.3214   0.2142   0.6936     C
Dy     0.33333  0.66666     0.25    Dy
Dy     0.33333  0.66666     0.75    Dy
C       0.3544   0.4924   0.1392     C
C       0.3544   0.4924   0.8608     C
C       0.3544    0.862   0.3608     C
C       0.3544    0.862   0.6392     C
O       0.3869   0.4484    0.092     O
O       0.3869   0.4484    0.908     O
O       0.3869   0.9385    0.408     O
O       0.3869   0.9385    0.592     O
O       0.3889   0.5877   0.1436     O
O       0.3889   0.5877   0.8564     O
O       0.3889   0.8012   0.3564     O
O       0.3889   0.8012   0.6436     O
O       0.4123   0.6111   0.3564     O
O       0.4123   0.6111   0.6436     O
O       0.4123   0.8012   0.1436     O
O       0.4123   0.8012   0.8564     O
C       0.4266   0.1615   0.1961     C
C       0.4266   0.1615   0.8039     C
C       0.4266   0.2651   0.3039     C
C       0.4266   0.2651   0.6961     C
O       0.4484   0.0615    0.092     O
O       0.4484   0.0615    0.908     O
O       0.4484   0.3869    0.408     O
O       0.4484   0.3869    0.592     O
N       0.4781  0.23905     0.25     N
N       0.4781  0.23905     0.75     N
C       0.4924    0.138   0.1392     C
C       0.4924    0.138   0.8608     C
C       0.4924   0.3544   0.3608     C
C       0.4924   0.3544   0.6392     C
Co         0.5      0.0      0.0    Co
Co         0.5      0.0      0.5    Co
Co         0.5      0.5      0.0    Co
Co         0.5      0.5      0.5    Co
C       0.5076   0.6456   0.3608     C
C       0.5076   0.6456   0.6392     C
C       0.5076    0.862   0.1392     C
C       0.5076    0.862   0.8608     C
N       0.5219  0.76095     0.25     N
N       0.5219  0.76095     0.75     N
O       0.5516   0.6131    0.408     O
O       0.5516   0.6131    0.592     O
O       0.5516   0.9385    0.092     O
O       0.5516   0.9385    0.908     O
C       0.5734   0.7349   0.3039     C
C       0.5734   0.7349   0.6961     C
C       0.5734   0.8385   0.1961     C
C       0.5734   0.8385   0.8039     C
O       0.5877   0.1988   0.1436     O
O       0.5877   0.1988   0.8564     O
O       0.5877   0.3889   0.3564     O
O       0.5877   0.3889   0.6436     O
O       0.6111   0.1988   0.3564     O
O       0.6111   0.1988   0.6436     O
O       0.6111   0.4123   0.1436     O
O       0.6111   0.4123   0.8564     O
O       0.6131   0.0615    0.408     O
O       0.6131   0.0615    0.592     O
O       0.6131   0.5516    0.092     O
O       0.6131   0.5516    0.908     O
C       0.6456    0.138   0.3608     C
C       0.6456    0.138   0.6392     C
C       0.6456   0.5076   0.1392     C
C       0.6456   0.5076   0.8608     C
Dy     0.66667  0.33334     0.25    Dy
Dy     0.66667  0.33334     0.75    Dy
C       0.6786   0.7858   0.3064     C
C       0.6786   0.7858   0.6936     C
C       0.6786   0.8928   0.1936     C
C       0.6786   0.8928   0.8064     C
H       0.7133   0.7669    0.345     H
H       0.7133   0.7669    0.655     H
H       0.7133   0.9464    0.155     H
H       0.7133   0.9464    0.845     H
C       0.7298   0.8649     0.25     C
C       0.7298   0.8649     0.75     C
C       0.7349   0.1615   0.3039     C
C       0.7349   0.1615   0.6961     C
C       0.7349   0.5734   0.1961     C
C       0.7349   0.5734   0.8039     C
N      0.76095  0.23905     0.25     N
N      0.76095  0.23905     0.75     N
N      0.76095   0.5219     0.25     N
N      0.76095   0.5219     0.75     N
H       0.7669   0.0536    0.345     H
H       0.7669   0.0536    0.655     H
H       0.7669   0.7133    0.155     H
H       0.7669   0.7133    0.845     H
C       0.7858   0.1072   0.3064     C
C       0.7858   0.1072   0.6936     C
C       0.7858   0.6786   0.1936     C
C       0.7858   0.6786   0.8064     C
H       0.8007  0.90035     0.25     H
H       0.8007  0.90035     0.75     H
O       0.8012   0.3889   0.1436     O
O       0.8012   0.3889   0.8564     O
O       0.8012   0.4123   0.3564     O
O       0.8012   0.4123   0.6436     O
C       0.8385   0.2651   0.1961     C
C       0.8385   0.2651   0.8039     C
C       0.8385   0.5734   0.3039     C
C       0.8385   0.5734   0.6961     C
C        0.862   0.3544   0.1392     C
C        0.862   0.3544   0.8608     C
C        0.862   0.5076   0.3608     C
C        0.862   0.5076   0.6392     C
C       0.8649   0.1351     0.25     C
C       0.8649   0.1351     0.75     C
C       0.8649   0.7298     0.25     C
C       0.8649   0.7298     0.75     C
C       0.8928   0.2142   0.1936     C
C       0.8928   0.2142   0.8064     C
C       0.8928   0.6786   0.3064     C
C       0.8928   0.6786   0.6936     C
H      0.90035  0.09965     0.25     H
H      0.90035  0.09965     0.75     H
H      0.90035   0.8007     0.25     H
H      0.90035   0.8007     0.75     H
O       0.9385   0.3869    0.092     O
O       0.9385   0.3869    0.908     O
O       0.9385   0.5516    0.408     O
O       0.9385   0.5516    0.592     O
H       0.9464   0.2331    0.155     H
H       0.9464   0.2331    0.845     H
H       0.9464   0.7133    0.345     H
H       0.9464   0.7133    0.655     H
