data_I
_chemical_name_common  '/home/zhangsd/repos/MofS-CGCNN/ML/data/TSD/clean_cifs/TECTUS_clean'
_cell_length_a  9.92610
_cell_length_b  9.92610
_cell_length_c 18.28730
_cell_angle_alpha 84.22290
_cell_angle_beta  76.68680
_cell_angle_gamma 112.97400
_space_group_name_H-M_alt      'P 1'


loop_
_space_group_symop_operation_xyz
  'x, y, z' 

loop_
_atom_site_label
_atom_site_fract_x
_atom_site_fract_y
_atom_site_fract_z
_atom_site_type_symbol
H        0.048   0.3726   0.7164     H
C      0.06523  0.34564  0.82413     C
C      0.09238   0.6736  0.13462     C
C      0.11325   0.3676  0.74475     C
H       0.1308   0.3212     0.92     H
O       0.1511  0.73857  0.06533     O
O      0.16281  0.62387  0.17152     O
C      0.16343  0.33814  0.86663     C
Ca     0.20626  0.45626     0.25    Ca
O      0.22036   0.4038  0.58424     O
H       0.2588   0.9492     0.42     H
C      0.25893   0.3822  0.70707     C
O      0.26384  0.69099  0.44497     O
O      0.26788   0.6044  0.33852     O
C       0.2787    0.709   0.3737     C
Ca     0.29008  0.45028  0.45128    Ca
C      0.29523  0.96994  0.36663     C
O      0.29539  0.33433  0.32848     O
O       0.3039  0.21643  0.43467     O
C      0.30822    0.227  0.36538     C
C      0.30977   0.3562  0.82923     C
C      0.31446   0.4069  0.62064     C
C      0.31457    0.861  0.32923     C
C      0.33023  0.11064  0.32413     C
C      0.35737   0.3779  0.74973     C
O      0.36404  0.29119  0.94497     O
C      0.37237   0.8929  0.24973     C
H       0.3856   0.8198   0.2248     H
C      0.38765    0.142  0.24475     C
Ca     0.40156  0.74136  0.04872    Ca
C      0.41073    0.034  0.20707     C
H        0.411   0.2356   0.2164     H
C       0.4173   0.3476   0.8737     C
O      0.44292   0.6064  0.16148     O
O      0.45017  0.42801  0.59022     O
H       0.4554   0.3896   0.7248     H
C      0.47246   0.0649  0.12064     C
O      0.48177  0.95961  0.09022     O
O      0.48804   0.8046  0.91576     O
O      0.51196   0.1954  0.08424     O
O      0.51823  0.04039  0.90978     O
C      0.52754   0.9351  0.87936     C
H       0.5446   0.6104   0.2752     H
O      0.54983  0.57199  0.40978     O
O      0.55708   0.3936  0.83852     O
C       0.5827   0.6524   0.1263     C
H        0.589   0.7644   0.7836     H
C      0.58927    0.966  0.79293     C
Ca     0.59844  0.25864  0.95128    Ca
C      0.61235    0.858  0.75525     C
H       0.6144   0.1802   0.7752     H
C      0.62763   0.1071  0.75027     C
O      0.63596  0.70881  0.05503     O
C      0.64263   0.6221  0.25027     C
C      0.66977  0.88936  0.67587     C
C      0.68543    0.139  0.67077     C
C      0.68554   0.5931  0.37936     C
C      0.69023   0.6438  0.17077     C
C      0.69178    0.773  0.63462     C
O       0.6961  0.78357  0.56533     O
O      0.70461  0.66567  0.67152     O
C      0.70477  0.03006  0.63337     C
Ca     0.70992  0.54972  0.54872    Ca
C       0.7213    0.291   0.6263     C
O      0.73212   0.3956  0.66148     O
O      0.73616  0.30901  0.55503     O
C      0.74107   0.6178  0.29293     C
H       0.7412   0.0508     0.58     H
O      0.77964   0.5962  0.41576     O
Ca     0.79374  0.54374     0.75    Ca
C      0.83657  0.66186  0.13337     C
O      0.83719  0.37613  0.82848     O
O       0.8489  0.26143  0.93467     O
H       0.8692   0.6788     0.08     H
C      0.88675   0.6324  0.25525     C
C      0.90762   0.3264  0.86538     C
C      0.93477  0.65436  0.17587     C
H        0.952   0.6274   0.2836     H
