data_I
_chemical_name_common  '/home/zhangsd/repos/MofS-CGCNN/ML/data/TSD/clean_cifs/TEQVAO_manual'
_cell_length_a 13.79090
_cell_length_b 16.28790
_cell_length_c 22.01700
_cell_angle_alpha 90.00000
_cell_angle_beta  90.00000
_cell_angle_gamma 90.00000
_space_group_name_H-M_alt      'P 1'


loop_
_space_group_symop_operation_xyz
  'x, y, z' 

loop_
_atom_site_label
_atom_site_fract_x
_atom_site_fract_y
_atom_site_fract_z
_atom_site_type_symbol
H     -0.03433  0.55869  0.04528     H
H      0.00218   0.1345  0.92199     H
O       0.0041   0.0999  0.71678     O
O       0.0041   0.4001  0.71678     O
H       0.0062  0.81911  0.04369     H
H      0.00832   0.1665  0.00308     H
C       0.0096   0.6138   0.0291     C
C       0.0096   0.8862   0.0291     C
H      0.01247  0.39652  0.92159     H
H      0.01763  0.24972  0.72112     H
Zn     0.02021  0.50209  0.33117    Zn
Zn     0.02021  0.99791  0.33117    Zn
H      0.03856  0.42468  0.00189     H
O         0.05  0.09998  0.28827     O
O         0.05  0.40002  0.28827     O
C       0.0671     0.25   0.7626     C
H      0.06864   0.2504    0.289     H
C       0.0723   0.0973   0.7564     C
C       0.0723   0.4027   0.7564     C
O       0.0823   0.5145  0.61041     O
O       0.0823   0.9855  0.61041     O
C       0.0967   0.1768  0.78742     C
C       0.0967   0.3232  0.78742     C
H      0.10705  0.58444  0.92097     H
H      0.10705  0.91556  0.92097     H
H      0.11363  0.28541  0.60998     H
H      0.11382  0.51897  0.50132     H
H      0.11382  0.98103  0.50132     H
O       0.1147   0.0334  0.76944     O
O       0.1147   0.4666  0.76944     O
C       0.1164   0.5882   0.0204     C
C       0.1164   0.9118   0.0204     C
O       0.1169   0.5258  0.39226     O
O       0.1169   0.9742  0.39226     O
C       0.1219     0.25   0.2494     C
C       0.1253   0.0975  0.25445     C
C       0.1253   0.4025  0.25445     C
H      0.14078   0.5826  0.11746     H
H      0.14078   0.9174  0.11746     H
C       0.1542   0.1766   0.8392     C
C       0.1542   0.3234   0.8392     C
C       0.1546   0.5754   0.9628     C
C       0.1546   0.9246   0.9628     C
C       0.1548   0.1761  0.22494     C
C       0.1548   0.3239  0.22494     C
H       0.1618  0.18407  0.58511     H
C       0.1679   0.5398   0.6194     C
C       0.1679   0.9602   0.6194     C
O        0.172   0.0337  0.24563     O
O        0.172   0.4663  0.24563     O
C       0.1735   0.5744   0.0703     C
C       0.1735   0.9256   0.0703     C
H      0.17861  0.11591  0.85997     H
H      0.17861  0.38409  0.85997     H
C       0.1819     0.25   0.5971     C
C        0.182     0.25   0.8657     C
H      0.18501  0.28393  0.41498     H
C       0.1925   0.5391  0.50681     C
C       0.1925   0.9609  0.50681     C
O       0.2006   0.5573  0.67012     O
O       0.2006   0.9427  0.67012     O
H      0.20277  0.28205  0.96196     H
C       0.2066   0.5425   0.3939     C
C       0.2066   0.9575   0.3939     C
C       0.2161   0.1769   0.1759     C
C       0.2161   0.3231   0.1759     C
H       0.2177  0.28052  0.55625     H
Mg      0.2221  0.55091  0.75915    Mg
Mg      0.2221  0.94909  0.75915    Mg
C       0.2307   0.5509  0.56415     C
C       0.2307   0.9491  0.56415     C
H      0.23953  0.18402   0.4378     H
H      0.24199  0.11662  0.15517     H
H      0.24199  0.38338  0.15517     H
O        0.242   0.5525  0.84946     O
O        0.242   0.9475  0.84946     O
C       0.2441     0.25   0.9239     C
C       0.2485     0.25     0.15     C
C       0.2485   0.5514   0.4561     C
C       0.2485   0.9486   0.4561     C
C       0.2515     0.25     0.65     C
C       0.2515   0.5514   0.9561     C
C       0.2515   0.9486   0.9561     C
C       0.2559     0.25   0.4239     C
O        0.258   0.5525  0.34946     O
O        0.258   0.9475  0.34946     O
H      0.25801  0.11662  0.65517     H
H      0.25801  0.38338  0.65517     H
H      0.26047  0.18402   0.9378     H
C       0.2693   0.5509  0.06415     C
C       0.2693   0.9491  0.06415     C
Mg      0.2779  0.55091  0.25915    Mg
Mg      0.2779  0.94909  0.25915    Mg
H       0.2823  0.28052  0.05625     H
C       0.2839   0.1769   0.6759     C
C       0.2839   0.3231   0.6759     C
C       0.2934   0.5425   0.8939     C
C       0.2934   0.9575   0.8939     C
H      0.29723  0.28205  0.46196     H
O       0.2994   0.5573  0.17012     O
O       0.2994   0.9427  0.17012     O
C       0.3075   0.5391  0.00681     C
C       0.3075   0.9609  0.00681     C
H      0.31499  0.28393  0.91498     H
C        0.318     0.25   0.3657     C
C       0.3181     0.25   0.0971     C
H      0.32139  0.11591  0.35997     H
H      0.32139  0.38409  0.35997     H
C       0.3265   0.5744   0.5703     C
C       0.3265   0.9256   0.5703     C
O        0.328   0.0337  0.74563     O
O        0.328   0.4663  0.74563     O
C       0.3321   0.5398   0.1194     C
C       0.3321   0.9602   0.1194     C
H       0.3382  0.18407  0.08511     H
C       0.3452   0.1761  0.72494     C
C       0.3452   0.3239  0.72494     C
C       0.3454   0.5754   0.4628     C
C       0.3454   0.9246   0.4628     C
C       0.3458   0.1766   0.3392     C
C       0.3458   0.3234   0.3392     C
H      0.35922   0.5826  0.61746     H
H      0.35922   0.9174  0.61746     H
C       0.3747   0.0975  0.75445     C
C       0.3747   0.4025  0.75445     C
C       0.3781     0.25   0.7494     C
O       0.3831   0.5258  0.89226     O
O       0.3831   0.9742  0.89226     O
C       0.3836   0.5882   0.5204     C
C       0.3836   0.9118   0.5204     C
O       0.3853   0.0334  0.26944     O
O       0.3853   0.4666  0.26944     O
H      0.38618  0.51897  0.00132     H
H      0.38618  0.98103  0.00132     H
H      0.38637  0.28541  0.10998     H
H      0.39295  0.58444  0.42097     H
H      0.39295  0.91556  0.42097     H
C       0.4033   0.1768  0.28742     C
C       0.4033   0.3232  0.28742     C
O       0.4177   0.5145  0.11041     O
O       0.4177   0.9855  0.11041     O
C       0.4277   0.0973   0.2564     C
C       0.4277   0.4027   0.2564     C
H      0.43136   0.2504    0.789     H
C       0.4329     0.25   0.2626     C
O         0.45  0.09998  0.78827     O
O         0.45  0.40002  0.78827     O
H      0.46038  0.05932   0.4812     H
H      0.46144  0.42468  0.50189     H
Zn     0.47979  0.50209  0.83117    Zn
Zn     0.47979  0.99791  0.83117    Zn
H      0.48237  0.24972  0.22112     H
H      0.48753  0.39652  0.42159     H
C       0.4904   0.6138   0.5291     C
C       0.4904   0.8862   0.5291     C
H      0.49168   0.1665  0.50308     H
H       0.4938  0.81911  0.54369     H
H      0.49485  0.66489  0.56438     H
O       0.4959   0.0999  0.21678     O
O       0.4959   0.4001  0.21678     O
H      0.49782   0.1345  0.42199     H
H      0.50091  0.31848  0.48279     H
O       0.5041   0.5999  0.78322     O
O       0.5041   0.9001  0.78322     O
C       0.5096   0.1138   0.4709     C
C       0.5096   0.3862   0.4709     C
H      0.51763  0.75028  0.77888     H
Zn     0.52021  0.00209  0.16883    Zn
Zn     0.52021  0.49791  0.16883    Zn
H      0.52094  0.63673  0.48408     H
H      0.52509  0.92628  0.56556     H
H      0.53123  0.89429  0.48448     H
H      0.53433  0.55869  0.54528     H
O         0.55  0.59998  0.21173     O
O         0.55  0.90002  0.21173     O
C       0.5671     0.75   0.7374     C
H      0.56864   0.7496    0.211     H
C       0.5723   0.5973   0.7436     C
C       0.5723   0.9027   0.7436     C
O       0.5823   0.0145  0.88959     O
O       0.5823   0.4855  0.88959     O
C       0.5967   0.6768  0.71258     C
C       0.5967   0.8232  0.71258     C
H      0.60705  0.08444  0.57903     H
H      0.60705  0.41556  0.57903     H
H      0.61105  0.78052  0.88869     H
H      0.61382  0.01897  0.99868     H
H      0.61382  0.48103  0.99868     H
O       0.6147   0.5334  0.73056     O
O       0.6147   0.9666  0.73056     O
C       0.6164   0.0882   0.4796     C
C       0.6164   0.4118   0.4796     C
O       0.6169   0.0258  0.10774     O
O       0.6169   0.4742  0.10774     O
C       0.6219     0.75   0.2506     C
C       0.6253   0.5975  0.24555     C
C       0.6253   0.9025  0.24555     C
H      0.64078   0.0826  0.38254     H
H      0.64078   0.4174  0.38254     H
C       0.6542   0.6766   0.6608     C
C       0.6542   0.8234   0.6608     C
C       0.6546   0.0754   0.5372     C
C       0.6546   0.4246   0.5372     C
C       0.6548   0.6761  0.27506     C
C       0.6548   0.8239  0.27506     C
H      0.66695  0.68407  0.91755     H
C       0.6679   0.0398   0.8806     C
C       0.6679   0.4602   0.8806     C
O        0.672   0.5337  0.25437     O
O        0.672   0.9663  0.25437     O
C       0.6735   0.0744   0.4297     C
C       0.6735   0.4256   0.4297     C
H      0.67861  0.61591  0.64003     H
H      0.67861  0.88409  0.64003     H
C       0.6819     0.75   0.9029     C
C        0.682     0.75   0.6343     C
H      0.68395  0.78205  0.08546     H
C       0.6925   0.0391  0.99319     C
C       0.6925   0.4609  0.99319     C
O       0.7006   0.0573  0.82988     O
O       0.7006   0.4427  0.82988     O
H      0.70384  0.78393  0.53848     H
C       0.7066   0.0425   0.1061     C
C       0.7066   0.4575   0.1061     C
H      0.71513  0.78541  0.94242     H
C       0.7161   0.6769   0.3241     C
C       0.7161   0.8231   0.3241     C
Mg      0.7221  0.05091  0.74085    Mg
Mg      0.7221  0.44909  0.74085    Mg
C       0.7307   0.0509  0.93585     C
C       0.7307   0.4491  0.93585     C
H      0.74165  0.68402  0.06131     H
H      0.74199  0.61662  0.34483     H
H      0.74199  0.88338  0.34483     H
O        0.742   0.0525  0.65054     O
O        0.742   0.4475  0.65054     O
C       0.7441     0.75   0.5761     C
C       0.7485   0.0514   0.0439     C
C       0.7485   0.4486   0.0439     C
C       0.7485     0.75     0.35     C
C       0.7515   0.0514   0.5439     C
C       0.7515   0.4486   0.5439     C
C       0.7515     0.75     0.85     C
C       0.7559     0.75   0.0761     C
O        0.758   0.0525  0.15054     O
O        0.758   0.4475  0.15054     O
H      0.75801  0.61662  0.84483     H
H      0.75801  0.88338  0.84483     H
H      0.75835  0.68402  0.56131     H
C       0.7693   0.0509  0.43585     C
C       0.7693   0.4491  0.43585     C
Mg      0.7779  0.05091  0.24085    Mg
Mg      0.7779  0.44909  0.24085    Mg
C       0.7839   0.6769   0.8241     C
C       0.7839   0.8231   0.8241     C
H      0.78487  0.78541  0.44242     H
C       0.7934   0.0425   0.6061     C
C       0.7934   0.4575   0.6061     C
H      0.79616  0.78393  0.03848     H
O       0.7994   0.0573  0.32988     O
O       0.7994   0.4427  0.32988     O
C       0.8075   0.0391  0.49319     C
C       0.8075   0.4609  0.49319     C
H      0.81605  0.78205  0.58546     H
C        0.818     0.75   0.1343     C
C       0.8181     0.75   0.4029     C
H      0.82139  0.61591  0.14003     H
H      0.82139  0.88409  0.14003     H
C       0.8265   0.0744   0.9297     C
C       0.8265   0.4256   0.9297     C
O        0.828   0.5337  0.75437     O
O        0.828   0.9663  0.75437     O
C       0.8321   0.0398   0.3806     C
C       0.8321   0.4602   0.3806     C
H      0.83305  0.68407  0.41755     H
C       0.8452   0.6761  0.77506     C
C       0.8452   0.8239  0.77506     C
C       0.8454   0.0754   0.0372     C
C       0.8454   0.4246   0.0372     C
C       0.8458   0.6766   0.1608     C
C       0.8458   0.8234   0.1608     C
H      0.85922   0.0826  0.88254     H
H      0.85922   0.4174  0.88254     H
C       0.8747   0.5975  0.74555     C
C       0.8747   0.9025  0.74555     C
C       0.8781     0.75   0.7506     C
O       0.8831   0.0258  0.60774     O
O       0.8831   0.4742  0.60774     O
C       0.8836   0.0882   0.9796     C
C       0.8836   0.4118   0.9796     C
O       0.8853   0.5334  0.23056     O
O       0.8853   0.9666  0.23056     O
H      0.88618  0.01897  0.49868     H
H      0.88618  0.48103  0.49868     H
H      0.88895  0.78052  0.38869     H
H      0.89295  0.08444  0.07903     H
H      0.89295  0.41556  0.07903     H
C       0.9033   0.6768  0.21258     C
C       0.9033   0.8232  0.21258     C
O       0.9177   0.0145  0.38959     O
O       0.9177   0.4855  0.38959     O
C       0.9277   0.5973   0.2436     C
C       0.9277   0.9027   0.2436     C
H      0.93136   0.7496    0.711     H
C       0.9329     0.75   0.2374     C
O         0.95  0.59998  0.71173     O
O         0.95  0.90002  0.71173     O
H      0.96877  0.89429 -0.01552     H
H      0.97491  0.92628  1.06556     H
H      0.97906  0.63673 -0.01592     H
Zn     0.97979  0.00209  0.66883    Zn
Zn     0.97979  0.49791  0.66883    Zn
H      0.98237  0.75028  0.27888     H
C       0.9904   0.1138   0.9709     C
C       0.9904   0.3862   0.9709     C
O       0.9959   0.5999  0.28322     O
O       0.9959   0.9001  0.28322     O
H      0.99909  0.31848  0.98279     H
H      1.00515  0.66489  1.06438     H
H      1.03962  0.05932   0.9812     H
