data_I
_chemical_name_common  '/home/zhangsd/repos/MofS-CGCNN/ML/data/TSD/clean_cifs/TETVIZ_clean'
_cell_length_a 16.10940
_cell_length_b 11.85430
_cell_length_c 17.82320
_cell_angle_alpha 90.00000
_cell_angle_beta  103.29600
_cell_angle_gamma 90.00000
_space_group_name_H-M_alt      'P 1'


loop_
_space_group_symop_operation_xyz
  'x, y, z' 

loop_
_atom_site_label
_atom_site_fract_x
_atom_site_fract_y
_atom_site_fract_z
_atom_site_type_symbol
Co         0.0      0.0      0.5    Co
O       0.0095   0.7484  0.60096     O
O       0.0139   0.2113  0.63668     O
O       0.0154   0.3817   0.7656     O
O       0.0195   0.0465   0.2308     O
Mo     0.01969  0.85736  0.69609    Mo
O       0.0218   0.5008  0.88348     O
Mo     0.02215  0.07372  0.71292    Mo
O       0.0303   0.8195   0.2211     O
O       0.0334   0.9787  0.62373     O
O       0.0393   0.2718   0.2572     O
P      0.06147  0.69642    0.237     P
O       0.0909   0.1311  0.52244     O
O       0.0914   0.8636  0.50147     O
O       0.0978   0.5428   0.0205     O
O       0.1094    0.664  0.17643     O
P      0.11061  0.50978  0.94345     P
Mo     0.11136  0.75479  0.42274    Mo
Mo     0.11579  0.26479  0.46508    Mo
O       0.1161   0.9211  0.35766     O
O       0.1176   0.1297  0.37505     O
Co     0.12168  0.50245  0.13429    Co
O       0.1221    0.692  0.31865     O
P      0.12263  0.33695  0.28734     P
O       0.1284   0.4442  0.24509     O
O        0.132   0.3621    0.374     O
O       0.1557   0.3953   0.9398     O
O       0.1591   0.6019  0.90911     O
P      0.17484  0.02274  0.38457     P
O       0.2016   0.2629   0.2786     O
O       0.2046   0.9813  0.61518     O
O       0.2125   0.0092  0.47213     O
Mo     0.21545  0.14051   0.5667    Mo
Mo     0.21605  0.84928  0.53756    Mo
O       0.2353   0.7726  0.44646     O
O       0.2384   0.2457   0.4903     O
O       0.2437    0.037  0.34093     O
O       0.2563    0.537  0.15907     O
O       0.2616   0.7457   0.0097     O
O       0.2647   0.2726  0.05354     O
Mo     0.28395  0.34928  0.96244    Mo
Mo     0.28455  0.64051   0.9333    Mo
O       0.2875   0.5092  0.02787     O
O       0.2954   0.4813  0.88482     O
O       0.2984   0.7629   0.2214     O
P      0.32516  0.52274  0.11543     P
O       0.3409   0.1019  0.59089     O
O       0.3443   0.8953   0.5602     O
O        0.368   0.8621    0.126     O
O       0.3716   0.9442  0.25491     O
P      0.37737  0.83695  0.21266     P
O       0.3779    0.192  0.18135     O
Co     0.37832  0.00245  0.36571    Co
O       0.3824   0.6297  0.12495     O
O       0.3839   0.4211  0.14234     O
Mo     0.38421  0.76479  0.03492    Mo
Mo     0.38864  0.25479  0.07726    Mo
P      0.38939  0.00978  0.55655     P
O       0.3906    0.164  0.32357     O
O       0.4022   0.0428   0.4795     O
O       0.4086   0.3636  0.99853     O
O       0.4091   0.6311  0.97756     O
P      0.43853  0.19642    0.263     P
O       0.4607   0.7718   0.2428     O
O       0.4666   0.4787  0.87627     O
O       0.4697   0.3195   0.2789     O
Mo     0.47785  0.57372  0.78708    Mo
O       0.4782   0.0008  0.61652     O
Mo     0.48031  0.35736  0.80391    Mo
O       0.4805   0.5465   0.2692     O
O       0.4846   0.8817   0.7344     O
O       0.4861   0.7113  0.86332     O
O       0.4905   0.2484  0.89904     O
Co         0.5      0.5      0.0    Co
O       0.5095   0.7516  0.10096     O
O       0.5139   0.2887  0.13668     O
O       0.5154   0.1183   0.2656     O
O       0.5195   0.4535   0.7308     O
Mo     0.51969  0.64264  0.19609    Mo
O       0.5218   0.9992  0.38348     O
Mo     0.52215  0.42628  0.21292    Mo
O       0.5303   0.6805   0.7211     O
O       0.5334   0.5213  0.12373     O
O       0.5393   0.2282   0.7572     O
P      0.56147  0.80358    0.737     P
O       0.5909   0.3689  0.02244     O
O       0.5914   0.6364  0.00147     O
O       0.5978   0.9572   0.5205     O
O       0.6094    0.836  0.67643     O
P      0.61061  0.99022  0.44345     P
Mo     0.61136  0.74521  0.92274    Mo
Mo     0.61579  0.23521  0.96508    Mo
O       0.6161   0.5789  0.85766     O
O       0.6176   0.3703  0.87505     O
Co     0.62168  0.99755  0.63429    Co
O       0.6221    0.808  0.81865     O
P      0.62263  0.16305  0.78734     P
O       0.6284   0.0558  0.74509     O
O        0.632   0.1379    0.874     O
O       0.6557   0.1047   0.4398     O
O       0.6591   0.8981  0.40911     O
P      0.67484  0.47726  0.88457     P
O       0.7016   0.2371   0.7786     O
O       0.7046   0.5187  0.11518     O
O       0.7125   0.4908  0.97213     O
Mo     0.71545  0.35949   0.0667    Mo
Mo     0.71605  0.65072  0.03756    Mo
O       0.7353   0.7274  0.94646     O
O       0.7384   0.2543   0.9903     O
O       0.7437    0.463  0.84093     O
O       0.7563    0.963  0.65907     O
O       0.7616   0.7543   0.5097     O
O       0.7647   0.2274  0.55354     O
Mo     0.78395  0.15072  0.46244    Mo
Mo     0.78455  0.85949   0.4333    Mo
O       0.7875   0.9908  0.52787     O
O       0.7954   0.0187  0.38482     O
O       0.7984   0.7371   0.7214     O
P      0.82516  0.97726  0.61543     P
O       0.8409   0.3981  0.09089     O
O       0.8443   0.6047   0.0602     O
O        0.868   0.6379    0.626     O
O       0.8716   0.5558  0.75491     O
P      0.87737  0.66305  0.71266     P
O       0.8779    0.308  0.68135     O
Co     0.87832  0.49755  0.86571    Co
O       0.8824   0.8703  0.62495     O
O       0.8839   0.0789  0.64234     O
Mo     0.88421  0.73521  0.53492    Mo
Mo     0.88864  0.24521  0.57726    Mo
P      0.88939  0.49022  0.05655     P
O       0.8906    0.336  0.82357     O
O       0.9022   0.4572   0.9795     O
O       0.9086   0.1364  0.49853     O
O       0.9091   0.8689  0.47756     O
P      0.93853  0.30358    0.763     P
O       0.9607   0.7282   0.7428     O
O       0.9666   0.0213  0.37627     O
O       0.9697   0.1805   0.7789     O
Mo     0.97785  0.92628  0.28708    Mo
O       0.9782   0.4992  0.11652     O
Mo     0.98031  0.14264  0.30391    Mo
O       0.9805   0.9535   0.7692     O
O       0.9846   0.6183   0.2344     O
O       0.9861   0.7887  0.36332     O
O       0.9905   0.2516  0.39904     O
