data_I
_chemical_name_common  '/home/zhangsd/repos/MofS-CGCNN/ML/data/TSD/clean_cifs/TETWUM_clean'
_cell_length_a 12.00260
_cell_length_b 14.61610
_cell_length_c 16.82320
_cell_angle_alpha 115.74700
_cell_angle_beta  105.68600
_cell_angle_gamma 90.00000
_space_group_name_H-M_alt      'P 1'


loop_
_space_group_symop_operation_xyz
  'x, y, z' 

loop_
_atom_site_label
_atom_site_fract_x
_atom_site_fract_y
_atom_site_fract_z
_atom_site_type_symbol
H       0.0034   0.3581    0.034     H
O       0.0093  0.87504  0.35928     O
C       0.0127     0.16   0.9454     C
O       0.0159  0.33722  0.56084     O
H       0.0248   0.8092    0.094     H
O       0.0351  0.31846  0.42952     O
H       0.0382   0.9259   0.0024     H
O       0.0385  0.74564  0.23808     O
H       0.0391   0.0762    0.167     H
O       0.0429  0.06187  0.34694     O
C       0.0586    0.369   0.5144     C
H       0.0616   0.1127   0.9148     H
C       0.0643   0.3401   0.0698     C
C       0.0671   0.8326   0.3046     C
Cd     0.06867  0.82552  0.56824    Cd
C       0.0765   0.8965   0.0428     C
H       0.0794   0.5237   0.5708     H
H       0.0794    0.778    0.735     H
C       0.0889   0.2438   0.0376     C
O       0.0996  0.11792  0.49664     O
H       0.1109   0.4802   0.1796     H
C       0.1112   0.0613   0.4172     C
C       0.1169   0.0669    0.185     C
H       0.1247   0.8485    0.012     H
C       0.1309   0.4141   0.1578     C
C       0.1338   0.4728   0.5646     C
C       0.1541   0.9805   0.1306     C
C       0.1575   0.8054   0.7554     C
H       0.1625   0.1986   0.3018     H
H       0.1653   0.5056    0.464     H
H       0.1707    0.537    0.709     H
Cd     0.17245  0.16066  0.64678    Cd
H       0.1748   0.9049   0.2664     H
C        0.181  0.89414  0.32088     C
C       0.1844   0.2219   0.0918     C
O       0.1865  0.98635   0.5941     O
H         0.19   0.0711   0.7864     H
C       0.1918   0.1411   0.2664     C
N       0.1961  0.83746  0.70392     N
H       0.1963    0.788    0.872     H
O       0.1978  0.83272  0.49064     O
H       0.2062   0.1564   0.0708     H
C       0.2119   0.5017   0.6642     C
C       0.2121  0.99957  0.40694     C
C       0.2126   0.4918    0.514     C
C       0.2194   0.9287   0.5252     C
N       0.2204   0.3947   0.2112     N
C       0.2277   0.8106   0.8378     C
H        0.233    0.643   0.6042     H
H        0.236   0.4411   0.6702     H
C       0.2465      0.3   0.1778     C
C       0.2535   0.1222   0.8222     C
H        0.264   0.7709   0.3298     H
H        0.267   0.0388   0.3958     H
C       0.2723   0.9728   0.1622     C
N       0.2796   0.1835   0.7888     N
C       0.2806   0.4035   0.4748     C
C       0.2874   0.9778    0.486     C
C       0.2879  0.59263  0.59306     C
C       0.2881   0.8375   0.3358     C
H       0.2938   0.0856   0.9292     H
O       0.3022  0.34208  0.50936     O
H       0.3037    0.916    0.128     H
N       0.3039  0.13354  0.29608     N
C       0.3082   0.8747   0.7336     C
H         0.31   0.2847   0.2136     H
O       0.3135  0.39225   0.4059     O
C       0.3156   0.1301   0.9082     C
C        0.319  0.57326  0.67912     C
H       0.3252   0.6385   0.7336     H
Cd     0.32755  0.51388  0.35322    Cd
H       0.3293    0.828    0.291     H
H       0.3347   0.0416    0.536     H
H       0.3375   0.8968   0.6982     H
C       0.3425     0.05   0.2446     C
C       0.3459   0.8499   0.8694     C
C       0.3662   0.9082   0.4354     C
C       0.3691   0.2563   0.8422     C
H       0.3753   0.8365    0.988     H
C       0.3831   0.8819    0.815     C
C       0.3888   0.6441   0.5828     C
H       0.3891   0.3006   0.8204     H
O       0.4004  0.62128  0.50336     O
C       0.4111   0.2062   0.9624     C
H       0.4206    0.043    0.265     H
H       0.4206   0.9529   0.4292     H
C       0.4235   0.8537   0.9572     C
Cd     0.43133  0.25728  0.43176    Cd
C       0.4329    0.528   0.6954     C
C       0.4357   0.2703   0.9302     C
H       0.4384   0.1979   0.0852     H
C       0.4414   0.8546   0.4856     C
O       0.4571  0.71493  0.65306     O
H       0.4609   0.9092    0.833     H
O       0.4615  0.50756  0.76192     O
H       0.4618   0.9235   0.9976     H
O       0.4649  0.88894  0.57048     O
H       0.4752   0.7152    0.906     H
O       0.4841  0.77638  0.43916     O
C       0.4873   0.2146   0.0546     C
O       0.4907  0.51576  0.64072     O
H       0.4966   0.3241    0.966     H
H       0.5034   0.6759    0.034     H
O       0.5093  0.48424  0.35928     O
C       0.5127   0.7854   0.9454     C
O       0.5159  0.22362  0.56084     O
H       0.5248   0.2848    0.094     H
O       0.5351  0.11106  0.42952     O
H       0.5382   0.0765   0.0024     H
O       0.5385  0.49244  0.23808     O
H       0.5391   0.0908    0.167     H
O       0.5429  0.28507  0.34694     O
C       0.5586   0.1454   0.5144     C
H       0.5616   0.8021   0.9148     H
C       0.5643   0.7297   0.0698     C
C       0.5671    0.472   0.3046     C
Cd     0.56867  0.74272  0.56824    Cd
C       0.5765   0.1463   0.0428     C
H       0.5794   0.0471   0.5708     H
H       0.5794    0.957    0.735     H
C       0.5889   0.7938   0.0376     C
O       0.5996  0.37872  0.49664     O
H       0.6109   0.6994   0.1796     H
C       0.6112   0.3559   0.4172     C
C       0.6169   0.1181    0.185     C
H       0.6247   0.1635    0.012     H
C       0.6309   0.7437   0.1578     C
C       0.6338   0.0918   0.5646     C
C       0.6541   0.1501   0.1306     C
C       0.6575     0.95   0.7554     C
H       0.6625   0.1032   0.3018     H
H       0.6653   0.9584    0.464     H
H       0.6707    0.172    0.709     H
Cd     0.67245  0.48612  0.64678    Cd
H       0.6748   0.3615   0.2664     H
C        0.681  0.42674  0.32088     C
C       0.6844   0.8699   0.0918     C
O       0.6865  0.60775   0.5941     O
H         0.69   0.7153   0.7864     H
C       0.6918   0.1253   0.2664     C
N       0.6961  0.86646  0.70392     N
H       0.6963    0.084    0.872     H
O       0.6978  0.65792  0.49064     O
H       0.7062   0.9144   0.0708     H
C       0.7119   0.1625   0.6642     C
C       0.7121  0.40737  0.40694     C
C       0.7126   0.0222    0.514     C
C       0.7194   0.5965   0.5252     C
N       0.7204   0.8165   0.2112     N
C       0.7277   0.0272   0.8378     C
H        0.733   0.9612   0.6042     H
H        0.736   0.2291   0.6702     H
C       0.7465   0.8778   0.1778     C
C       0.7535      0.7   0.8222     C
H        0.764   0.5589   0.3298     H
H        0.767    0.357   0.3958     H
C       0.7723   0.1894   0.1622     C
N       0.7796   0.6053   0.7888     N
C       0.7806   0.0713   0.4748     C
C       0.7874   0.5082    0.486     C
C       0.7879  0.00043  0.59306     C
C       0.7881   0.4983   0.3358     C
H       0.7938   0.8436   0.9292     H
O       0.8022  0.16728  0.50936     O
H       0.8037    0.212    0.128     H
N       0.8039  0.16254  0.29608     N
C       0.8082   0.8589   0.7336     C
H         0.81   0.9289   0.2136     H
O       0.8135  0.01365   0.4059     O
C       0.8156   0.7781   0.9082     C
C        0.819  0.10586  0.67912     C
H       0.8252   0.0951   0.7336     H
Cd     0.82755  0.83934  0.35322    Cd
H       0.8293    0.463    0.291     H
H       0.8347   0.4944    0.536     H
H       0.8375   0.8014   0.6982     H
C       0.8425   0.1946   0.2446     C
C       0.8459   0.0195   0.8694     C
C       0.8662   0.5272   0.4354     C
C       0.8691   0.5859   0.8422     C
H       0.8753   0.1515    0.988     H
C       0.8831   0.9331    0.815     C
C       0.8888   0.9387   0.5828     C
H       0.8891   0.5198   0.8204     H
O       0.9004  0.88208  0.50336     O
C       0.9111   0.7562   0.9624     C
H       0.9206    0.222    0.265     H
H       0.9206   0.4763   0.4292     H
C       0.9235   0.1035   0.9572     C
Cd     0.93133  0.17448  0.43176    Cd
C       0.9329   0.1674   0.6954     C
C       0.9357   0.6599   0.9302     C
H       0.9384   0.8873   0.0852     H
C       0.9414    0.631   0.4856     C
O       0.9571  0.93813  0.65306     O
H       0.9609   0.9238    0.833     H
O       0.9615  0.25436  0.76192     O
H       0.9618   0.0741   0.9976     H
O       0.9649  0.68154  0.57048     O
H       0.9752   0.1908    0.906     H
O       0.9841  0.66278  0.43916     O
C       0.9873     0.84   0.0546     C
O       0.9907  0.12496  0.64072     O
H       0.9966   0.6419    0.966     H
