data_I
_chemical_name_common  '/home/zhangsd/repos/MofS-CGCNN/ML/data/TSD/clean_cifs/TIQGIK_clean'
_cell_length_a 10.04520
_cell_length_b 14.16010
_cell_length_c 10.22940
_cell_angle_alpha 92.25800
_cell_angle_beta  90.00000
_cell_angle_gamma 90.00000
_space_group_name_H-M_alt      'P 1'


loop_
_space_group_symop_operation_xyz
  'x, y, z' 

loop_
_atom_site_label
_atom_site_fract_x
_atom_site_fract_y
_atom_site_fract_z
_atom_site_type_symbol
C       0.0017   0.3692   0.9191     C
H       0.0053   0.4504   0.7071     H
H        0.023    0.839    0.995     H
C       0.0441   0.5019   0.7649     C
O       0.0459   0.6447    0.196     O
C       0.0573   0.5816   0.2784     C
H       0.0594   0.5071   0.9691     H
O       0.0597   0.2932   0.9398     O
O        0.068   0.7839   0.0238     O
H        0.071    0.768    0.432     H
C       0.0808   0.4597   0.8971     C
Cl     0.10757  0.96782     0.53    Cl
O       0.1216   0.3801   0.4183     O
Cu     0.12341  0.77034  0.20064    Cu
H       0.1246   0.0931   0.0931     H
O       0.1457   0.5745   0.3638     O
O       0.1544   0.7688   0.3868     O
H        0.175   0.5211   0.6089     H
C       0.1765   0.5316   0.7062     C
O       0.1971   0.6633   0.8559     O
O       0.2005   0.2036   0.2975     O
O        0.211   0.8961   0.2154     O
C       0.2184   0.1165   0.0975     C
C       0.2187   0.6324   0.7423     C
O       0.2221   0.4441   0.8948     O
C       0.2257   0.2105   0.1775     C
Cu     0.23228  0.78851  0.93235    Cu
O       0.2436   0.2956   0.7279     O
Cu     0.24883  0.28535  0.92562    Cu
Cu     0.25734  0.28744  0.43793    Cu
O       0.2579   0.2846   0.1228     O
C        0.258    0.943   0.1244     C
Cu     0.26386  0.87617  0.44109    Cu
O       0.2682    0.916    0.007     O
O       0.2693   0.1289   0.9685     O
C        0.275   0.4625   0.7681     C
O       0.2788   0.6748   0.6533     O
Cu     0.28111  0.66436  0.40769    Cu
C       0.2844    0.372   0.6834     C
C       0.3099   0.0421   0.1587     C
H       0.3168   0.0532   0.2556     H
O       0.3262   0.3805   0.5687     O
H       0.3648   0.4926   0.7772     H
Cl     0.37338  0.69091  0.15147    Cl
O        0.386   0.1913   0.4726     O
O       0.3912   0.7687   0.4676     O
O       0.3938    0.806   0.8392     O
H        0.395    0.871    0.869     H
O       0.4046   0.9669   0.4618     O
Cu     0.40664  0.78172  0.65605    Cu
C         0.41   0.1107   0.9666     C
H       0.4296   0.0667   0.8902     H
O        0.439   0.2749   0.9125     O
C       0.4456   0.0607   0.0906     C
C         0.47   0.9736   0.5667     C
O       0.4707    0.915   0.6566     O
C       0.4915   0.2008   0.9508     C
H       0.4972   0.1061   0.1484     H
H       0.5028   0.1061   0.6484     H
C       0.5085   0.2008   0.4508     C
O       0.5293    0.915   0.1566     O
C         0.53   0.9736   0.0667     C
C       0.5544   0.0607   0.5906     C
O        0.561   0.2749   0.4125     O
H       0.5704   0.0667   0.3902     H
C         0.59   0.1107   0.4666     C
Cu     0.59336  0.78172  0.15605    Cu
O       0.5954   0.9669   0.9618     O
H        0.605    0.871    0.369     H
O       0.6062    0.806   0.3392     O
O       0.6088   0.7687   0.9676     O
O        0.614   0.1913   0.9726     O
Cl     0.62662  0.69091  0.65147    Cl
H       0.6352   0.4926   0.2772     H
O       0.6738   0.3805   0.0687     O
H       0.6832   0.0532   0.7556     H
C       0.6901   0.0421   0.6587     C
C       0.7156    0.372   0.1834     C
Cu     0.71889  0.66436  0.90769    Cu
O       0.7212   0.6748   0.1533     O
C        0.725   0.4625   0.2681     C
O       0.7307   0.1289   0.4685     O
O       0.7318    0.916    0.507     O
Cu     0.73614  0.87617  0.94109    Cu
C        0.742    0.943   0.6244     C
O       0.7421   0.2846   0.6228     O
Cu     0.74266  0.28744  0.93793    Cu
Cu     0.75117  0.28535  0.42562    Cu
O       0.7564   0.2956   0.2279     O
Cu     0.76772  0.78851  0.43235    Cu
C       0.7743   0.2105   0.6775     C
O       0.7779   0.4441   0.3948     O
C       0.7813   0.6324   0.2423     C
C       0.7816   0.1165   0.5975     C
O        0.789   0.8961   0.7154     O
O       0.7995   0.2036   0.7975     O
O       0.8029   0.6633   0.3559     O
C       0.8235   0.5316   0.2062     C
H        0.825   0.5211   0.1089     H
O       0.8456   0.7688   0.8868     O
O       0.8543   0.5745   0.8638     O
H       0.8754   0.0931   0.5931     H
Cu     0.87659  0.77034  0.70064    Cu
O       0.8784   0.3801   0.9183     O
Cl     0.89243  0.96782     0.03    Cl
C       0.9192   0.4597   0.3971     C
H        0.929    0.768    0.932     H
O        0.932   0.7839   0.5238     O
O       0.9403   0.2932   0.4398     O
H       0.9406   0.5071   0.4691     H
C       0.9427   0.5816   0.7784     C
O       0.9541   0.6447    0.696     O
C       0.9559   0.5019   0.2649     C
H        0.977    0.839    0.495     H
H       0.9947   0.4504   0.2071     H
C       0.9983   0.3692   0.4191     C
