data_I
_chemical_name_common  '/home/zhangsd/repos/MofS-CGCNN/ML/data/TSD/clean_cifs/TISGUY_clean'
_cell_length_a  9.95620
_cell_length_b 14.89040
_cell_length_c 28.22600
_cell_angle_alpha 90.00000
_cell_angle_beta  90.00000
_cell_angle_gamma 106.30600
_space_group_name_H-M_alt      'P 1'


loop_
_space_group_symop_operation_xyz
  'x, y, z' 

loop_
_atom_site_label
_atom_site_fract_x
_atom_site_fract_y
_atom_site_fract_z
_atom_site_type_symbol
C        0.006   0.0062  0.82664     C
H       0.0077   0.8839   0.2627     H
H       0.0183   0.9927   0.3424     H
C       0.0308   0.1484  0.64657     C
C       0.0346   0.5574  0.21114     C
H        0.036    0.071   0.8192     H
C       0.0376   0.5786   0.7249     C
O       0.0416     0.31  0.11175     O
C       0.0423   0.0577   0.6407     C
C       0.0428    0.198   0.2799     C
C       0.0437   0.0826  0.47897     C
C       0.0547   0.0304  0.95826     C
C        0.056   0.8674  0.85155     C
H       0.0566   0.6062   0.1883     H
H       0.0628   0.6291    0.703     H
C       0.0642   0.4233  0.24208     C
C       0.0654   0.4437  0.75523     C
C       0.0673   0.2671  0.35703     C
C       0.0688   0.8491   0.2733     C
N       0.0693   0.9313  0.49386     N
C       0.0735   0.0358  0.03838     C
C       0.0744   0.8298  0.32146     C
C        0.077   0.7672  0.63586     C
O       0.0779    0.358  0.59277     O
H       0.0784   0.1412   0.4634     H
H       0.0834   0.1855    0.251     H
C       0.0851   0.1835  0.15164     C
H       0.0911   0.0507   0.9278     H
C       0.0982   0.8343  0.71386     C
N        0.102   0.4912  0.20984     N
N       0.1022   0.5114  0.72268     N
C       0.1024   0.9614   0.8408     C
H       0.1091   0.3748   0.2422     H
H       0.1098    0.395   0.7551     H
C       0.1124   0.0147  0.47261     C
C       0.1163   0.2865  0.14231     C
O       0.1188   0.6739  0.57228     O
H       0.1222   0.8361   0.8615     H
H       0.1233   0.0598   0.0665     H
H       0.1246   0.3032   0.3811     H
C       0.1268   0.3221  0.62722     C
C       0.1276   0.2487   0.3151     C
C       0.1278   0.2216  0.62276     C
N       0.1288   0.0666  0.99631     N
C       0.1291   0.7533  0.58696     C
C       0.1349   0.0421  0.17685     C
C       0.1429   0.0411     0.61     C
H        0.144   0.8334   0.2079     H
H       0.1481    0.979   0.6051     H
C       0.1498   0.8192  0.24052     C
H       0.1544   0.8682   0.7387     H
C       0.1627   0.8187  0.67165     C
O        0.169   0.8263  0.56275     O
C       0.1737   0.7865  0.33691     C
O       0.1753   0.3666  0.66377     O
H       0.1806   0.2772   0.8135     H
Ni     0.18217  0.82913   0.4904    Ni
C       0.1829   0.1376  0.16615     C
O       0.1848   0.8345  0.41746     O
H       0.1923   0.0277   0.4526     H
H       0.1981   0.8983   0.0665     H
H       0.1989   0.9944    0.843     H
H       0.1998   0.0098   0.1867     H
C       0.2072   0.7759  0.38868     C
O       0.2079   0.3429  0.16728     O
H       0.2091   0.7471   0.0764     H
H       0.2104   0.2562   0.7327     H
H        0.226   0.2707   0.3107     H
C       0.2271   0.2032   0.5928     C
C       0.2332   0.1137    0.587     C
Ni     0.23384  0.51089  0.66437    Ni
O       0.2368   0.2867  0.89902     O
C        0.239   0.7686   0.2552     C
C       0.2459   0.2455  0.80322     C
C       0.2541   0.7545  0.30322     C
C        0.261   0.2314   0.7552     C
O       0.2632   0.7133  0.39902     O
Ni     0.26616  0.48911  0.16437    Ni
C       0.2668   0.8863    0.087     C
C       0.2729   0.7968   0.0928     C
H        0.274   0.7293   0.8107     H
H       0.2896   0.7438   0.2327     H
H       0.2909   0.2529   0.5764     H
O       0.2921   0.6571  0.66728     O
C       0.2928   0.2241  0.88868     C
H       0.3002   0.9902   0.6867     H
H       0.3011   0.0056    0.343     H
H       0.3019   0.1017   0.5665     H
H       0.3077   0.9723   0.9526     H
O       0.3152   0.1655  0.91746     O
C       0.3171   0.8624  0.66615     C
Ni     0.31783  0.17087   0.9904    Ni
H       0.3194   0.7228   0.3135     H
O       0.3247   0.6334  0.16377     O
C       0.3263   0.2135  0.83691     C
O        0.331   0.1737  0.06275     O
C       0.3373   0.1813  0.17165     C
H       0.3456   0.1318   0.2387     H
C       0.3502   0.1808  0.74052     C
H       0.3519    0.021   0.1051     H
H        0.356   0.1666   0.7079     H
C       0.3571   0.9589     0.11     C
C       0.3651   0.9579  0.67685     C
C       0.3709   0.2467  0.08696     C
N       0.3712   0.9334  0.49631     N
C       0.3722   0.7784  0.12276     C
C       0.3724   0.7513   0.8151     C
C       0.3732   0.6779  0.12722     C
H       0.3754   0.6968   0.8811     H
H       0.3767   0.9402   0.5665     H
H       0.3778   0.1639   0.3615     H
O       0.3812   0.3261  0.07228     O
C       0.3837   0.7135  0.64231     C
C       0.3876   0.9853  0.97261     C
H       0.3902    0.605   0.2551     H
H       0.3909   0.6252   0.7422     H
C       0.3976   0.0386   0.3408     C
N       0.3978   0.4886  0.22268     N
N        0.398   0.5088  0.70984     N
C       0.4018   0.1657  0.21386     C
H       0.4089   0.9493   0.4278     H
C       0.4149   0.8165  0.65164     C
H       0.4166   0.8145    0.751     H
H       0.4216   0.8588   0.9634     H
O       0.4221    0.642  0.09277     O
C        0.423   0.2328  0.13586     C
C       0.4256   0.1702  0.82146     C
C       0.4265   0.9642  0.53838     C
N       0.4307   0.0687  0.99386     N
C       0.4312   0.1509   0.7733     C
C       0.4327   0.7329  0.85703     C
C       0.4346   0.5563  0.25523     C
C       0.4358   0.5767  0.74208     C
H       0.4372   0.3709    0.203     H
H       0.4434   0.3938   0.6883     H
C        0.444   0.1326  0.35155     C
C       0.4453   0.9696  0.45826     C
C       0.4563   0.9174  0.97897     C
C       0.4572    0.802   0.7799     C
C       0.4577   0.9423   0.1407     C
O       0.4584     0.69  0.61175     O
C       0.4624   0.4214   0.2249     C
H        0.464    0.929   0.3192     H
C       0.4654   0.4426  0.71114     C
C       0.4692   0.8516  0.14657     C
H       0.4817   0.0073   0.8424     H
H       0.4923   0.1161   0.7627     H
C        0.494   0.9938  0.32664     C
C        0.506   0.0062  0.67336     C
H       0.5077   0.8839   0.2373     H
H       0.5183   0.9927   0.1576     H
C       0.5308   0.1484  0.85343     C
C       0.5346   0.5574  0.28886     C
H        0.536    0.071   0.6808     H
C       0.5376   0.5786   0.7751     C
O       0.5416     0.31  0.38825     O
C       0.5423   0.0577   0.8593     C
C       0.5428    0.198   0.2201     C
C       0.5437   0.0826  0.02103     C
C       0.5547   0.0304  0.54174     C
C        0.556   0.8674  0.64845     C
H       0.5566   0.6062   0.3117     H
H       0.5628   0.6291    0.797     H
C       0.5642   0.4233  0.25792     C
C       0.5654   0.4437  0.74477     C
C       0.5673   0.2671  0.14297     C
C       0.5688   0.8491   0.2267     C
N       0.5693   0.9313  0.00614     N
C       0.5735   0.0358  0.46162     C
C       0.5744   0.8298  0.17854     C
C        0.577   0.7672  0.86414     C
O       0.5779    0.358  0.90723     O
H       0.5784   0.1412   0.0366     H
H       0.5834   0.1855    0.249     H
C       0.5851   0.1835  0.34836     C
H       0.5911   0.0507   0.5722     H
C       0.5982   0.8343  0.78614     C
N        0.602   0.4912  0.29016     N
N       0.6022   0.5114  0.77732     N
C       0.6024   0.9614   0.6592     C
H       0.6091   0.3748   0.2578     H
H       0.6098    0.395   0.7449     H
C       0.6124   0.0147  0.02739     C
C       0.6163   0.2865  0.35769     C
O       0.6188   0.6739  0.92772     O
H       0.6222   0.8361   0.6385     H
H       0.6233   0.0598   0.4335     H
H       0.6246   0.3032   0.1189     H
C       0.6268   0.3221  0.87278     C
C       0.6276   0.2487   0.1849     C
C       0.6278   0.2216  0.87724     C
N       0.6288   0.0666  0.50369     N
C       0.6291   0.7533  0.91304     C
C       0.6349   0.0421  0.32315     C
C       0.6429   0.0411     0.89     C
H        0.644   0.8334   0.2921     H
H       0.6481    0.979   0.8949     H
C       0.6498   0.8192  0.25948     C
H       0.6544   0.8682   0.7613     H
C       0.6627   0.8187  0.82835     C
O        0.669   0.8263  0.93725     O
C       0.6737   0.7865  0.16309     C
O       0.6753   0.3666  0.83623     O
H       0.6806   0.2772   0.6865     H
Ni     0.68217  0.82913   0.0096    Ni
C       0.6829   0.1376  0.33385     C
O       0.6848   0.8345  0.08254     O
H       0.6923   0.0277   0.0474     H
H       0.6981   0.8983   0.4335     H
H       0.6989   0.9944    0.657     H
H       0.6998   0.0098   0.3133     H
C       0.7072   0.7759  0.11132     C
O       0.7079   0.3429  0.33272     O
H       0.7091   0.7471   0.4236     H
H       0.7104   0.2562   0.7673     H
H        0.726   0.2707   0.1893     H
C       0.7271   0.2032   0.9072     C
C       0.7332   0.1137    0.913     C
Ni     0.73384  0.51089  0.83563    Ni
O       0.7368   0.2867  0.60098     O
C        0.739   0.7686   0.2448     C
C       0.7459   0.2455  0.69678     C
C       0.7541   0.7545  0.19678     C
C        0.761   0.2314   0.7448     C
O       0.7632   0.7133  0.10098     O
Ni     0.76616  0.48911  0.33563    Ni
C       0.7668   0.8863    0.413     C
C       0.7729   0.7968   0.4072     C
H        0.774   0.7293   0.6893     H
H       0.7896   0.7438   0.2673     H
H       0.7909   0.2529   0.9236     H
O       0.7921   0.6571  0.83272     O
C       0.7928   0.2241  0.61132     C
H       0.8002   0.9902   0.8133     H
H       0.8011   0.0056    0.157     H
H       0.8019   0.1017   0.9335     H
H       0.8077   0.9723   0.5474     H
O       0.8152   0.1655  0.58254     O
C       0.8171   0.8624  0.83385     C
Ni     0.81783  0.17087   0.5096    Ni
H       0.8194   0.7228   0.1865     H
O       0.8247   0.6334  0.33623     O
C       0.8263   0.2135  0.66309     C
O        0.831   0.1737  0.43725     O
C       0.8373   0.1813  0.32835     C
H       0.8456   0.1318   0.2613     H
C       0.8502   0.1808  0.75948     C
H       0.8519    0.021   0.3949     H
H        0.856   0.1666   0.7921     H
C       0.8571   0.9589     0.39     C
C       0.8651   0.9579  0.82315     C
C       0.8709   0.2467  0.41304     C
N       0.8712   0.9334  0.00369     N
C       0.8722   0.7784  0.37724     C
C       0.8724   0.7513   0.6849     C
C       0.8732   0.6779  0.37278     C
H       0.8754   0.6968   0.6189     H
H       0.8767   0.9402   0.9335     H
H       0.8778   0.1639   0.1385     H
O       0.8812   0.3261  0.42772     O
C       0.8837   0.7135  0.85769     C
C       0.8876   0.9853  0.52739     C
H       0.8902    0.605   0.2449     H
H       0.8909   0.6252   0.7578     H
C       0.8976   0.0386   0.1592     C
N       0.8978   0.4886  0.27732     N
N        0.898   0.5088  0.79016     N
C       0.9018   0.1657  0.28614     C
H       0.9089   0.9493   0.0722     H
C       0.9149   0.8165  0.84836     C
H       0.9166   0.8145    0.749     H
H       0.9216   0.8588   0.5366     H
O       0.9221    0.642  0.40723     O
C        0.923   0.2328  0.36414     C
C       0.9256   0.1702  0.67854     C
C       0.9265   0.9642  0.96162     C
N       0.9307   0.0687  0.50614     N
C       0.9312   0.1509   0.7267     C
C       0.9327   0.7329  0.64297     C
C       0.9346   0.5563  0.24477     C
C       0.9358   0.5767  0.75792     C
H       0.9372   0.3709    0.297     H
H       0.9434   0.3938   0.8117     H
C        0.944   0.1326  0.14845     C
C       0.9453   0.9696  0.04174     C
C       0.9563   0.9174  0.52103     C
C       0.9572    0.802   0.7201     C
C       0.9577   0.9423   0.3593     C
O       0.9584     0.69  0.88825     O
C       0.9624   0.4214   0.2751     C
H        0.964    0.929   0.1808     H
C       0.9654   0.4426  0.78886     C
C       0.9692   0.8516  0.35343     C
H       0.9817   0.0073   0.6576     H
H       0.9923   0.1161   0.7373     H
C        0.994   0.9938  0.17336     C
