data_I
_chemical_name_common  '/home/zhangsd/repos/MofS-CGCNN/ML/data/TSD/clean_cifs/TISKOW_clean'
_cell_length_a 14.20360
_cell_length_b 14.46010
_cell_length_c 18.07240
_cell_angle_alpha 69.23460
_cell_angle_beta  66.86090
_cell_angle_gamma 60.58510
_space_group_name_H-M_alt      'P 1'


loop_
_space_group_symop_operation_xyz
  'x, y, z' 

loop_
_atom_site_label
_atom_site_fract_x
_atom_site_fract_y
_atom_site_fract_z
_atom_site_type_symbol
Zn     0.00655  0.29572   0.0765    Zn
O       0.0334   0.5394   0.8284     O
O       0.0411    0.763   0.8012     O
C       0.0553   0.0366   0.3286     C
C       0.0618   0.4292   0.1224     C
C       0.0627   0.9457   0.6565     C
O      0.07345   0.6156   0.0077     O
O       0.0765   0.0588   0.3822     O
C       0.0767   0.8257   0.8009     C
H       0.0773   0.0343   0.5407     H
O         0.08   0.8355   0.8649     O
O      0.08831  0.37998    0.068     O
C       0.1134    0.998   0.5824     C
H       0.1168   0.0969   0.9779     H
C       0.1189   0.8894   0.7192     C
O       0.1275   0.9975   0.2705     O
H       0.1278   0.8369   0.4923     H
H       0.1474   0.3474   0.2452     H
N       0.1479   0.1752    0.031     N
C       0.1556   0.4402    0.132     C
C       0.1707   0.1026    0.991     C
C       0.1772   0.5641   0.9949     C
C       0.1867   0.3868   0.2046     C
Zn     0.18983  0.58403  0.59473    Zn
H       0.1916   0.4031   0.5221     H
C       0.2049   0.7966   0.4768     C
H       0.2127   0.5639   0.7775     H
C       0.2166   0.4965   0.0699     C
C        0.217   0.9965   0.5699     C
O       0.2196   0.3355   0.3649     O
C       0.2219   0.8868   0.7046     C
Zn     0.24192  0.99184  0.36492    Zn
O      0.24463  0.57154   0.9252     O
C       0.2478   0.1532   0.0368     C
N        0.255   0.6923   0.5059     N
O      0.25863  0.07154   0.4252     O
H        0.259   0.1911   0.0625     H
H         0.26   0.8474   0.7452     H
C       0.2638   0.0641   0.4949     C
C       0.2643   0.3974    0.509     C
C       0.2722   0.9402    0.632     C
C       0.2725   0.3894   0.2192     C
N       0.2785   0.8381   0.4219     N
N      0.27861  0.03918   0.9718     N
C       0.2831   0.5427   0.7403     C
N      0.28959  0.46082   0.5282     N
C       0.2967   0.3257   0.3009     C
N      0.30041  0.54058   0.6634     N
O      0.30325   0.1156   0.5077     O
C       0.3062    0.498   0.0824     C
H        0.324   0.9617   0.1805     H
N      0.32867  0.07196   0.0021     N
C       0.3351   0.4457   0.1565     C
H       0.3477   0.5343   0.0407     H
N        0.352   0.0103   0.2585     N
N       0.3541   0.3248    0.469     N
C        0.368   0.9873   0.1875     C
Zn     0.36859  0.91597  0.90527    Zn
N       0.3687   0.6624   0.4682     N
C       0.3779    0.751   0.4194     C
Zn     0.37877  0.20428   0.4235    Zn
N       0.3792   0.5103   0.7585     N
C       0.3866   0.9292   0.6224     C
O       0.3947    0.263   0.3012     O
O       0.3955   0.5025   0.2295     O
O       0.4012   0.9606   0.6716     O
Zn     0.40132  0.49184  0.86492    Zn
N      0.40273  0.42804   0.4979     N
H       0.4139   0.2538   0.8862     H
N       0.4141   0.5047   0.6293     N
C       0.4205   0.4634   0.1714     C
C       0.4339   0.0427   0.2403     C
C       0.4378   0.3468   0.4632     C
H       0.4459   0.0639   0.2775     H
H       0.4461   0.7538   0.3862     H
C       0.4517    0.251   0.9194     C
N       0.4519   0.0047   0.1293     N
N       0.4532   0.8077   0.9941     N
H        0.457   0.6631   0.0077     H
C       0.4572   0.4873   0.6875     C
N       0.4615   0.3381   0.9219     N
O      0.46371  0.87998    0.568     O
H       0.4662   0.5383   0.3195     H
C       0.4783   0.7034   0.0232     C
O       0.4825   0.5588   0.8822     O
H       0.4874   0.6911   0.5625     H
N      0.49561  0.04058   0.1634     N
N       0.4993   0.8376   0.0318     N
Zn         0.5      0.5      0.5    Zn
Zn         0.5      1.0      0.0    Zn
N       0.5007   0.1624   0.9682     N
N      0.50439  0.95942   0.8366     N
H       0.5126   0.3089   0.4375     H
O       0.5175   0.4412   0.1178     O
C       0.5217   0.2966   0.9768     C
H       0.5338   0.4617   0.6805     H
O      0.53629  0.12002    0.432     O
N       0.5385   0.6619   0.0781     N
C       0.5428   0.5127   0.3125     C
H        0.543   0.3369   0.9923     H
N       0.5468   0.1923   0.0059     N
N       0.5481   0.9953   0.8707     N
C       0.5483    0.749   0.0806     C
H       0.5539   0.2462   0.6138     H
H       0.5541   0.9361   0.7225     H
C       0.5622   0.6532   0.5368     C
C       0.5661   0.9573   0.7597     C
C       0.5795   0.5366   0.8286     C
N       0.5859   0.4953   0.3707     N
H       0.5861   0.7462   0.1138     H
N      0.59727  0.57196   0.5021     N
Zn     0.59868  0.50816  0.13508    Zn
O       0.5988   0.0394   0.3284     O
O       0.6045   0.4975   0.7705     O
O       0.6053    0.737   0.6988     O
C       0.6134   0.0708   0.3776     C
N       0.6208   0.4897   0.2415     N
Zn     0.62123  0.79572   0.5765    Zn
C       0.6221    0.249   0.5806     C
N       0.6313   0.3376   0.5318     N
Zn     0.63141  0.08403  0.09473    Zn
C        0.632   0.0127   0.8125     C
N       0.6459   0.6752    0.531     N
N        0.648   0.9897   0.7415     N
H       0.6523   0.4657   0.9593     H
C       0.6649   0.5543   0.8435     C
N      0.67133  0.92804   0.9979     N
H        0.676   0.0383   0.8195     H
C       0.6938    0.502   0.9176     C
O      0.69675   0.8844   0.4923     O
N      0.69959  0.45942   0.3366     N
C       0.7033   0.6743   0.6991     C
N      0.71041  0.53918   0.4718     N
C       0.7169   0.4573   0.2597     C
N      0.72139  0.96082   0.0282     N
N       0.7215   0.1619   0.5781     N
C       0.7275   0.6106   0.7808     C
C       0.7278   0.0598    0.368     C
C       0.7357   0.6026    0.491     C
C       0.7362   0.9359   0.5051     C
H         0.74   0.1526   0.2548     H
H        0.741   0.8089   0.9375     H
O      0.74137  0.92846   0.5748     O
N        0.745   0.3077   0.4941     N
C       0.7522   0.8468   0.9632     C
O      0.75537  0.42846   0.0748     O
Zn     0.75808  0.00816  0.63508    Zn
C       0.7781   0.1132   0.2954     C
O       0.7804   0.6645   0.6351     O
C        0.783   0.0035   0.4301     C
C       0.7834   0.5035   0.9301     C
H       0.7873   0.4361   0.2225     H
C       0.7951   0.2034   0.5232     C
H       0.8084   0.5969   0.4779     H
Zn     0.81017  0.41597  0.40527    Zn
C       0.8133   0.6132   0.7954     C
C       0.8228   0.4359   0.0051     C
C       0.8293   0.8974    0.009     C
C       0.8444   0.5598    0.868     C
N       0.8521   0.8248    0.969     N
H       0.8526   0.6526   0.7548     H
H       0.8722   0.1631   0.5077     H
O       0.8725   0.0025   0.7295     O
C       0.8811   0.1106   0.2808     C
H       0.8832   0.9031   0.0221     H
C       0.8866    0.002   0.4176     C
O      0.91169  0.62002    0.932     O
O         0.92   0.1645   0.1351     O
H       0.9227   0.9657   0.4593     H
C       0.9233   0.1743   0.1991     C
O       0.9235   0.9412   0.6178     O
O      0.92655   0.3844   0.9923     O
C       0.9373   0.0543   0.3435     C
C       0.9382   0.5708   0.8776     C
C       0.9447   0.9634   0.6714     C
O       0.9589    0.237   0.1988     O
O       0.9666   0.4606   0.1716     O
Zn     0.99345  0.70428   0.9235    Zn
