data_I
_chemical_name_common  '/home/zhangsd/repos/MofS-CGCNN/ML/data/TSD/clean_cifs/TISLIR_clean'
_cell_length_a  8.51730
_cell_length_b  9.76150
_cell_length_c 22.40550
_cell_angle_alpha 90.00000
_cell_angle_beta  90.00000
_cell_angle_gamma 92.28500
_space_group_name_H-M_alt      'P 1'


loop_
_space_group_symop_operation_xyz
  'x, y, z' 

loop_
_atom_site_label
_atom_site_fract_x
_atom_site_fract_y
_atom_site_fract_z
_atom_site_type_symbol
Cd         0.0      0.0      0.0    Cd
Cd         0.0      0.5      0.5    Cd
H       0.0727   0.1845   0.5661     H
H       0.0727   0.6845   0.9339     H
H       0.1267   0.1649   0.3642     H
H       0.1267   0.6649   0.1358     H
O       0.1542   0.4153  0.13159     O
O       0.1542   0.9153  0.36841     O
N       0.1566   0.1869  0.96799     N
N       0.1566   0.6869  0.53201     N
Cl     0.15904  0.00857   0.1078    Cl
Cl     0.15904  0.50857   0.3922    Cl
C       0.1673   0.2351   0.5635     C
C       0.1673   0.7351   0.9365     C
C       0.1693   0.2455   0.9148     C
C       0.1693   0.7455   0.5852     C
N       0.1816    0.358  0.53771     N
N       0.1816    0.858  0.96229     N
C       0.2325   0.1521   0.3773     C
C       0.2325   0.6521   0.1227     C
H       0.2477   0.1924    0.416     H
H       0.2477   0.6924    0.084     H
N       0.2558   0.2611  0.00445     N
N       0.2558   0.7611  0.49555     N
C       0.2611   0.0017   0.3805     C
C       0.2611   0.5017   0.1195     C
N       0.2711   0.3526  0.91399     N
N       0.2711   0.8526  0.58601     N
N       0.3017   0.1926  0.58494     N
N       0.3017   0.6926  0.91506     N
H       0.3046   0.1951   0.3495     H
H       0.3046   0.6951   0.1505     H
H       0.3099   0.1976   0.7836     H
H       0.3099   0.6976   0.7164     H
C       0.3213   0.3588   0.9703     C
C       0.3213   0.8588   0.5297     C
Cd     0.32982  0.22573  0.10207    Cd
Cd     0.32982  0.72573  0.39793    Cd
C       0.3346   0.3904   0.5438     C
C       0.3346   0.8904   0.9562     C
Cd      0.3575  0.01774  0.65218    Cd
Cd      0.3575  0.51774  0.84782    Cd
H       0.3817    0.472     0.53     H
H       0.3817    0.972     0.97     H
H       0.3819    0.026   0.2327     H
H       0.3819    0.526   0.2673     H
C       0.3885   0.2445   0.7621     C
C       0.3885   0.7445   0.7379     C
O       0.3954   0.4647  0.10311     O
O       0.3954   0.9647  0.39689     O
N       0.4124   0.2937  0.57165     N
N       0.4124   0.7937  0.92835     N
N        0.434   0.2072   0.1965     N
N        0.434   0.7072   0.3035     N
C       0.4443   0.1062  0.23462     C
C       0.4443   0.6062  0.26538     C
N       0.4462     0.37  0.77676     N
N       0.4462     0.87  0.72324     N
N       0.4551   0.1946  0.71392     N
N       0.4551   0.6946  0.78608     N
N       0.5449   0.3054  0.21392     N
N       0.5449   0.8054  0.28608     N
N       0.5538     0.13  0.27676     N
N       0.5538     0.63  0.22324     N
C       0.5557   0.3938  0.73462     C
C       0.5557   0.8938  0.76538     C
N        0.566   0.2928   0.6965     N
N        0.566   0.7928   0.8035     N
N       0.5876   0.2063  0.07165     N
N       0.5876   0.7063  0.42835     N
O       0.6046   0.0353  0.60311     O
O       0.6046   0.5353  0.89689     O
C       0.6115   0.2555   0.2621     C
C       0.6115   0.7555   0.2379     C
H       0.6181    0.474   0.7327     H
H       0.6181    0.974   0.7673     H
H       0.6183    0.028     0.03     H
H       0.6183    0.528     0.47     H
Cd      0.6425  0.48226  0.15218    Cd
Cd      0.6425  0.98226  0.34782    Cd
C       0.6654   0.1096   0.0438     C
C       0.6654   0.6096   0.4562     C
Cd     0.67018  0.27427  0.60207    Cd
Cd     0.67018  0.77427  0.89793    Cd
C       0.6787   0.1412   0.4703     C
C       0.6787   0.6412   0.0297     C
H       0.6901   0.3024   0.2836     H
H       0.6901   0.8024   0.2164     H
H       0.6954   0.3049   0.8495     H
H       0.6954   0.8049   0.6505     H
N       0.6983   0.3074  0.08494     N
N       0.6983   0.8074  0.41506     N
N       0.7289   0.1474  0.41399     N
N       0.7289   0.6474  0.08601     N
C       0.7389   0.4983   0.8805     C
C       0.7389   0.9983   0.6195     C
N       0.7442   0.2389  0.50445     N
N       0.7442   0.7389  0.99555     N
H       0.7523   0.3076    0.916     H
H       0.7523   0.8076    0.584     H
C       0.7675   0.3479   0.8773     C
C       0.7675   0.8479   0.6227     C
N       0.8184    0.142  0.03771     N
N       0.8184    0.642  0.46229     N
C       0.8307   0.2545   0.4148     C
C       0.8307   0.7545   0.0852     C
C       0.8327   0.2649   0.0635     C
C       0.8327   0.7649   0.4365     C
Cl     0.84096  0.49143   0.6078    Cl
Cl     0.84096  0.99143   0.8922    Cl
N       0.8434   0.3131  0.46799     N
N       0.8434   0.8131  0.03201     N
O       0.8458   0.0847  0.63159     O
O       0.8458   0.5847  0.86841     O
H       0.8733   0.3351   0.8642     H
H       0.8733   0.8351   0.6358     H
H       0.9273   0.3155   0.0661     H
H       0.9273   0.8155   0.4339     H
