data_I
_chemical_name_common  '/home/zhangsd/repos/MofS-CGCNN/ML/data/TSD/clean_cifs/TISPAO_clean'
_cell_length_a 18.64340
_cell_length_b 18.64340
_cell_length_c 18.64340
_cell_angle_alpha 60.00000
_cell_angle_beta  60.00000
_cell_angle_gamma 60.00000
_space_group_name_H-M_alt      'P 1'


loop_
_space_group_symop_operation_xyz
  'x, y, z' 

loop_
_atom_site_label
_atom_site_fract_x
_atom_site_fract_y
_atom_site_fract_z
_atom_site_type_symbol
S          0.0      0.0   0.3082     S
Cu         0.0      0.0  0.43018    Cu
Cu         0.0      0.0  0.56982    Cu
S          0.0      0.0   0.6918     S
S          0.0   0.3082      0.0     S
S          0.0   0.3082   0.6918     S
Cu         0.0  0.43018      0.0    Cu
Cu         0.0  0.43018  0.56982    Cu
Cu         0.0  0.56982      0.0    Cu
Cu         0.0  0.56982  0.43018    Cu
S          0.0   0.6918      0.0     S
S          0.0   0.6918   0.3082     S
O       0.0207  0.49222  0.61288     O
O       0.0207  0.49222   0.8742     O
O       0.0207  0.61288  0.49222     O
O       0.0207  0.61288   0.8742     O
O       0.0207   0.8742  0.49222     O
O       0.0207   0.8742  0.61288     O
C       0.0226   0.5692   0.5692     C
C       0.0226   0.5692    0.839     C
C       0.0226    0.839   0.5692     C
H       0.0262   0.5142   0.7298     H
H       0.0262   0.7298   0.5142     H
H       0.0262   0.7298   0.7298     H
C        0.028   0.5712   0.7004     C
C        0.028   0.7004   0.5712     C
C        0.028   0.7004   0.7004     C
C       0.0291   0.6141   0.6141     C
C       0.0291   0.6141   0.7427     C
C       0.0291   0.7427   0.6141     C
O       0.1258  0.38712  0.50778     O
O       0.1258  0.38712   0.9793     O
O       0.1258  0.50778  0.38712     O
O       0.1258  0.50778   0.9793     O
O       0.1258   0.9793  0.38712     O
O       0.1258   0.9793  0.50778     O
C        0.161   0.4308   0.4308     C
C        0.161   0.4308   0.9774     C
C        0.161   0.9774   0.4308     C
C       0.2573   0.3859   0.3859     C
C       0.2573   0.3859   0.9709     C
C       0.2573   0.9709   0.3859     C
H       0.2702   0.2702   0.4858     H
H       0.2702   0.2702   0.9738     H
H       0.2702   0.4858   0.2702     H
H       0.2702   0.4858   0.9738     H
H       0.2702   0.9738   0.2702     H
H       0.2702   0.9738   0.4858     H
C       0.2996   0.2996   0.4288     C
C       0.2996   0.2996    0.972     C
C       0.2996   0.4288   0.2996     C
C       0.2996   0.4288    0.972     C
C       0.2996    0.972   0.2996     C
C       0.2996    0.972   0.4288     C
S       0.3082      0.0      0.0     S
S       0.3082      0.0   0.6918     S
S       0.3082   0.6918      0.0     S
C       0.3859   0.2573   0.3859     C
C       0.3859   0.2573   0.9709     C
C       0.3859   0.3859   0.2573     C
C       0.3859   0.3859   0.9709     C
C       0.3859   0.9709   0.2573     C
C       0.3859   0.9709   0.3859     C
O      0.38712   0.1258  0.50778     O
O      0.38712   0.1258   0.9793     O
O      0.38712  0.50778   0.1258     O
O      0.38712  0.50778   0.9793     O
O      0.38712   0.9793   0.1258     O
O      0.38712   0.9793  0.50778     O
C       0.4288   0.2996   0.2996     C
C       0.4288   0.2996    0.972     C
C       0.4288    0.972   0.2996     C
Cu     0.43018     -0.0      0.0    Cu
Cu     0.43018     -0.0  0.56982    Cu
Cu     0.43018  0.56982      0.0    Cu
C       0.4308    0.161   0.4308     C
C       0.4308    0.161   0.9774     C
C       0.4308   0.4308    0.161     C
C       0.4308   0.4308   0.9774     C
C       0.4308   0.9774    0.161     C
C       0.4308   0.9774   0.4308     C
H       0.4858   0.2702   0.2702     H
H       0.4858   0.2702   0.9738     H
H       0.4858   0.9738   0.2702     H
O      0.49222   0.0207  0.61288     O
O      0.49222   0.0207   0.8742     O
O      0.49222  0.61288   0.0207     O
O      0.49222  0.61288   0.8742     O
O      0.49222   0.8742   0.0207     O
O      0.49222   0.8742  0.61288     O
O      0.50778   0.1258  0.38712     O
O      0.50778   0.1258   0.9793     O
O      0.50778  0.38712   0.1258     O
O      0.50778  0.38712   0.9793     O
O      0.50778   0.9793   0.1258     O
O      0.50778   0.9793  0.38712     O
H       0.5142   0.0262   0.7298     H
H       0.5142   0.7298   0.0262     H
H       0.5142   0.7298   0.7298     H
C       0.5692   0.0226   0.5692     C
C       0.5692   0.0226    0.839     C
C       0.5692   0.5692   0.0226     C
C       0.5692   0.5692    0.839     C
C       0.5692    0.839   0.0226     C
C       0.5692    0.839   0.5692     C
Cu     0.56982      0.0      0.0    Cu
Cu     0.56982      0.0  0.43018    Cu
Cu     0.56982  0.43018      0.0    Cu
C       0.5712    0.028   0.7004     C
C       0.5712   0.7004    0.028     C
C       0.5712   0.7004   0.7004     C
O      0.61288   0.0207  0.49222     O
O      0.61288   0.0207   0.8742     O
O      0.61288  0.49222   0.0207     O
O      0.61288  0.49222   0.8742     O
O      0.61288   0.8742   0.0207     O
O      0.61288   0.8742  0.49222     O
C       0.6141   0.0291   0.6141     C
C       0.6141   0.0291   0.7427     C
C       0.6141   0.6141   0.0291     C
C       0.6141   0.6141   0.7427     C
C       0.6141   0.7427   0.0291     C
C       0.6141   0.7427   0.6141     C
S       0.6918      0.0      0.0     S
S       0.6918      0.0   0.3082     S
S       0.6918   0.3082      0.0     S
C       0.7004    0.028   0.5712     C
C       0.7004    0.028   0.7004     C
C       0.7004   0.5712    0.028     C
C       0.7004   0.5712   0.7004     C
C       0.7004   0.7004    0.028     C
C       0.7004   0.7004   0.5712     C
H       0.7298   0.0262   0.5142     H
H       0.7298   0.0262   0.7298     H
H       0.7298   0.5142   0.0262     H
H       0.7298   0.5142   0.7298     H
H       0.7298   0.7298   0.0262     H
H       0.7298   0.7298   0.5142     H
C       0.7427   0.0291   0.6141     C
C       0.7427   0.6141   0.0291     C
C       0.7427   0.6141   0.6141     C
C        0.839   0.0226   0.5692     C
C        0.839   0.5692   0.0226     C
C        0.839   0.5692   0.5692     C
O       0.8742   0.0207  0.49222     O
O       0.8742   0.0207  0.61288     O
O       0.8742  0.49222   0.0207     O
O       0.8742  0.49222  0.61288     O
O       0.8742  0.61288   0.0207     O
O       0.8742  0.61288  0.49222     O
C       0.9709   0.2573   0.3859     C
C       0.9709   0.3859   0.2573     C
C       0.9709   0.3859   0.3859     C
C        0.972   0.2996   0.2996     C
C        0.972   0.2996   0.4288     C
C        0.972   0.4288   0.2996     C
H       0.9738   0.2702   0.2702     H
H       0.9738   0.2702   0.4858     H
H       0.9738   0.4858   0.2702     H
C       0.9774    0.161   0.4308     C
C       0.9774   0.4308    0.161     C
C       0.9774   0.4308   0.4308     C
O       0.9793   0.1258  0.38712     O
O       0.9793   0.1258  0.50778     O
O       0.9793  0.38712   0.1258     O
O       0.9793  0.38712  0.50778     O
O       0.9793  0.50778   0.1258     O
O       0.9793  0.50778  0.38712     O
