data_I
_chemical_name_common  '/home/zhangsd/repos/MofS-CGCNN/ML/data/TSD/clean_cifs/TOBJUR_clean'
_cell_length_a  6.46330
_cell_length_b 17.07200
_cell_length_c 23.81600
_cell_angle_alpha 90.00000
_cell_angle_beta  90.60200
_cell_angle_gamma 90.00000
_space_group_name_H-M_alt      'P 1'


loop_
_space_group_symop_operation_xyz
  'x, y, z' 

loop_
_atom_site_label
_atom_site_fract_x
_atom_site_fract_y
_atom_site_fract_z
_atom_site_type_symbol
H       0.0128   0.0897   0.1523     H
H       0.0128   0.4103   0.6523     H
H       0.0271    0.667   0.2691     H
H       0.0271    0.833   0.7691     H
O       0.0565   0.6116   0.6539     O
O       0.0565   0.8884   0.1539     O
O       0.0631   0.5234   0.4401     O
O       0.0631   0.9766   0.9401     O
H       0.0684    0.709   0.7321     H
H       0.0684    0.791   0.2321     H
H       0.0906   0.5807   0.6293     H
H       0.0906   0.9193   0.1293     H
C       0.1127    0.615   0.3422     C
C       0.1127    0.885   0.8422     C
C       0.1366   0.6606   0.2944     C
C       0.1366   0.8394   0.7944     C
C       0.1966   0.7061   0.7148     C
C       0.1966   0.7939   0.2148     C
C       0.2216   0.6557   0.6692     C
C       0.2216   0.8443   0.1692     C
C       0.2349   0.5592   0.4313     C
C       0.2349   0.9408   0.9313     C
Eu     0.26189   0.0628  0.02277    Eu
Eu     0.26189   0.4372  0.52277    Eu
C       0.2717   0.6056   0.3825     C
C       0.2717   0.8944   0.8825     C
H       0.3003   0.2007   0.8558     H
H       0.3003   0.2993   0.3558     H
O       0.3156   0.5454   0.5854     O
O       0.3156   0.9546   0.0854     O
C       0.3265   0.6967   0.2847     C
C       0.3265   0.8033   0.7847     C
H       0.3485   0.2194   0.2796     H
H       0.3485   0.2806   0.7796     H
C       0.3562   0.7487   0.2348     C
C       0.3562   0.7513   0.7348     C
O       0.3733   0.1371   0.0931     O
O       0.3733   0.3629   0.5931     O
O       0.3759   0.5491   0.4692     O
O       0.3759   0.9509   0.9692     O
H       0.3876   0.2112   0.1842     H
H       0.3876   0.2888   0.6842     H
O       0.3989   0.1126   0.9372     O
O       0.3989   0.3874   0.4372     O
C       0.4121   0.6526    0.642     C
C       0.4121   0.8474    0.142     C
C       0.4276   0.2011    0.838     C
C       0.4276   0.2989    0.338     C
C       0.4464   0.6009   0.5935     C
C       0.4464   0.8991   0.0935     C
C       0.4567   0.2492   0.7923     C
C       0.4567   0.2508   0.2923     C
C       0.4677    0.643   0.3725     C
C       0.4677    0.857   0.8725     C
C       0.4863   0.6872   0.3231     C
C       0.4863   0.8128   0.8231     C
C       0.5137   0.1872   0.1769     C
C       0.5137   0.3128   0.6769     C
C       0.5323    0.143   0.1275     C
C       0.5323    0.357   0.6275     C
C       0.5433   0.7492   0.7077     C
C       0.5433   0.7508   0.2077     C
C       0.5536   0.1009   0.9065     C
C       0.5536   0.3991   0.4065     C
C       0.5724   0.7011    0.662     C
C       0.5724   0.7989    0.162     C
C       0.5879   0.1526    0.858     C
C       0.5879   0.3474    0.358     C
O       0.6011   0.6126   0.5628     O
O       0.6011   0.8874   0.0628     O
H       0.6124   0.7112   0.3158     H
H       0.6124   0.7888   0.8158     H
O       0.6241   0.0491   0.0308     O
O       0.6241   0.4509   0.5308     O
O       0.6267   0.6371   0.4069     O
O       0.6267   0.8629   0.9069     O
C       0.6438   0.2487   0.2652     C
C       0.6438   0.2513   0.7652     C
H       0.6515   0.7194   0.2204     H
H       0.6515   0.7806   0.7204     H
C       0.6735   0.1967   0.2153     C
C       0.6735   0.3033   0.7153     C
O       0.6844   0.0454   0.9146     O
O       0.6844   0.4546   0.4146     O
H       0.6997   0.7007   0.6442     H
H       0.6997   0.7993   0.1442     H
C       0.7283   0.1056   0.1175     C
C       0.7283   0.3944   0.6175     C
Eu     0.73811   0.5628  0.47723    Eu
Eu     0.73811   0.9372  0.97723    Eu
C       0.7651   0.0592   0.0687     C
C       0.7651   0.4408   0.5687     C
C       0.7784   0.1557   0.8308     C
C       0.7784   0.3443   0.3308     C
C       0.8034   0.2061   0.7852     C
C       0.8034   0.2939   0.2852     C
C       0.8634   0.1606   0.2056     C
C       0.8634   0.3394   0.7056     C
C       0.8873    0.115   0.1578     C
C       0.8873    0.385   0.6578     C
H       0.9094   0.0807   0.8707     H
H       0.9094   0.4193   0.3707     H
H       0.9316    0.209   0.7679     H
H       0.9316    0.291   0.2679     H
O       0.9369   0.0234   0.0599     O
O       0.9369   0.4766   0.5599     O
O       0.9435   0.1116   0.8461     O
O       0.9435   0.3884   0.3461     O
H       0.9729    0.167   0.2309     H
H       0.9729    0.333   0.7309     H
H       0.9872   0.5897   0.3477     H
H       0.9872   0.9103   0.8477     H
