data_I
_chemical_name_common  '/home/zhangsd/repos/MofS-CGCNN/ML/data/TSD/clean_cifs/TONMEQ_clean'
_cell_length_a 10.27240
_cell_length_b 13.31260
_cell_length_c 15.29490
_cell_angle_alpha 100.30700
_cell_angle_beta  107.57200
_cell_angle_gamma 100.41400
_space_group_name_H-M_alt      'P 1'


loop_
_space_group_symop_operation_xyz
  'x, y, z' 

loop_
_atom_site_label
_atom_site_fract_x
_atom_site_fract_y
_atom_site_fract_z
_atom_site_type_symbol
O       0.0055   0.2138   0.2842     O
H       0.0165   0.7971   0.2702     H
O       0.0204   0.0256   0.7474     O
O       0.0341   0.6106   0.2352     O
C       0.0365   0.9974   0.3374     C
H       0.0539   0.1461   0.3662     H
C       0.0554   0.8135   0.3359     C
O       0.0598   0.3726   0.2589     O
O       0.0734   0.0923   0.3917     O
C       0.0746   0.9153   0.3885     C
C       0.0762   0.6302   0.3208     C
Ba     0.08678  0.92475  0.89034    Ba
C       0.0928    0.298   0.2919     C
C       0.0939   0.7365   0.3811     C
H       0.1104   0.5103   0.3264     H
O       0.1113   0.5614    0.369     O
H        0.132    0.174    0.936     H
C       0.1356     0.94   0.4868     C
H       0.1505    0.008   0.5225     H
C       0.1512   0.7602   0.4788     C
O       0.1737   0.1402   0.9715     O
C       0.1741   0.8618   0.5308     C
H       0.1742    0.708   0.5093     H
O       0.1746   0.2059   0.1516     O
O        0.178   0.9672    0.083     O
H        0.179    0.171   0.0265     H
O       0.1859   0.3604   0.4801     O
H       0.2077   0.5323   0.5909     H
C       0.2227    0.382   0.5784     C
H       0.2247   0.9824   0.2495     H
C       0.2278   0.4821   0.6246     C
H       0.2408   0.2377   0.5931     H
O        0.242   0.6774   0.7203     O
O       0.2424   0.8881   0.6287     O
C       0.2463   0.3115   0.3467     C
C       0.2472   0.3053    0.626     C
H       0.2567   0.7356   0.7598     H
C       0.2637   0.5068   0.7227     C
C       0.2787   0.6153   0.7772     C
C       0.2814   0.3295   0.7236     C
C        0.291   0.4303   0.7721     C
C       0.2912   0.3457   0.4441     C
O       0.2958   0.1565   0.7258     O
C       0.3033   0.2472   0.1985     C
C       0.3062   0.2494   0.7784     C
H       0.3097   0.1119   0.7588     H
C       0.3103    0.985   0.1059     C
H       0.3158    0.447   0.8377     H
O       0.3205   0.6417   0.8625     O
C       0.3225   0.0062   0.2723     C
O       0.3277    0.032   0.8398     O
O       0.3297   0.8675   0.8402     O
O       0.3359   0.2691   0.8638     O
H       0.3447   0.0318   0.4101     H
C       0.3455   0.2927   0.3033     C
C       0.3677   0.9506   0.8168     C
O       0.3749   0.9842   0.0473     O
H       0.3758   0.6329   0.5074     H
C       0.3882   0.9241   0.6581     C
C       0.3943   0.0115   0.2096     C
C       0.3948    0.036   0.3688     C
O       0.3984   0.2529   0.1635     O
H       0.4149   0.9079   0.5303     H
C       0.4319   0.3674   0.4995     C
H       0.4484   0.7002   0.6681     H
C       0.4583   0.9537    0.755     C
H       0.4605   0.3923   0.5649     H
C       0.4624   0.9287   0.5954     C
C        0.471   0.6485   0.5437     C
Ba     0.47357  0.17964  0.01184    Ba
C       0.4854   0.3128   0.3598     C
C       0.5146   0.6872   0.6402     C
Ba     0.52643  0.82036  0.98816    Ba
C        0.529   0.3515   0.4563     C
C       0.5376   0.0713   0.4046     C
H       0.5395   0.6077   0.4351     H
C       0.5417   0.0463    0.245     C
H       0.5516   0.2998   0.3319     H
C       0.5681   0.6326   0.5005     C
H       0.5851   0.0921   0.4697     H
O       0.6016   0.7471   0.8365     O
C       0.6052    0.964   0.6312     C
C       0.6057   0.9885   0.7904     C
C       0.6118   0.0759   0.3419     C
H       0.6242   0.3671   0.4926     H
O       0.6251   0.0158   0.9527     O
C       0.6323   0.0494   0.1832     C
C       0.6545   0.7073   0.6967     C
H       0.6553   0.9682   0.5899     H
O       0.6641   0.7309   0.1362     O
O       0.6703   0.1325   0.1598     O
O       0.6723    0.968   0.1602     O
C       0.6775   0.9938   0.7277     C
O       0.6795   0.3583   0.1375     O
H       0.6842    0.553   0.1623     H
C       0.6897    0.015   0.8941     C
H       0.6903   0.8881   0.2412     H
C       0.6938   0.7506   0.2216     C
C       0.6967   0.7528   0.8015     C
O       0.7042   0.8435   0.2742     O
C       0.7088   0.6543   0.5559     C
C        0.709   0.5697   0.2279     C
C       0.7186   0.6705   0.2764     C
C       0.7213   0.3847   0.2228     C
C       0.7363   0.4932   0.2773     C
H       0.7433   0.2644   0.2402     H
C       0.7528   0.6947    0.374     C
C       0.7537   0.6885   0.6533     C
O       0.7576   0.1119   0.3713     O
O        0.758   0.3226   0.2797     O
H       0.7592   0.7623   0.4069     H
C       0.7722   0.5179   0.3754     C
H       0.7753   0.0176   0.7505     H
C       0.7773    0.618   0.4216     C
H       0.7923   0.4677   0.4091     H
O       0.8141   0.6396   0.5199     O
H        0.821    0.829   0.9735     H
O        0.822   0.0328    0.917     O
O       0.8254   0.7941   0.8484     O
H       0.8258    0.292   0.4907     H
C       0.8259   0.1382   0.4692     C
O       0.8263   0.8598   0.0285     O
C       0.8488   0.2398   0.5212     C
H       0.8495    0.992   0.4775     H
C       0.8644     0.06   0.5132     C
H        0.868    0.826    0.064     H
O       0.8887   0.4386    0.631     O
H       0.8896   0.4897   0.6736     H
C       0.9061   0.2635   0.6189     C
C       0.9072    0.702   0.7081     C
Ba     0.91322  0.07525  0.10966    Ba
C       0.9238   0.3698   0.6792     C
C       0.9254   0.0847   0.6115     C
O       0.9266   0.9077   0.6083     O
O       0.9402   0.6274   0.7411     O
C       0.9446   0.1865   0.6641     C
H       0.9461   0.8539   0.6338     H
C       0.9635   0.0026   0.6626     C
O       0.9659   0.3894   0.7648     O
O       0.9796   0.9744   0.2526     O
H       0.9835   0.2029   0.7298     H
O       0.9945   0.7862   0.7158     O
