data_I
_chemical_name_common  '/home/zhangsd/repos/MofS-CGCNN/ML/data/TSD/clean_cifs/TURFET_clean'
_cell_length_a 10.22920
_cell_length_b 24.70020
_cell_length_c 11.42430
_cell_angle_alpha 90.00000
_cell_angle_beta  90.08700
_cell_angle_gamma 90.00000
_space_group_name_H-M_alt      'P 1'


loop_
_space_group_symop_operation_xyz
  'x, y, z' 

loop_
_atom_site_label
_atom_site_fract_x
_atom_site_fract_y
_atom_site_fract_z
_atom_site_type_symbol
H       0.0026   0.7837   0.1322     H
H       0.0111   0.8384   0.3113     H
O       0.0131   0.7692   0.9091     O
H        0.035    0.283    0.146     H
H       0.0367    0.478   0.9411     H
H       0.0388   0.0635   0.0852     H
N       0.0429   0.6779   0.1128     N
N       0.0433   0.6761   0.7324     N
Co     0.04432  0.68183  0.92082    Co
C       0.0444   0.6714   0.3588     C
C       0.0463    0.671   0.4882     C
C       0.0508   0.8166   0.1351     C
C       0.0524    0.559    0.927     C
C        0.055   0.8493   0.2422     C
C       0.0627   0.1629    0.827     C
C        0.065   0.1591   0.7079     C
C       0.0651   0.1811   0.3328     C
C       0.0683    0.178   0.4509     C
C       0.0963   0.5075    0.944     C
H       0.1073   0.4026   0.9846     H
C        0.118   0.8349   0.0397     C
N       0.1231   0.6018   0.9274     N
C       0.1249   0.8015   0.9277     C
C        0.128   0.8967    0.238     C
H       0.1341   0.9175   0.3077     H
H       0.1344   0.8268   0.8599     H
H       0.1402   0.1544   0.8691     H
H       0.1429   0.1479   0.6699     H
O       0.1451   0.1556   0.0814     O
H       0.1453   0.1872   0.2932     H
H       0.1491   0.1808   0.4916     H
C       0.1509   0.6838   0.1711     C
C       0.1536   0.6667   0.6696     C
C       0.1565   0.6814   0.2917     C
C       0.1579   0.6632   0.5508     C
C       0.1832   0.8837    0.043     C
C       0.1887   0.9153    0.143     C
H       0.1954   0.3191   0.0243     H
C       0.1988   0.3992   0.9968     C
C       0.2235   0.4984   0.9636     C
H       0.2259   0.8961   0.9743     H
H       0.2294   0.6901    0.129     H
O       0.2312   0.7142    0.925     O
H       0.2332   0.6623   0.7114     H
H       0.2341   0.9489   0.1438     H
H       0.2355   0.0201   0.3442     H
H       0.2378   0.6555   0.5121     H
H        0.238   0.6866   0.3301     H
C       0.2458   0.7654   0.9332     C
C       0.2477   0.5925   0.9377     C
H       0.2503   0.0538   0.1595     H
C       0.2517   0.1794   0.0737     C
C       0.2526   0.3494   0.0216     C
H       0.2665   0.2852   0.4617     H
H       0.2681   0.2509   0.6445     H
O       0.2687   0.2283   0.0642     O
H       0.2732   0.2806   0.2612     H
C        0.277   0.4432     0.99     C
H       0.2811     0.24   0.8442     H
C        0.295   0.0488   0.3288     C
C       0.3013   0.5419   0.9584     C
C       0.3018   0.0697   0.2197     C
H       0.3058   0.6223   0.9306     H
H       0.3429   0.7663   0.5284     H
H       0.3464   0.7608   0.7286     H
C       0.3477   0.2791   0.4237     C
C       0.3487   0.2574   0.6835     C
C       0.3524   0.2765   0.3038     C
O       0.3535    0.788   0.9445     O
C       0.3563   0.2525   0.8037     C
H       0.3591   0.8008   0.3549     H
H       0.3624   0.7945   0.1488     H
H       0.3627   0.1148   0.0125     H
C        0.371   0.0683    0.418     C
H       0.3718   0.0521    0.493     H
C        0.373   0.1426   0.0755     C
N       0.3758   0.3408   0.0416     N
C       0.3817   0.1136   0.1918     C
H        0.393    0.538   0.9689     H
C       0.4052   0.4346    0.009     C
C       0.4237   0.7679   0.5694     C
C       0.4273   0.7653   0.6891     C
C       0.4347   0.7873   0.3165     C
C       0.4369   0.7832   0.1922     C
C        0.446   0.1115   0.3929     C
C       0.4524   0.3825    0.034     C
C       0.4558   0.1353    0.281     C
H       0.4564   0.8776   0.9542     H
Co     0.45687  0.26113  0.05656    Co
C        0.459   0.2718   0.6196     C
N         0.46    0.264    0.865     N
C       0.4606   0.2729   0.4898     C
N        0.463   0.2686    0.244     N
H       0.4645   0.4641   0.0058     H
O       0.4864   0.1736   0.0508     O
H       0.4882   0.6653   0.7324     H
H        0.494     0.67    0.024     H
H       0.4951   0.1271   0.4549     H
H       0.5049   0.6271   0.5451     H
H        0.506     0.17    0.976     H
H       0.5118   0.1653   0.2676     H
O       0.5136   0.6736   0.9492     O
H       0.5355   0.9641   0.9942     H
N        0.537   0.7686    0.756     N
C       0.5394   0.7729   0.5102     C
N         0.54    0.764    0.135     N
C        0.541   0.7718   0.3804     C
Co     0.54313  0.76113  0.94344    Co
H       0.5436   0.3776   0.0458     H
C       0.5442   0.6353    0.719     C
C       0.5476   0.8825    0.966     C
C        0.554   0.6115   0.6071     C
C       0.5631   0.2832   0.8078     C
C       0.5653   0.2873   0.6835     C
C       0.5727   0.2653   0.3109     C
C       0.5763   0.2679   0.4306     C
C       0.5948   0.9346    0.991     C
H        0.607    0.038   0.0311     H
C       0.6183   0.6136   0.8082     C
N       0.6242   0.8408   0.9584     N
C        0.627   0.6426   0.9245     C
H       0.6282   0.5521    0.507     H
C        0.629   0.5683    0.582     C
H       0.6373   0.6148   0.9875     H
H       0.6376   0.2945   0.8512     H
H       0.6409   0.3008   0.6451     H
C       0.6437   0.7525   0.1963     C
O       0.6465    0.288   0.0555     O
C       0.6476   0.7765   0.6962     C
C       0.6513   0.7574   0.3165     C
C       0.6523   0.7791   0.5763     C
H       0.6536   0.2608   0.2714     H
H       0.6571   0.2663   0.4716     H
H       0.6942   0.1223   0.0694     H
C       0.6982   0.5697   0.7803     C
C       0.6987   0.0419   0.0416     C
C        0.705   0.5488   0.6712     C
H       0.7189     0.74   0.1558     H
C        0.723   0.9432     0.01     C
H       0.7268   0.7806   0.7388     H
O       0.7313   0.7283   0.9358     O
H       0.7319   0.7509   0.3555     H
H       0.7335   0.7852   0.5383     H
C       0.7474   0.8494   0.9784     C
C       0.7483   0.6794   0.9263     C
H       0.7497   0.5538   0.8405     H
C       0.7523   0.0925   0.0623     C
C       0.7542   0.2654   0.0668     C
H        0.762   0.1866   0.6699     H
H       0.7622   0.1555   0.4879     H
H       0.7645   0.5201   0.6558     H
H       0.7659   0.4489   0.8562     H
H       0.7668   0.1623   0.2886     H
O       0.7688   0.2142    0.075     O
H       0.7706   0.1901    0.871     H
H       0.7741   0.3961   0.0257     H
C       0.7765   0.9984   0.0364     C
C       0.8012   0.8992   0.0032     C
H       0.8046   0.8191   0.9757     H
C       0.8113   0.4153    0.857     C
C       0.8168   0.3837    0.957     C
C       0.8421   0.1632   0.4492     C
C       0.8435   0.1814   0.7083     C
C       0.8464   0.1667   0.3304     C
C       0.8491   0.1838   0.8289     C
H       0.8509   0.6808   0.5084     H
H       0.8547   0.6872   0.7068     H
O       0.8549   0.6556   0.9186     O
H       0.8571   0.6479   0.3301     H
H       0.8598   0.6544   0.1309     H
H       0.8656   0.3268   0.1401     H
H       0.8659   0.4175   0.6923     H
C        0.872   0.3967    0.762     C
C       0.8751   0.3015   0.0723     C
N       0.8769   0.1018   0.0726     N
C        0.882   0.3349   0.9603     C
H       0.8927   0.9026   0.0154     H
C       0.9037   0.0075    0.056     C
C       0.9317    0.678   0.5491     C
C       0.9349   0.6811   0.6672     C
C        0.935   0.6591   0.2921     C
C       0.9373   0.6629    0.173     C
C        0.945   0.3493   0.7578     C
C       0.9476    0.059    0.073     C
C       0.9492   0.3166   0.8649     C
C       0.9537    0.171   0.5118     C
C       0.9556   0.1714   0.6412     C
Co     0.95568  0.18183  0.07918    Co
N       0.9567   0.1761   0.2676     N
N       0.9571   0.1779   0.8872     N
H       0.9612   0.5635   0.9148     H
H       0.9633    0.978   0.0589     H
H        0.965    0.783    0.854     H
O       0.9869   0.2692   0.0909     O
H       0.9889   0.3384   0.6887     H
H       0.9974   0.2837   0.8678     H
