data_I
_chemical_name_common  '/home/zhangsd/repos/MofS-CGCNN/ML/data/TSD/clean_cifs/TUTJAU_clean'
_cell_length_a 15.20900
_cell_length_b 16.36100
_cell_length_c 17.46300
_cell_angle_alpha 110.41000
_cell_angle_beta  90.00000
_cell_angle_gamma 90.00000
_space_group_name_H-M_alt      'P 1'


loop_
_space_group_symop_operation_xyz
  'x, y, z' 

loop_
_atom_site_label
_atom_site_fract_x
_atom_site_fract_y
_atom_site_fract_z
_atom_site_type_symbol
C       0.0024   0.3849   0.7399     C
O       0.0024   0.4626   0.7413     O
C       0.0078   0.8939   0.5429     C
H       0.0133   0.7137   0.5651     H
H       0.0149   0.6821   0.6888     H
O       0.0151   0.1608   0.2865     O
H       0.0173   0.1577   0.5752     H
H       0.0173   0.4148   0.3385     H
C       0.0245   0.8754   0.4614     C
H       0.0331   0.2287   0.7491     H
C       0.0335   0.6219    0.664     C
H       0.0457   0.1217   0.4404     H
C       0.0461   0.6638   0.5387     C
H       0.0633   0.6905   0.4371     H
C       0.0647    0.607   0.5787     C
O       0.0652    0.661   0.2785     O
Mn     0.06644  0.95813  0.73338    Mn
N       0.0691   0.9346   0.5983     N
C       0.0751   0.6483   0.4601     C
C        0.084   0.2621   0.7626     C
C       0.0845   0.3476   0.7619     C
C       0.0846   0.1192   0.2754     C
O       0.0858   0.0384    0.267     O
H       0.0903    0.563   0.7342     H
O        0.092   0.0918   0.7598     O
C       0.0941   0.9001     0.43     C
N       0.0992   0.6036   0.7145     N
C       0.1032   0.8825   0.3395     C
H        0.116   0.2791    0.278     H
C       0.1161   0.5372   0.5354     C
N       0.1181   0.5785   0.4153     N
H       0.1293   0.7613   0.7201     H
H       0.1353   0.4981   0.5597     H
C        0.139   0.5251   0.4561     C
C       0.1415   0.9593   0.5693     C
Mn     0.14904  0.55023  0.28169    Mn
C       0.1564   0.9436   0.4858     C
H       0.1592   0.4543   0.7833     H
C       0.1601   0.2275   0.7836     C
C       0.1601    0.397   0.7822     C
C       0.1612   0.1371   0.7844     C
C       0.1679   0.2471    0.266     C
C       0.1685   0.1621    0.264     C
H       0.1719   0.4757   0.4282     H
O       0.1726    0.419   0.2719     O
C       0.1776   0.6509   0.7323     C
C       0.1799   0.7364   0.7323     C
H       0.1847   0.9887   0.6064     H
N       0.1868   0.9139   0.3198     N
H       0.1898   0.9664   0.3198     H
O       0.1909   0.9017   0.7219     O
H        0.208   0.9626   0.4688     H
H        0.214   0.7562   0.3179     H
O       0.2281   0.1107   0.8099     O
C       0.2355   0.2791    0.803     C
C       0.2383   0.3627   0.8011     C
C       0.2417   0.3754   0.2485     C
C       0.2424   0.2847   0.2504     C
H       0.2461   0.0562   0.2441     H
C       0.2461   0.1139   0.2464     C
H       0.2539   0.5562   0.7441     H
C       0.2539   0.6139   0.7464     C
C       0.2576   0.7847   0.7504     C
C       0.2583   0.8754   0.7485     C
C       0.2617   0.8627   0.3011     C
C       0.2645   0.7791    0.303     C
O       0.2719   0.6107   0.3099     O
H        0.286   0.2562   0.8179     H
H        0.292   0.4626   0.9688     H
O       0.3091   0.4017   0.2219     O
H       0.3102   0.4664   0.8198     H
N       0.3132   0.4139   0.8198     N
H       0.3153   0.4887   0.1064     H
C       0.3201   0.2364   0.2323     C
C       0.3224   0.1509   0.2323     C
O       0.3274    0.919   0.7719     O
H       0.3281   0.9757   0.9282     H
C       0.3315   0.6621    0.764     C
C       0.3321   0.7471    0.766     C
C       0.3388   0.6371   0.2844     C
C       0.3399   0.7275   0.2836     C
C       0.3399    0.897   0.2822     C
H       0.3408   0.9543   0.2833     H
C       0.3436   0.4436   0.9858     C
Mn     0.35096  0.05023  0.78169    Mn
C       0.3585   0.4593   0.0693     C
C        0.361   0.0251   0.9561     C
H       0.3647   0.9981   0.0597     H
H       0.3707   0.2613   0.2201     H
N       0.3819   0.0785   0.9153     N
C       0.3839   0.0372   0.0354     C
H        0.384   0.7791    0.778     H
C       0.3968   0.3825   0.8395     C
N       0.4008   0.1036   0.2145     N
C       0.4059   0.4001     0.93     C
O        0.408   0.5918   0.2598     O
H       0.4097    0.063   0.2342     H
O       0.4142   0.5384    0.767     O
C       0.4154   0.6192   0.7754     C
C       0.4155   0.8476   0.2619     C
C        0.416   0.7621   0.2626     C
C       0.4249   0.1483   0.9601     C
N       0.4309   0.4346   0.0983     N
Mn     0.43356  0.45813  0.23338    Mn
O       0.4348    0.161   0.7785     O
C       0.4353    0.107   0.0787     C
H       0.4367   0.1905   0.9371     H
C       0.4539   0.1638   0.0387     C
H       0.4543   0.6217   0.9404     H
C       0.4665   0.1219    0.164     C
H       0.4669   0.7287   0.2491     H
C       0.4755   0.3754   0.9614     C
H       0.4827   0.6577   0.0752     H
H       0.4827   0.9148   0.8385     H
O       0.4849   0.6608   0.7865     O
H       0.4851   0.1821   0.1888     H
H       0.4867   0.2137   0.0651     H
C       0.4922   0.3939   0.0429     C
C       0.4976   0.8849   0.2399     C
O       0.4976   0.9626   0.2413     O
O       0.5024   0.0374   0.7587     O
C       0.5024   0.1151   0.7601     C
C       0.5078   0.6061   0.9571     C
H       0.5133   0.7863   0.9349     H
H       0.5149   0.8179   0.8112     H
O       0.5151   0.3392   0.2135     O
H       0.5173   0.0852   0.1615     H
H       0.5173   0.3423   0.9248     H
C       0.5245   0.6246   0.0386     C
H       0.5331   0.2713   0.7509     H
C       0.5335   0.8781    0.836     C
H       0.5457   0.3783   0.0596     H
C       0.5461   0.8362   0.9613     C
H       0.5633   0.8095   0.0629     H
C       0.5647    0.893   0.9213     C
O       0.5652    0.839   0.2215     O
Mn     0.56644  0.54187  0.76662    Mn
N       0.5691   0.5654   0.9017     N
C       0.5751   0.8517   0.0399     C
C        0.584   0.2379   0.7374     C
C       0.5845   0.1524   0.7381     C
C       0.5846   0.3808   0.2246     C
O       0.5858   0.4616    0.233     O
H       0.5903    0.937   0.7658     H
O        0.592   0.4082   0.7402     O
C       0.5941   0.5999     0.07     C
N       0.5992   0.8964   0.7855     N
C       0.6032   0.6175   0.1605     C
H        0.616   0.2209    0.222     H
C       0.6161   0.9628   0.9646     C
N       0.6181   0.9215   0.0847     N
H       0.6293   0.7387   0.7799     H
H       0.6353   0.0019   0.9403     H
C        0.639   0.9749   0.0439     C
C       0.6415   0.5407   0.9307     C
Mn     0.64904  0.94977  0.21831    Mn
C       0.6564   0.5564   0.0142     C
H       0.6592   0.0457   0.7167     H
C       0.6601    0.103   0.7178     C
C       0.6601   0.2725   0.7164     C
C       0.6612   0.3629   0.7156     C
C       0.6679   0.2529    0.234     C
C       0.6685   0.3379    0.236     C
H       0.6719   0.0243   0.0718     H
O       0.6726    0.081   0.2281     O
C       0.6776   0.8491   0.7677     C
C       0.6799   0.7636   0.7677     C
H       0.6847   0.5113   0.8936     H
N       0.6868   0.5861   0.1802     N
H       0.6898   0.5336   0.1802     H
O       0.6909   0.5983   0.7781     O
H        0.708   0.5374   0.0312     H
H        0.714   0.7438   0.1821     H
O       0.7281   0.3893   0.6901     O
C       0.7355   0.2209    0.697     C
C       0.7383   0.1373   0.6989     C
C       0.7417   0.1246   0.2515     C
C       0.7424   0.2153   0.2496     C
C       0.7461   0.3861   0.2536     C
H       0.7461   0.4438   0.2559     H
C       0.7539   0.8861   0.7536     C
H       0.7539   0.9438   0.7559     H
C       0.7576   0.7153   0.7496     C
C       0.7583   0.6246   0.7515     C
C       0.7617   0.6373   0.1989     C
C       0.7645   0.7209    0.197     C
O       0.7719   0.8893   0.1901     O
H        0.786   0.2438   0.6821     H
H        0.792   0.0374   0.5312     H
O       0.8091   0.0983   0.2781     O
H       0.8102   0.0336   0.6802     H
N       0.8132   0.0861   0.6802     N
H       0.8153   0.0113   0.3936     H
C       0.8201   0.2636   0.2677     C
C       0.8224   0.3491   0.2677     C
O       0.8274    0.581   0.7281     O
H       0.8281   0.5243   0.5718     H
C       0.8315   0.8379    0.736     C
C       0.8321   0.7529    0.734     C
C       0.8388   0.8629   0.2156     C
C       0.8399    0.603   0.2178     C
C       0.8399   0.7725   0.2164     C
H       0.8408   0.5457   0.2167     H
C       0.8436   0.0564   0.5142     C
Mn     0.85096  0.44977  0.71831    Mn
C       0.8585   0.0407   0.4307     C
C        0.861   0.4749   0.5439     C
H       0.8647   0.5019   0.4403     H
H       0.8707   0.2387   0.2799     H
N       0.8819   0.4215   0.5847     N
C       0.8839   0.4628   0.4646     C
H        0.884   0.7209    0.722     H
C       0.8968   0.1175   0.6605     C
N       0.9008   0.3964   0.2855     N
C       0.9059   0.0999     0.57     C
O        0.908   0.9082   0.2402     O
H       0.9097    0.437   0.2658     H
O       0.9142   0.9616    0.733     O
C       0.9154   0.8808   0.7246     C
C       0.9155   0.6524   0.2381     C
C        0.916   0.7379   0.2374     C
C       0.9249   0.3517   0.5399     C
N       0.9309   0.0654   0.4017     N
Mn     0.93356  0.04187  0.26662    Mn
O       0.9348    0.339   0.7215     O
C       0.9353    0.393   0.4213     C
H       0.9367   0.3095   0.5629     H
C       0.9539   0.3362   0.4613     C
H       0.9543   0.8783   0.5596     H
C       0.9665   0.3781    0.336     C
H       0.9669   0.7713   0.2509     H
C       0.9755   0.1246   0.5386     C
H       0.9827   0.5852   0.6615     H
H       0.9827   0.8423   0.4248     H
O       0.9849   0.8392   0.7135     O
H       0.9851   0.3179   0.3112     H
H       0.9867   0.2863   0.4349     H
C       0.9922   0.1061   0.4571     C
O       0.9976   0.5374   0.2587     O
C       0.9976   0.6151   0.2601     C
