data_I
_chemical_name_common  '/home/zhangsd/repos/MofS-CGCNN/ML/data/TSD/clean_cifs/UFEXIN_clean'
_cell_length_a  6.98160
_cell_length_b 15.96690
_cell_length_c 15.96690
_cell_angle_alpha 62.08670
_cell_angle_beta  81.61920
_cell_angle_gamma 98.38080
_space_group_name_H-M_alt      'P 1'


loop_
_space_group_symop_operation_xyz
  'x, y, z' 

loop_
_atom_site_label
_atom_site_fract_x
_atom_site_fract_y
_atom_site_fract_z
_atom_site_type_symbol
O          0.0      0.0      0.0     O
Cu         0.0      0.5      0.5    Cu
C       0.0165     0.65    0.321     C
O        0.024  0.29446  0.75636     O
O      0.03072   0.9248  0.17334     O
H       0.0412   0.1245   0.2839     H
C       0.0526   0.6106   0.0955     C
H       0.0642   0.4878     0.09     H
H       0.0833   0.4084   0.8755     H
O       0.1052   0.4287   0.6122     O
O      0.10592  0.90186   0.9248     O
Ho     0.13619  0.84704  0.08865    Ho
C       0.1406   0.5477   0.0758     C
C       0.1481   0.0955   0.2939     C
H       0.1542     0.09   0.4222     H
N       0.1568  0.69794  0.07394     N
O      0.20406  0.17334  0.90186     O
C       0.2149   0.6743   0.3387     C
C       0.2164   0.0758   0.3765     C
O      0.21964  0.24364  0.05082     O
Ho     0.22484  0.08865  0.06431    Ho
N      0.23074  0.07394  0.22812     N
N       0.2378   0.6102   0.4261     N
O      0.27046  0.05082  0.70554     O
O       0.2826   0.3878   0.0409     O
Ho     0.28915  0.06431  0.84704    Ho
O      0.32017      1.0      0.0     O
O       0.3235   0.0409   0.5713     O
H       0.3251   0.2839   0.5916     H
N       0.3361   0.5739   0.0363     N
C       0.3375    0.321    0.029     C
C       0.3554   0.7273   0.0301     C
C       0.3665    0.029     0.65     C
O      0.37054  0.82273  0.18611     O
C       0.3719   0.7574   0.2727     C
N       0.3724   0.0363   0.3898     N
C       0.3855   0.0301   0.2426     C
C       0.4071   0.6235   0.4523     C
H       0.4236   0.5778   0.5122     H
C        0.442   0.2939   0.6106     C
O      0.44335  0.81389  0.00884     O
C       0.4464   0.6613    0.013     C
O      0.45219  0.00884  0.17727     O
N      0.45886  0.22812  0.69794     N
C       0.4594    0.013   0.3257     C
Cu         0.5     -0.0      0.5    Cu
Cu         0.5      0.5      0.0    Cu
C       0.5406    0.987   0.6743     C
N      0.54114  0.77188  0.30206     N
O      0.54781  0.99116  0.82273     O
C       0.5536   0.3387    0.987     C
O      0.55665  0.18611  0.99116     O
C        0.558   0.7061   0.3894     C
H       0.5764   0.4222   0.4878     H
C       0.5929   0.3765   0.5477     C
C       0.6145   0.9699   0.7574     C
N       0.6276   0.9637   0.6102     N
C       0.6281   0.2426   0.7273     C
O      0.62946  0.17727  0.81389     O
C       0.6335    0.971     0.35     C
C       0.6446   0.2727   0.9699     C
C       0.6625    0.679    0.971     C
N       0.6639   0.4261   0.9637     N
H       0.6749   0.7161   0.4084     H
O       0.6765   0.9591   0.4287     O
O      0.67983      1.0      0.0     O
Ho     0.71085  0.93569  0.15296    Ho
O       0.7174   0.6122   0.9591     O
O      0.72954  0.94918  0.29446     O
N       0.7622   0.3898   0.5739     N
N      0.76926  0.92606  0.77188     N
Ho     0.77516  0.91135  0.93569    Ho
O      0.78036  0.75636  0.94918     O
C       0.7836   0.9242   0.6235     C
C       0.7851   0.3257   0.6613     C
O      0.79594  0.82666  0.09814     O
N       0.8432  0.30206  0.92606     N
H       0.8458     0.91   0.5778     H
C       0.8519   0.9045   0.7061     C
C       0.8594   0.4523   0.9242     C
Ho     0.86381  0.15296  0.91135    Ho
O      0.89408  0.09814   0.0752     O
O       0.8948   0.5713   0.3878     O
H       0.9167   0.5916   0.1245     H
H       0.9358   0.5122     0.91     H
C       0.9474   0.3894   0.9045     C
H       0.9588   0.8755   0.7161     H
O      0.96928   0.0752  0.82666     O
O        0.976  0.70554  0.24364     O
C       0.9835     0.35    0.679     C
