data_I
_chemical_name_common  '/home/zhangsd/repos/MofS-CGCNN/ML/data/TSD/clean_cifs/UGELIB_clean'
_cell_length_a 27.31600
_cell_length_b 17.47200
_cell_length_c 10.19700
_cell_angle_alpha 90.00000
_cell_angle_beta  90.00000
_cell_angle_gamma 90.00000
_space_group_name_H-M_alt      'P 1'


loop_
_space_group_symop_operation_xyz
  'x, y, z' 

loop_
_atom_site_label
_atom_site_fract_x
_atom_site_fract_y
_atom_site_fract_z
_atom_site_type_symbol
O       0.0085   0.3884   0.5888     O
O       0.0085   0.6116   0.0888     O
Ga       0.054   0.4235   0.9025    Ga
Ga       0.054   0.5765   0.4025    Ga
P       0.0596   0.4258   0.5948     P
P       0.0596   0.5742   0.0948     P
O       0.0613   0.4958   0.5083     O
O       0.0613   0.5042   0.0083     O
O       0.0697    0.453    0.736     O
O       0.0697    0.547    0.236     O
O       0.0937   0.3503   0.9696     O
O       0.0937   0.6497   0.4696     O
O       0.0959   0.3679   0.5479     O
O       0.0959   0.6321   0.0479     O
O       0.1269   0.2917   0.7669     O
O       0.1269   0.7083   0.2669     O
P       0.1416   0.3198    0.904     P
P       0.1416   0.6802    0.404     P
O       0.1527   0.2521   0.4728     O
O       0.1527   0.7479   0.9728     O
Ga      0.1559   0.3207   0.6105    Ga
Ga      0.1559   0.6793   0.1105    Ga
O       0.1607    0.255   0.9873     O
O       0.1607    0.745   0.4873     O
O       0.1765   0.3879   0.8879     O
O       0.1765   0.6121   0.3879     O
O       0.1828    0.249   0.2455     O
O       0.1828    0.751   0.7455     O
O       0.1918   0.4085   0.5785     O
O       0.1918   0.5915   0.0785     O
P        0.196   0.2266    0.386     P
P        0.196   0.7734    0.886     P
O       0.2008   0.1394   0.3984     O
O       0.2008   0.8606   0.8984     O
F       0.2161   0.2698   0.6793     F
F       0.2161   0.7302   0.1793     F
O       0.2173   0.1281   0.0871     O
O       0.2173   0.8719   0.5871     O
Ga      0.2203   0.2392   0.0884    Ga
Ga      0.2203   0.7608   0.5884    Ga
F       0.2325   0.3524   0.0937     F
F       0.2325   0.6476   0.5937     F
Ga      0.2415   0.4127    0.926    Ga
Ga      0.2415   0.5873    0.426    Ga
O       0.2429   0.0008    0.016     O
O       0.2429   0.9992    0.516     O
O       0.2432   0.2661   0.4261     O
O       0.2432   0.7339   0.9261     O
P       0.2448   0.4343   0.6105     P
P       0.2448   0.5657   0.1105     P
O       0.2465   0.4652   0.7522     O
O       0.2465   0.5348   0.2522     O
O       0.2535   0.0348   0.2522     O
O       0.2535   0.9652   0.7522     O
P       0.2552   0.0657   0.1105     P
P       0.2552   0.9343   0.6105     P
O       0.2568   0.2339   0.9261     O
O       0.2568   0.7661   0.4261     O
O       0.2571   0.4992    0.516     O
O       0.2571   0.5008    0.016     O
Ga      0.2585   0.0873    0.426    Ga
Ga      0.2585   0.9127    0.926    Ga
F       0.2675   0.1476   0.5937     F
F       0.2675   0.8524   0.0937     F
Ga      0.2797   0.2608   0.5884    Ga
Ga      0.2797   0.7392   0.0884    Ga
O       0.2827   0.3719   0.5871     O
O       0.2827   0.6281   0.0871     O
F       0.2839   0.2302   0.1793     F
F       0.2839   0.7698   0.6793     F
O       0.2992   0.3606   0.8984     O
O       0.2992   0.6394   0.3984     O
P        0.304   0.2734    0.886     P
P        0.304   0.7266    0.386     P
O       0.3082   0.0915   0.0785     O
O       0.3082   0.9085   0.5785     O
O       0.3172    0.251   0.7455     O
O       0.3172    0.749   0.2455     O
O       0.3235   0.1121   0.3879     O
O       0.3235   0.8879   0.8879     O
O       0.3393    0.245   0.4873     O
O       0.3393    0.755   0.9873     O
Ga      0.3441   0.1793   0.1105    Ga
Ga      0.3441   0.8207   0.6105    Ga
O       0.3473   0.2479   0.9728     O
O       0.3473   0.7521   0.4728     O
P       0.3584   0.1802    0.404     P
P       0.3584   0.8198    0.904     P
O       0.3731   0.2083   0.2669     O
O       0.3731   0.7917   0.7669     O
O       0.4041   0.1321   0.0479     O
O       0.4041   0.8679   0.5479     O
O       0.4063   0.1497   0.4696     O
O       0.4063   0.8503   0.9696     O
O       0.4303    0.047    0.236     O
O       0.4303    0.953    0.736     O
O       0.4387   0.0042   0.0083     O
O       0.4387   0.9958   0.5083     O
P       0.4404   0.0742   0.0948     P
P       0.4404   0.9258   0.5948     P
Ga       0.446   0.0765   0.4025    Ga
Ga       0.446   0.9235   0.9025    Ga
O       0.4915   0.1116   0.0888     O
O       0.4915   0.8884   0.5888     O
O       0.5085   0.1116   0.4112     O
O       0.5085   0.8884   0.9112     O
Ga       0.554   0.0765   0.0975    Ga
Ga       0.554   0.9235   0.5975    Ga
P       0.5596   0.0742   0.4052     P
P       0.5596   0.9258   0.9052     P
O       0.5613   0.0042   0.4917     O
O       0.5613   0.9958   0.9917     O
O       0.5697    0.047    0.264     O
O       0.5697    0.953    0.764     O
O       0.5937   0.1497   0.0304     O
O       0.5937   0.8503   0.5304     O
O       0.5959   0.1321   0.4521     O
O       0.5959   0.8679   0.9521     O
O       0.6269   0.2083   0.2331     O
O       0.6269   0.7917   0.7331     O
P       0.6416   0.1802    0.096     P
P       0.6416   0.8198    0.596     P
O       0.6527   0.2479   0.5272     O
O       0.6527   0.7521   0.0272     O
Ga      0.6559   0.1793   0.3895    Ga
Ga      0.6559   0.8207   0.8895    Ga
O       0.6607    0.245   0.0127     O
O       0.6607    0.755   0.5127     O
O       0.6765   0.1121   0.1121     O
O       0.6765   0.8879   0.6121     O
O       0.6828    0.251   0.7545     O
O       0.6828    0.749   0.2545     O
O       0.6918   0.0915   0.4215     O
O       0.6918   0.9085   0.9215     O
P        0.696   0.2734    0.614     P
P        0.696   0.7266    0.114     P
O       0.7008   0.3606   0.6016     O
O       0.7008   0.6394   0.1016     O
F       0.7161   0.2302   0.3207     F
F       0.7161   0.7698   0.8207     F
O       0.7173   0.3719   0.9129     O
O       0.7173   0.6281   0.4129     O
Ga      0.7203   0.2608   0.9116    Ga
Ga      0.7203   0.7392   0.4116    Ga
F       0.7325   0.1476   0.9063     F
F       0.7325   0.8524   0.4063     F
Ga      0.7415   0.0873    0.074    Ga
Ga      0.7415   0.9127    0.574    Ga
O       0.7429   0.4992    0.984     O
O       0.7429   0.5008    0.484     O
O       0.7432   0.2339   0.5739     O
O       0.7432   0.7661   0.0739     O
P       0.7448   0.0657   0.3895     P
P       0.7448   0.9343   0.8895     P
O       0.7465   0.0348   0.2478     O
O       0.7465   0.9652   0.7478     O
O       0.7535   0.4652   0.7478     O
O       0.7535   0.5348   0.2478     O
P       0.7552   0.4343   0.8895     P
P       0.7552   0.5657   0.3895     P
O       0.7568   0.2661   0.0739     O
O       0.7568   0.7339   0.5739     O
O       0.7571   0.0008    0.484     O
O       0.7571   0.9992    0.984     O
Ga      0.7585   0.4127    0.574    Ga
Ga      0.7585   0.5873    0.074    Ga
F       0.7675   0.3524   0.4063     F
F       0.7675   0.6476   0.9063     F
Ga      0.7797   0.2392   0.4116    Ga
Ga      0.7797   0.7608   0.9116    Ga
O       0.7827   0.1281   0.4129     O
O       0.7827   0.8719   0.9129     O
F       0.7839   0.2698   0.8207     F
F       0.7839   0.7302   0.3207     F
O       0.7992   0.1394   0.1016     O
O       0.7992   0.8606   0.6016     O
P        0.804   0.2266    0.114     P
P        0.804   0.7734    0.614     P
O       0.8082   0.4085   0.9215     O
O       0.8082   0.5915   0.4215     O
O       0.8172    0.249   0.2545     O
O       0.8172    0.751   0.7545     O
O       0.8235   0.3879   0.6121     O
O       0.8235   0.6121   0.1121     O
O       0.8393    0.255   0.5127     O
O       0.8393    0.745   0.0127     O
Ga      0.8441   0.3207   0.8895    Ga
Ga      0.8441   0.6793   0.3895    Ga
O       0.8473   0.2521   0.0272     O
O       0.8473   0.7479   0.5272     O
P       0.8584   0.3198    0.596     P
P       0.8584   0.6802    0.096     P
O       0.8731   0.2917   0.7331     O
O       0.8731   0.7083   0.2331     O
O       0.9041   0.3679   0.9521     O
O       0.9041   0.6321   0.4521     O
O       0.9063   0.3503   0.5304     O
O       0.9063   0.6497   0.0304     O
O       0.9303    0.453    0.764     O
O       0.9303    0.547    0.264     O
O       0.9387   0.4958   0.9917     O
O       0.9387   0.5042   0.4917     O
P       0.9404   0.4258   0.9052     P
P       0.9404   0.5742   0.4052     P
Ga       0.946   0.4235   0.5975    Ga
Ga       0.946   0.5765   0.0975    Ga
O       0.9915   0.3884   0.9112     O
O       0.9915   0.6116   0.4112     O
