data_I
_chemical_name_common  '/home/zhangsd/repos/MofS-CGCNN/ML/data/TSD/clean_cifs/UGEPEB01_clean'
_cell_length_a  3.55210
_cell_length_b 12.99770
_cell_length_c 15.86650
_cell_angle_alpha 90.00000
_cell_angle_beta  90.00000
_cell_angle_gamma 95.28500
_space_group_name_H-M_alt      'P 1'


loop_
_space_group_symop_operation_xyz
  'x, y, z' 

loop_
_atom_site_label
_atom_site_fract_x
_atom_site_fract_y
_atom_site_fract_z
_atom_site_type_symbol
H       0.0227   0.0943   0.3757     H
O       0.0359  0.60734  0.64127     O
C       0.0536  0.70236  0.62216     C
C       0.0669  0.22717  0.30846     C
C       0.0739  0.12204   0.3225     C
C       0.1576  0.26473  0.22922     C
C       0.1579  0.05931  0.25633     C
H       0.1615   0.9889   0.2663     H
O       0.1631  0.74215   0.5546     O
H       0.1637   0.3351   0.2181     H
H         0.19   0.8675    0.985     H
O       0.1936  0.93012  0.97158     O
H       0.1998   0.2766   0.6134     H
N       0.2341  0.09479  0.17886     N
Cu     0.23444   0.0043  0.07746    Cu
C        0.239  0.19712  0.16663     C
C        0.261  0.30288  0.66663     C
Cu     0.26556   0.4957  0.57746    Cu
N       0.2659  0.40521  0.67886     N
H       0.3002   0.2234   0.1134     H
O       0.3064  0.56988  0.47158     O
H         0.31   0.6325    0.485     H
H       0.3363   0.1649   0.7181     H
O       0.3369  0.75785   0.0546     O
H       0.3385   0.5111   0.7663     H
C       0.3421  0.44069  0.75633     C
C       0.3424  0.23527  0.72922     C
C       0.4261  0.37796   0.8225     C
C       0.4331  0.27283  0.80846     C
C       0.4464  0.79764  0.12216     C
O       0.4641  0.89266  0.14127     O
H       0.4773   0.4057   0.8757     H
H       0.5227   0.5943   0.1243     H
O       0.5359  0.10734  0.85873     O
C       0.5536  0.20236  0.87784     C
C       0.5669  0.72717  0.19154     C
C       0.5739  0.62204   0.1775     C
C       0.6576  0.76473  0.27078     C
C       0.6579  0.55931  0.24367     C
H       0.6615   0.4889   0.2337     H
O       0.6631  0.24215   0.9454     O
H       0.6637   0.8351   0.2819     H
H         0.69   0.3675    0.515     H
O       0.6936  0.43012  0.52842     O
H       0.6998   0.7766   0.8866     H
N       0.7341  0.59479  0.32114     N
Cu     0.73444   0.5043  0.42254    Cu
C        0.739  0.69712  0.33337     C
C        0.761  0.80288  0.83337     C
Cu     0.76556   0.9957  0.92254    Cu
N       0.7659  0.90521  0.82114     N
H       0.8002   0.7234   0.3866     H
O       0.8064  0.06988  0.02842     O
H         0.81   0.1325    0.015     H
H       0.8363   0.6649   0.7819     H
O       0.8369  0.25785   0.4454     O
H       0.8385   0.0111   0.7337     H
C       0.8421  0.94069  0.74367     C
C       0.8424  0.73527  0.77078     C
C       0.9261  0.87796   0.6775     C
C       0.9331  0.77283  0.69154     C
C       0.9464  0.29764  0.37784     C
O       0.9641  0.39266  0.35873     O
H       0.9773   0.9057   0.6243     H
