data_I
_chemical_name_common  '/home/zhangsd/repos/MofS-CGCNN/ML/data/TSD/clean_cifs/UKEXEP_clean'
_cell_length_a 13.07190
_cell_length_b 22.53400
_cell_length_c 16.89380
_cell_angle_alpha 90.00000
_cell_angle_beta  99.90800
_cell_angle_gamma 90.00000
_space_group_name_H-M_alt      'P 1'


loop_
_space_group_symop_operation_xyz
  'x, y, z' 

loop_
_atom_site_label
_atom_site_fract_x
_atom_site_fract_y
_atom_site_fract_z
_atom_site_type_symbol
O       0.0184  0.68019   0.3185     O
O       0.0184  0.81981   0.8185     O
C       0.0218   0.6336   0.2773     C
C       0.0218   0.8664   0.7773     C
N       0.0327   0.0297   0.7555     N
N       0.0327   0.4703   0.2555     N
H       0.0362   0.0751   0.8951     H
H       0.0362   0.4249   0.3951     H
O       0.0473   0.5591   0.7416     O
O       0.0473   0.9409   0.2416     O
O        0.049  0.09645   0.2347     O
O        0.049  0.40355   0.7347     O
O        0.061  0.01663   0.6925     O
O        0.061  0.48337   0.1925     O
O        0.072  0.10553   0.0405     O
O        0.072  0.39447   0.5405     O
C       0.0823   0.0434   0.8992     C
C       0.0823   0.4566   0.3992     C
C       0.0947   0.0107   0.8319     C
C       0.0947   0.4893   0.3319     C
H       0.0983   0.6941   0.1648     H
H       0.0983   0.8059   0.6648     H
C       0.1152  0.62266   0.2386     C
C       0.1152  0.87734   0.7386     C
C       0.1374  0.65989   0.1776     C
C       0.1374  0.84011   0.6776     C
C       0.1383    0.067   0.0445     C
C       0.1383    0.433   0.5445     C
C       0.1409   0.0274   0.9735     C
C       0.1409   0.4726   0.4735     C
O       0.1524  0.14612   0.7369     O
O       0.1524  0.35388   0.2369     O
C       0.1607  0.53723   0.3345     C
C       0.1607  0.96277   0.8345     C
O       0.1658  0.23099   0.0925     O
O       0.1658  0.26901   0.5925     O
Cd     0.16613  0.14649  0.17128    Cd
Cd     0.16613  0.35351  0.67128    Cd
C       0.1786  0.57259   0.2628     C
C       0.1786  0.92741   0.7628     C
O       0.1976  0.20498  0.29463     O
O       0.1976  0.29502  0.79463     O
C       0.2006  0.52291   0.4793     C
C       0.2006  0.97709   0.9793     C
O       0.2014   0.1179   0.6292     O
O       0.2014   0.3821   0.1292     O
O       0.2086  0.73798    0.066     O
O       0.2086  0.76202    0.566     O
O       0.2094  0.06079  0.10478     O
O       0.2094  0.43921  0.60478     O
C       0.2129  0.55569   0.4101     C
C       0.2129  0.94431   0.9101     C
C       0.2163  0.64647   0.1362     C
C       0.2163  0.85353   0.6362     C
N       0.2175   0.1411   0.6949     N
N       0.2175   0.3589   0.1949     N
H       0.2239   0.2458   0.4352     H
H       0.2239   0.2542   0.9352     H
H       0.2335   0.5358   0.5295     H
H       0.2335   0.9642   0.0295     H
C       0.2376   0.6859    0.069     C
C       0.2376   0.8141    0.569     C
O       0.2489  0.65436   0.4503     O
O       0.2489  0.84564   0.9503     O
C       0.2605  0.23145   0.0893     C
C       0.2605  0.26855   0.5893     C
C       0.2613  0.56321   0.2224     C
C       0.2613  0.93679   0.7224     C
C       0.2635   0.1688   0.3261     C
C       0.2635   0.3312   0.8261     C
C       0.2694  0.21712   0.4603     C
C       0.2694  0.28288   0.9603     C
C       0.2801  0.59855   0.1592     C
C       0.2801  0.90145   0.6592     C
C       0.2817  0.60971   0.4196     C
C       0.2817  0.89029   0.9196     C
O       0.2844  0.66355   0.0179     O
O       0.2844  0.83645   0.5179     O
O       0.2954  0.12664  0.28603     O
O       0.2954  0.37336  0.78603     O
C       0.3008  0.21904   0.5427     C
C       0.3008  0.28096   0.0427     C
H       0.3015   0.1605   0.8407     H
H       0.3015   0.3395   0.3407     H
O       0.3036  0.02942   0.7781     O
O       0.3036  0.47058   0.2781     O
C       0.3048  0.17279   0.4147     C
C       0.3048  0.32721   0.9147     C
Cd     0.30599  0.74815   0.4528    Cd
Cd     0.30599  0.75185   0.9528    Cd
O        0.321  0.19253  0.12226     O
O        0.321  0.30747  0.62226     O
C       0.3227  0.16502   0.7253     C
C       0.3227  0.33498   0.2253     C
H       0.3351     0.59   0.1327     H
H       0.3351     0.91   0.6327     H
N       0.3352  0.51545   0.2486     N
N       0.3352  0.98455   0.7486     N
C       0.3487  0.17104   0.8077     C
C       0.3487  0.32896   0.3077     C
C       0.3648  0.17517   0.5835     C
C       0.3648  0.32483   0.0835     C
O       0.3654  0.60485   0.3943     O
O       0.3654  0.89515   0.8943     O
C       0.3726   0.1303   0.4531     C
C       0.3726   0.3697   0.9531     C
O       0.3808   0.6722   0.8665     O
O       0.3808   0.8278   0.3665     O
C       0.3926  0.17782   0.6728     C
C       0.3926  0.32218   0.1728     C
H       0.3984   0.1009   0.4233     H
H       0.3984   0.3991   0.9233     H
C       0.4012   0.1315   0.5347     C
C       0.4012   0.3685   0.0347     C
O       0.4165  0.73406   0.3624     O
O       0.4165  0.76594   0.8624     O
H       0.4217   0.7249   0.6884     H
H       0.4217   0.7751   0.1884     H
O       0.4263  0.52362   0.2417     O
O       0.4263  0.97638   0.7417     O
C       0.4298   0.7122   0.8433     C
C       0.4298   0.7878   0.3433     C
O       0.4347  0.16735  0.97345     O
O       0.4347  0.33265  0.47345     O
C       0.4457  0.19292   0.8409     C
C       0.4457  0.30708   0.3409     C
O       0.4464    0.733    0.547     O
O       0.4464    0.767    0.047     O
O       0.4632   0.0672   0.6385     O
O       0.4632   0.4328   0.1385     O
N       0.4701   0.0836   0.5714     N
N       0.4701   0.4164   0.0714     N
O       0.4714   0.5619   0.9683     O
O       0.4714   0.9381   0.4683     O
C       0.4807    0.198   0.9299     C
C       0.4807    0.302   0.4299     C
Cd     0.48088  0.15403  0.10454    Cd
Cd     0.48088  0.34597  0.60454    Cd
C       0.4856   0.7084     0.71     C
C       0.4856   0.7916     0.21     C
C       0.4894  0.19966   0.7081     C
C       0.4894  0.30034   0.2081     C
C       0.5106  0.69966   0.7919     C
C       0.5106  0.80034   0.2919     C
C       0.5144   0.2084     0.79     C
C       0.5144   0.2916     0.29     C
Cd     0.51912  0.65403  0.39546    Cd
Cd     0.51912  0.84597  0.89546    Cd
C       0.5193    0.698   0.5701     C
C       0.5193    0.802   0.0701     C
O       0.5286   0.0619   0.5317     O
O       0.5286   0.4381   0.0317     O
N       0.5299   0.5836   0.9286     N
N       0.5299   0.9164   0.4286     N
O       0.5368   0.5672   0.8615     O
O       0.5368   0.9328   0.3615     O
O       0.5536    0.233    0.953     O
O       0.5536    0.267    0.453     O
C       0.5543  0.69292   0.6591     C
C       0.5543  0.80708   0.1591     C
O       0.5653  0.66735  0.52655     O
O       0.5653  0.83265  0.02655     O
C       0.5702   0.2122   0.6567     C
C       0.5702   0.2878   0.1567     C
O       0.5737  0.02362   0.2583     O
O       0.5737  0.47638   0.7583     O
H       0.5783   0.2249   0.8116     H
H       0.5783   0.2751   0.3116     H
O       0.5835  0.23406   0.1376     O
O       0.5835  0.26594   0.6376     O
C       0.5988   0.6315   0.9653     C
C       0.5988   0.8685   0.4653     C
H       0.6016   0.6009   0.0767     H
H       0.6016   0.8991   0.5767     H
C       0.6074  0.67782   0.8272     C
C       0.6074  0.82218   0.3272     C
O       0.6192   0.1722   0.6335     O
O       0.6192   0.3278   0.1335     O
C       0.6274   0.6303   0.0469     C
C       0.6274   0.8697   0.5469     C
O       0.6346  0.10485   0.1057     O
O       0.6346  0.39515   0.6057     O
C       0.6352  0.67517   0.9165     C
C       0.6352  0.82483   0.4165     C
C       0.6513  0.67104   0.6923     C
C       0.6513  0.82896   0.1923     C
N       0.6648  0.01545   0.2514     N
N       0.6648  0.48455   0.7514     N
H       0.6649     0.09   0.3673     H
H       0.6649     0.41   0.8673     H
C       0.6773  0.66502   0.7747     C
C       0.6773  0.83498   0.2747     C
O        0.679  0.69253  0.37774     O
O        0.679  0.80747  0.87774     O
Cd     0.69401  0.24815   0.0472    Cd
Cd     0.69401  0.25185   0.5472    Cd
C       0.6952  0.67279   0.0853     C
C       0.6952  0.82721   0.5853     C
O       0.6964  0.52942   0.7219     O
O       0.6964  0.97058   0.2219     O
H       0.6985   0.6605   0.6593     H
H       0.6985   0.8395   0.1593     H
C       0.6992  0.71904   0.9573     C
C       0.6992  0.78096   0.4573     C
O       0.7046  0.62664  0.21397     O
O       0.7046  0.87336  0.71397     O
O       0.7156  0.16355   0.4821     O
O       0.7156  0.33645   0.9821     O
C       0.7183  0.10971   0.0804     C
C       0.7183  0.39029   0.5804     C
C       0.7199  0.09855   0.3408     C
C       0.7199  0.40145   0.8408     C
C       0.7306  0.71712   0.0397     C
C       0.7306  0.78288   0.5397     C
C       0.7365   0.6688   0.1739     C
C       0.7365   0.8312   0.6739     C
C       0.7387  0.06321   0.2776     C
C       0.7387  0.43679   0.7776     C
C       0.7395  0.73145   0.4107     C
C       0.7395  0.76855   0.9107     C
O       0.7511  0.15436   0.0497     O
O       0.7511  0.34564   0.5497     O
C       0.7624   0.1859    0.431     C
C       0.7624   0.3141    0.931     C
H       0.7665   0.0358   0.9705     H
H       0.7665   0.4642   0.4705     H
H       0.7761   0.7458   0.0648     H
H       0.7761   0.7542   0.5648     H
N       0.7825   0.6411   0.8051     N
N       0.7825   0.8589   0.3051     N
C       0.7837  0.14647   0.3638     C
C       0.7837  0.35353   0.8638     C
C       0.7871  0.05569   0.0899     C
C       0.7871  0.44431   0.5899     C
O       0.7906  0.56079  0.39522     O
O       0.7906  0.93921  0.89522     O
O       0.7914  0.23798    0.434     O
O       0.7914  0.26202    0.934     O
O       0.7986   0.6179   0.8708     O
O       0.7986   0.8821   0.3708     O
C       0.7994  0.02291   0.0207     C
C       0.7994  0.47709   0.5207     C
O       0.8024  0.70498  0.20537     O
O       0.8024  0.79502  0.70537     O
C       0.8214  0.07259   0.2372     C
C       0.8214  0.42741   0.7372     C
Cd     0.83387  0.64649  0.32872    Cd
Cd     0.83387  0.85351  0.82872    Cd
O       0.8342  0.73099   0.4075     O
O       0.8342  0.76901   0.9075     O
C       0.8393  0.03723   0.1655     C
C       0.8393  0.46277   0.6655     C
O       0.8476  0.64612   0.7631     O
O       0.8476  0.85388   0.2631     O
C       0.8591   0.5274   0.5265     C
C       0.8591   0.9726   0.0265     C
C       0.8617    0.567   0.4555     C
C       0.8617    0.933   0.9555     C
C       0.8626  0.15989   0.3224     C
C       0.8626  0.34011   0.8224     C
C       0.8848  0.12266   0.2614     C
C       0.8848  0.37734   0.7614     C
H       0.9017   0.1941   0.3352     H
H       0.9017   0.3059   0.8352     H
C       0.9053   0.5107   0.6681     C
C       0.9053   0.9893   0.1681     C
C       0.9177   0.5434   0.6008     C
C       0.9177   0.9566   0.1008     C
O        0.928  0.60553   0.4595     O
O        0.928  0.89447   0.9595     O
O        0.939  0.51663   0.8075     O
O        0.939  0.98337   0.3075     O
O        0.951  0.59645   0.2653     O
O        0.951  0.90355   0.7653     O
O       0.9527   0.0591   0.7584     O
O       0.9527   0.4409   0.2584     O
H       0.9638   0.5751   0.6049     H
H       0.9638   0.9249   0.1049     H
N       0.9673   0.5297   0.7445     N
N       0.9673   0.9703   0.2445     N
C       0.9782   0.1336   0.2227     C
C       0.9782   0.3664   0.7227     C
O       0.9816  0.18019   0.1815     O
O       0.9816  0.31981   0.6815     O
