data_I
_chemical_name_common  '/home/zhangsd/repos/MofS-CGCNN/ML/data/TSD/clean_cifs/UKUBUY_clean'
_cell_length_a 12.14700
_cell_length_b 12.14700
_cell_length_c 24.74400
_cell_angle_alpha 90.00000
_cell_angle_beta  90.00000
_cell_angle_gamma 90.00000
_space_group_name_H-M_alt      'P 1'


loop_
_space_group_symop_operation_xyz
  'x, y, z' 

loop_
_atom_site_label
_atom_site_fract_x
_atom_site_fract_y
_atom_site_fract_z
_atom_site_type_symbol
C        0.005   0.8147     0.45     C
H       0.0074   0.4443   0.5646     H
H       0.0174   0.1396   0.2545     H
C       0.0207   0.3747  0.55041     C
C       0.0246    0.196  0.27972     C
C       0.0257   0.6303  0.68486     C
H       0.0307   0.3747   0.0829     H
C       0.0336   0.7145  0.42923     C
H       0.0365   0.8789   0.4366     H
C        0.044   0.7148   0.7217     C
S      0.05028  0.27796  0.08064     S
H       0.0557   0.0074   0.9354     H
C       0.0571   0.3581  0.35212     C
H       0.0671    0.931   0.1854     H
H        0.069   0.4156   0.3763     H
H        0.069   0.5671   0.6854     H
C       0.0718   0.1808  0.50856     C
H       0.0756   0.1301   0.0051     H
H       0.0844    0.069   0.1237     H
H        0.089   0.8026   0.8168     H
H       0.0896   0.1118   0.4948     H
C       0.0958   0.3618  0.50859     C
H       0.0992   0.8256   0.3419     H
C       0.1048   0.1908   0.3192     C
O       0.1076   0.6966  0.38991     O
H       0.1118   0.4104   0.0052     H
H       0.1211   0.5365   0.9366     H
N       0.1212   0.2661  0.48733     N
N       0.1222   0.2696   0.3559     N
C       0.1253   0.0207  0.94959     C
H       0.1253   0.0307   0.4171     H
O       0.1285   0.7004   0.7569     O
H       0.1287   0.3506   0.1797     H
H       0.1301   0.4244   0.4949     H
C       0.1303   0.9743  0.18486     C
C       0.1382   0.0958  0.99141     C
H       0.1396   0.4826   0.2455     H
C       0.1419   0.0571  0.14788     C
H       0.1451   0.6704   0.2744     H
H       0.1494   0.1287   0.3203     H
C       0.1522   0.7881  0.79388     C
C       0.1544    0.789  0.36378     C
H        0.159   0.6812   0.8905     H
H       0.1704   0.8549   0.7744     H
H       0.1744   0.5992   0.8419     H
C       0.1808   0.4282  0.99144     C
H       0.1812    0.841   0.3905     H
C       0.1853    0.505     0.95     C
C       0.1908   0.3952   0.1808     C
C        0.196   0.4754  0.22028     C
O       0.1966   0.8924  0.88991     O
H       0.1974    0.589   0.3168     H
O       0.2004   0.8715   0.2569     O
C        0.211   0.6544  0.86378     C
C       0.2119   0.6522  0.29388     C
C       0.2145   0.9664  0.92923     C
C       0.2148    0.956   0.2217     C
S      0.22204  0.05028  0.41936     S
N       0.2304   0.1222   0.1441     N
N       0.2339   0.1212  0.01267     N
Fe        0.25     0.25  0.07888    Fe
Fe        0.25     0.25  0.42112    Fe
C         0.25     0.75   0.3278     C
C         0.25     0.75   0.8278     C
N       0.2661   0.3788  0.01267     N
N       0.2696   0.3778   0.1441     N
S      0.27796  0.44972  0.41936     S
C       0.2852    0.544   0.2217     C
C       0.2855   0.5336  0.92923     C
C       0.2881   0.8478  0.29388     C
C        0.289   0.8456  0.86378     C
O       0.2996   0.6285   0.2569     O
H       0.3026    0.911   0.3168     H
O       0.3034   0.6076  0.88991     O
C        0.304   0.0246  0.22028     C
C       0.3092   0.1048   0.1808     C
C       0.3147    0.995     0.95     C
H       0.3188    0.659   0.3905     H
C       0.3192   0.0718  0.99144     C
H       0.3256   0.9008   0.8419     H
H       0.3296   0.6451   0.7744     H
H        0.341   0.8188   0.8905     H
C       0.3456    0.711  0.36378     C
C       0.3478   0.7119  0.79388     C
H       0.3506   0.3713   0.3203     H
H       0.3549   0.8296   0.2744     H
C       0.3581   0.4429  0.14788     C
H       0.3604   0.0174   0.2455     H
C       0.3618   0.4042  0.99141     C
C       0.3697   0.5257  0.18486     C
H       0.3699   0.0756   0.4949     H
H       0.3713   0.1494   0.1797     H
O       0.3715   0.7996   0.7569     O
H       0.3747   0.4693   0.4171     H
C       0.3747   0.4793  0.94959     C
N       0.3778   0.2304   0.3559     N
N       0.3788   0.2339  0.48733     N
H       0.3789   0.9635   0.9366     H
H       0.3882   0.0896   0.0052     H
O       0.3924   0.8034  0.38991     O
C       0.3952   0.3092   0.3192     C
H       0.4008   0.6744   0.3419     H
C       0.4042   0.1382  0.50859     C
H       0.4104   0.3882   0.4948     H
H        0.411   0.6974   0.8168     H
H       0.4156    0.431   0.1237     H
H       0.4244   0.3699   0.0051     H
C       0.4282   0.3192  0.50856     C
H        0.431   0.0844   0.3763     H
H        0.431   0.9329   0.6854     H
H       0.4329    0.569   0.1854     H
C       0.4429   0.1419  0.35212     C
H       0.4443   0.4926   0.9354     H
S      0.44972  0.22204  0.08064     S
C        0.456   0.7852   0.7217     C
H       0.4635   0.6211   0.4366     H
C       0.4664   0.7855  0.42923     C
H       0.4693   0.1253   0.0829     H
C       0.4743   0.8697  0.68486     C
C       0.4754    0.304  0.27972     C
C       0.4793   0.1253  0.55041     C
H       0.4826   0.3604   0.2545     H
H       0.4926   0.0557   0.5646     H
C        0.495   0.6853     0.45     C
C        0.505   0.3147     0.55     C
H       0.5074   0.9443   0.4354     H
H       0.5174   0.6396   0.7455     H
C       0.5207   0.8747  0.44959     C
C       0.5246    0.696  0.72028     C
C       0.5257   0.1303  0.31514     C
H       0.5307   0.8747   0.9171     H
C       0.5336   0.2145  0.57077     C
H       0.5365   0.3789   0.5634     H
C        0.544   0.2148   0.2783     C
S      0.55028  0.77796  0.91936     S
H       0.5557   0.5074   0.0646     H
C       0.5571   0.8581  0.64788     C
H       0.5671    0.431   0.8146     H
H        0.569   0.0671   0.3146     H
H        0.569   0.9156   0.6237     H
C       0.5718   0.6808  0.49144     C
H       0.5756   0.6301   0.9949     H
H       0.5844    0.569   0.8763     H
H        0.589   0.3026   0.1832     H
H       0.5896   0.6118   0.5052     H
C       0.5958   0.8618  0.49141     C
H       0.5992   0.3256   0.6581     H
C       0.6048   0.6908   0.6808     C
O       0.6076   0.1966  0.61009     O
H       0.6118   0.9104   0.9948     H
H       0.6211   0.0365   0.0634     H
N       0.6212   0.7661  0.51267     N
N       0.6222   0.7696   0.6441     N
C       0.6253   0.5207  0.05041     C
H       0.6253   0.5307   0.5829     H
O       0.6285   0.2004   0.2431     O
H       0.6287   0.8506   0.8203     H
H       0.6301   0.9244   0.5051     H
C       0.6303   0.4743  0.81514     C
C       0.6382   0.5958  0.00859     C
H       0.6396   0.9826   0.7545     H
C       0.6419   0.5571  0.85212     C
H       0.6451   0.1704   0.7256     H
H       0.6494   0.6287   0.6797     H
C       0.6522   0.2881  0.20612     C
C       0.6544    0.289  0.63622     C
H        0.659   0.1812   0.1095     H
H       0.6704   0.3549   0.2256     H
H       0.6744   0.0992   0.1581     H
C       0.6808   0.9282  0.00856     C
H       0.6812    0.341   0.6095     H
C       0.6853    0.005     0.05     C
C       0.6908   0.8952   0.8192     C
C        0.696   0.9754  0.77972     C
O       0.6966   0.3924  0.11009     O
H       0.6974    0.089   0.6832     H
O       0.7004   0.3715   0.7431     O
C        0.711   0.1544  0.13622     C
C       0.7119   0.1522  0.70612     C
C       0.7145   0.4664  0.07077     C
C       0.7148    0.456   0.7783     C
S      0.72204  0.55028  0.58064     S
N       0.7304   0.6222   0.8559     N
N       0.7339   0.6212  0.98733     N
C         0.75     0.25   0.1722     C
C         0.75     0.25   0.6722     C
Fe        0.75     0.75  0.57888    Fe
Fe        0.75     0.75  0.92112    Fe
N       0.7661   0.8788  0.98733     N
N       0.7696   0.8778   0.8559     N
S      0.77796  0.94972  0.58064     S
C       0.7852    0.044   0.7783     C
C       0.7855   0.0336  0.07077     C
C       0.7881   0.3478  0.70612     C
C        0.789   0.3456  0.13622     C
O       0.7996   0.1285   0.7431     O
H       0.8026    0.411   0.6832     H
O       0.8034   0.1076  0.11009     O
C        0.804   0.5246  0.77972     C
C       0.8092   0.6048   0.8192     C
C       0.8147    0.495     0.05     C
H       0.8188    0.159   0.6095     H
C       0.8192   0.5718  0.00856     C
H       0.8256   0.4008   0.1581     H
H       0.8296   0.1451   0.2256     H
H        0.841   0.3188   0.1095     H
C       0.8456    0.211  0.63622     C
C       0.8478   0.2119  0.20612     C
H       0.8506   0.8713   0.6797     H
H       0.8549   0.3296   0.7256     H
C       0.8581   0.9429  0.85212     C
H       0.8604   0.5174   0.7545     H
C       0.8618   0.9042  0.00859     C
C       0.8697   0.0257  0.81514     C
H       0.8699   0.5756   0.5051     H
H       0.8713   0.6494   0.8203     H
O       0.8715   0.2996   0.2431     O
H       0.8747   0.9693   0.5829     H
C       0.8747   0.9793  0.05041     C
N       0.8778   0.7304   0.6441     N
N       0.8788   0.7339  0.51267     N
H       0.8789   0.4635   0.0634     H
H       0.8882   0.5896   0.9948     H
O       0.8924   0.3034  0.61009     O
C       0.8952   0.8092   0.6808     C
H       0.9008   0.1744   0.6581     H
C       0.9042   0.6382  0.49141     C
H       0.9104   0.8882   0.5052     H
H        0.911   0.1974   0.1832     H
H       0.9156    0.931   0.8763     H
H       0.9244   0.8699   0.9949     H
C       0.9282   0.8192  0.49144     C
H        0.931   0.4329   0.3146     H
H        0.931   0.5844   0.6237     H
H       0.9329    0.069   0.8146     H
C       0.9429   0.6419  0.64788     C
H       0.9443   0.9926   0.0646     H
S      0.94972  0.72204  0.91936     S
C        0.956   0.2852   0.2783     C
H       0.9635   0.1211   0.5634     H
C       0.9664   0.2855  0.57077     C
H       0.9693   0.6253   0.9171     H
C       0.9743   0.3697  0.31514     C
C       0.9754    0.804  0.72028     C
C       0.9793   0.6253  0.44959     C
H       0.9826   0.8604   0.7455     H
H       0.9926   0.5557   0.4354     H
C        0.995   0.1853     0.55     C
