data_I
_chemical_name_common  '/home/zhangsd/repos/MofS-CGCNN/ML/data/TSD/clean_cifs/ULIMIN_clean'
_cell_length_a 31.28100
_cell_length_b 10.56760
_cell_length_c 19.87500
_cell_angle_alpha 90.00000
_cell_angle_beta  94.44400
_cell_angle_gamma 90.00000
_space_group_name_H-M_alt      'P 1'


loop_
_space_group_symop_operation_xyz
  'x, y, z' 

loop_
_atom_site_label
_atom_site_fract_x
_atom_site_fract_y
_atom_site_fract_z
_atom_site_type_symbol
Co         0.0      0.0      0.0    Co
Co         0.0      0.0      0.5    Co
H          0.0   0.1754   0.6262     H
H          0.0   0.1754   0.8738     H
H          0.0   0.8246   0.1262     H
H          0.0   0.8246   0.3738     H
C      0.00749   0.3772  0.07483     C
C      0.00749   0.6228  0.57483     C
N      0.01104   0.1878  0.46654     N
N      0.01104   0.8122  0.96654     N
N       0.0206   0.2586  0.06297     N
N       0.0206   0.7414  0.56297     N
H       0.0241   0.4419    0.095     H
H       0.0241   0.5581    0.595     H
N      0.02637   0.1528   0.8804     N
N      0.02637   0.8472   0.3804     N
C       0.0349    0.385  0.44839     C
C       0.0349    0.615  0.94839     C
N      0.04119   0.0749  0.92941     N
N      0.04119   0.9251  0.42941     N
C       0.0446   0.2652  0.47313     C
C       0.0446   0.7348  0.97313     C
H       0.0462   0.2315   0.0731     H
H       0.0462   0.7685   0.5731     H
H       0.0464    0.429   0.9304     H
H       0.0464    0.571   0.4304     H
O      0.05165   0.0389  0.57344     O
O      0.05165   0.9611  0.07344     O
H       0.0535   0.2457   0.8065     H
H       0.0535   0.7543   0.3065     H
C       0.0571   0.1912   0.8433     C
C       0.0571   0.8088   0.3433     C
C      0.06337   0.4997   0.4478     C
C      0.06337   0.5003   0.9478     C
H       0.0715   0.2416   0.4922     H
H       0.0715   0.7584   0.9922     H
H       0.0737   0.4806   0.9938     H
H       0.0737   0.5194   0.4938     H
H       0.0828   0.3588   0.3299     H
H       0.0828   0.6412   0.8299     H
C      0.08292   0.0706   0.9216     C
C      0.08292   0.9294   0.4216     C
H       0.0855   0.2362   0.6212     H
H       0.0855   0.7638   0.1212     H
C      0.08715   0.0103  0.09315     C
C      0.08715   0.9897  0.59315     C
C      0.09437   0.1391   0.8669     C
C      0.09437   0.8609   0.3669     C
O      0.09579   0.1257  0.09058     O
O      0.09579   0.8743  0.59058     O
H       0.0987     0.36   0.1798     H
H       0.0987     0.64   0.6798     H
O      0.09985   0.4665  0.66018     O
O      0.09985   0.5335  0.16018     O
C      0.10112   0.4843   0.4064     C
C      0.10112   0.5157   0.9064     C
H       0.1024   0.0258   0.9501     H
H       0.1024   0.9742   0.4501     H
C      0.10455   0.4109   0.3486     C
C      0.10455   0.5891   0.8486     C
O      0.10976    0.296  0.19679     O
O      0.10976    0.704  0.69679     O
C      0.11292   0.2052  0.63277     C
C      0.11292   0.7948  0.13277     C
H        0.113   0.0833   0.2857     H
H        0.113   0.9167   0.7857     H
C      0.12206   0.0775  0.62262     C
C      0.12206   0.9225  0.12262     C
H       0.1352    0.212   0.8022     H
H       0.1352    0.788   0.3022     H
C      0.13745   0.4225   0.6726     C
C      0.13745   0.5775   0.1726     C
C      0.13801   0.1587    0.842     C
C      0.13801   0.8413    0.342     C
C      0.14007   0.4565   0.9141     C
C      0.14007   0.5435   0.4141     C
C      0.14226   0.0714    0.296     C
C      0.14226   0.9286    0.796     C
N      0.14254   0.4243  0.32325     N
N      0.14254   0.5757  0.82325     N
C      0.14496   0.2863   0.6604     C
C      0.14496   0.7137   0.1604     C
H       0.1485   0.3996   0.9483     H
H       0.1485   0.6004   0.4483     H
H       0.1558   0.2033   0.8764     H
H       0.1558   0.7967   0.3764     H
C      0.16008   0.0387  0.82499     C
C      0.16008   0.9613  0.32499     C
C      0.16317   0.0321  0.63757     C
C      0.16317   0.9679  0.13757     C
N      0.16381   0.4931  0.86538     N
N      0.16381   0.5069  0.36538     N
H       0.1693   0.0523   0.1291     H
H       0.1693   0.9477   0.6291     H
O      0.16939  0.48827  0.69252     O
O      0.16939  0.51173  0.19252     O
N      0.17168   0.1566  0.28483     N
N      0.17168   0.8434  0.78483     N
Co     0.17187  0.34107    0.243    Co
Co     0.17187  0.65893    0.743    Co
C      0.18546   0.2362  0.67768     C
C      0.18546   0.7638  0.17768     C
H       0.1895   0.4673   0.8611     H
H       0.1895   0.5327   0.3611     H
C      0.19543    0.111  0.66515     C
C      0.19543    0.889  0.16515     C
C      0.20308   0.0156   0.8304     C
C      0.20308   0.9844   0.3304     C
O      0.20576    0.272  0.15975     O
O      0.20576    0.728  0.65975     O
H       0.2065   0.2884   0.6983     H
H       0.2065   0.7116   0.1983     H
N      0.20877   0.1009  0.30694     N
N      0.20877   0.8991  0.80694     N
H       0.2172   0.2043   0.1702     H
H       0.2172   0.7957   0.6702     H
H       0.2245   0.0708   0.8473     H
H       0.2245   0.9292   0.3473     H
O      0.23331    0.357  0.29204     O
O      0.23331    0.643  0.79204     O
H       0.2334   0.1365   0.3061     H
H       0.2334   0.8635   0.8061     H
C      0.24083   0.0644  0.68016     C
C      0.24083   0.9356  0.18016     C
O       0.2496   0.4538  0.83503     O
O       0.2496   0.5462  0.33503     O
O       0.2504   0.0462  0.16497     O
O       0.2504   0.9538  0.66497     O
C      0.25917   0.4356  0.31984     C
C      0.25917   0.5644  0.81984     C
H       0.2666   0.3635   0.6939     H
H       0.2666   0.6365   0.1939     H
O      0.26669    0.143  0.70796     O
O      0.26669    0.857  0.20796     O
H       0.2755   0.4292   0.1527     H
H       0.2755   0.5708   0.6527     H
H       0.2828   0.2957   0.8298     H
H       0.2828   0.7043   0.3298     H
N      0.29123   0.3991  0.69306     N
N      0.29123   0.6009  0.19306     N
H       0.2935   0.2116   0.3017     H
H       0.2935   0.7884   0.8017     H
O      0.29424    0.228  0.84025     O
O      0.29424    0.772  0.34025     O
C      0.29692   0.4844   0.1696     C
C      0.29692   0.5156   0.6696     C
C      0.30457    0.389  0.33485     C
C      0.30457    0.611  0.83485     C
H       0.3105   0.0327   0.1389     H
H       0.3105   0.9673   0.6389     H
C      0.31454   0.2638  0.32232     C
C      0.31454   0.7362  0.82232     C
Co     0.32813  0.15893    0.757    Co
Co     0.32813  0.84107    0.257    Co
N      0.32832   0.3434  0.71517     N
N      0.32832   0.6566  0.21517     N
O      0.33061  0.01173  0.30748     O
O      0.33061  0.98827  0.80748     O
H       0.3307   0.4477   0.8709     H
H       0.3307   0.5523   0.3709     H
N      0.33619   0.0069  0.13462     N
N      0.33619   0.9931  0.63462     N
C      0.33683   0.4679  0.36243     C
C      0.33683   0.5321  0.86243     C
C      0.33992   0.4613  0.17501     C
C      0.33992   0.5387  0.67501     C
H       0.3442   0.2967   0.1236     H
H       0.3442   0.7033   0.6236     H
H       0.3515   0.1004   0.0517     H
H       0.3515   0.8996   0.5517     H
C      0.35504   0.2137   0.3396     C
C      0.35504   0.7863   0.8396     C
N      0.35746   0.0757  0.67675     N
N      0.35746   0.9243  0.17675     N
C      0.35774   0.4286    0.704     C
C      0.35774   0.5714    0.204     C
C      0.35993   0.0435   0.0859     C
C      0.35993   0.9565   0.5859     C
C      0.36199   0.3413    0.158     C
C      0.36199   0.6587    0.658     C
C      0.36255   0.0775   0.3274     C
C      0.36255   0.9225   0.8274     C
H       0.3648    0.288   0.1978     H
H       0.3648    0.712   0.6978     H
C      0.37794   0.4225  0.37738     C
C      0.37794   0.5775  0.87738     C
H        0.387   0.4167   0.7143     H
H        0.387   0.5833   0.2143     H
C      0.38708   0.2948  0.36723     C
C      0.38708   0.7052  0.86723     C
O      0.39024    0.204  0.80321     O
O      0.39024    0.796  0.30321     O
C      0.39545   0.0891   0.6514     C
C      0.39545   0.9109   0.1514     C
H       0.3976   0.4742   0.0499     H
H       0.3976   0.5258   0.5499     H
C      0.39888   0.0157   0.5936     C
C      0.39888   0.9843   0.0936     C
O      0.40015   0.0335  0.33982     O
O      0.40015   0.9665  0.83982     O
H       0.4013     0.14   0.8202     H
H       0.4013     0.86   0.3202     H
O      0.40421   0.3743  0.90942     O
O      0.40421   0.6257  0.40942     O
C      0.40563   0.3609   0.1331     C
C      0.40563   0.6391   0.6331     C
C      0.41285   0.4897  0.90685     C
C      0.41285   0.5103  0.40685     C
H       0.4145   0.2638   0.3788     H
H       0.4145   0.7362   0.8788     H
C      0.41708   0.4294   0.0784     C
C      0.41708   0.5706   0.5784     C
H       0.4172   0.1412   0.6701     H
H       0.4172   0.8588   0.1701     H
H       0.4263   0.0194   0.0062     H
H       0.4263   0.9806   0.5062     H
H       0.4285   0.2584   0.5078     H
H       0.4285   0.7416   0.0078     H
C      0.43663   0.0003   0.5522     C
C      0.43663   0.9997   0.0522     C
C       0.4429   0.3088   0.1567     C
C       0.4429   0.6912   0.6567     C
H       0.4465   0.2543   0.1935     H
H       0.4465   0.7457   0.6935     H
O      0.44835   0.4611  0.42656     O
O      0.44835   0.5389  0.92656     O
H       0.4536    0.071   0.0696     H
H       0.4536    0.929   0.5696     H
H       0.4538   0.2685   0.9269     H
H       0.4538   0.7315   0.4269     H
C       0.4554   0.2348  0.52687     C
C       0.4554   0.7652  0.02687     C
N      0.45881   0.4251  0.07059     N
N      0.45881   0.5749  0.57059     N
C       0.4651    0.115  0.55161     C
C       0.4651    0.885  0.05161     C
N      0.47363   0.3472   0.1196     N
N      0.47363   0.6528   0.6196     N
H       0.4759   0.0581    0.905     H
H       0.4759   0.9419    0.405     H
N       0.4794   0.2414  0.93703     N
N       0.4794   0.7586  0.43703     N
N      0.48896   0.3122  0.53346     N
N      0.48896   0.6878  0.03346     N
C      0.49251   0.1228  0.92517     C
C      0.49251   0.8772  0.42517     C
H          0.5   0.3246   0.1262     H
H          0.5   0.3246   0.3738     H
Co         0.5      0.5      0.0    Co
Co         0.5      0.5      0.5    Co
H          0.5   0.6754   0.6262     H
H          0.5   0.6754   0.8738     H
C      0.50749   0.1228  0.57483     C
C      0.50749   0.8772  0.07483     C
N      0.51104   0.3122  0.96654     N
N      0.51104   0.6878  0.46654     N
N       0.5206   0.2414  0.56297     N
N       0.5206   0.7586  0.06297     N
H       0.5241   0.0581    0.595     H
H       0.5241   0.9419    0.095     H
N      0.52637   0.3472   0.3804     N
N      0.52637   0.6528   0.8804     N
C       0.5349    0.115  0.94839     C
C       0.5349    0.885  0.44839     C
N      0.54119   0.4251  0.42941     N
N      0.54119   0.5749  0.92941     N
C       0.5446   0.2348  0.97313     C
C       0.5446   0.7652  0.47313     C
H       0.5462   0.2685   0.5731     H
H       0.5462   0.7315   0.0731     H
H       0.5464    0.071   0.4304     H
H       0.5464    0.929   0.9304     H
O      0.55165   0.4611  0.07344     O
O      0.55165   0.5389  0.57344     O
H       0.5535   0.2543   0.3065     H
H       0.5535   0.7457   0.8065     H
C       0.5571   0.3088   0.3433     C
C       0.5571   0.6912   0.8433     C
C      0.56337   0.0003   0.9478     C
C      0.56337   0.9997   0.4478     C
H       0.5715   0.2584   0.9922     H
H       0.5715   0.7416   0.4922     H
H       0.5737   0.0194   0.4938     H
H       0.5737   0.9806   0.9938     H
H       0.5828   0.1412   0.8299     H
H       0.5828   0.8588   0.3299     H
C      0.58292   0.4294   0.4216     C
C      0.58292   0.5706   0.9216     C
H       0.5855   0.2638   0.1212     H
H       0.5855   0.7362   0.6212     H
C      0.58715   0.4897  0.59315     C
C      0.58715   0.5103  0.09315     C
C      0.59437   0.3609   0.3669     C
C      0.59437   0.6391   0.8669     C
O      0.59579   0.3743  0.59058     O
O      0.59579   0.6257  0.09058     O
H       0.5987     0.14   0.6798     H
H       0.5987     0.86   0.1798     H
O      0.59985   0.0335  0.16018     O
O      0.59985   0.9665  0.66018     O
C      0.60112   0.0157   0.9064     C
C      0.60112   0.9843   0.4064     C
H       0.6024   0.4742   0.4501     H
H       0.6024   0.5258   0.9501     H
C      0.60455   0.0891   0.8486     C
C      0.60455   0.9109   0.3486     C
O      0.60976    0.204  0.69679     O
O      0.60976    0.796  0.19679     O
C      0.61292   0.2948  0.13277     C
C      0.61292   0.7052  0.63277     C
H        0.613   0.4167   0.7857     H
H        0.613   0.5833   0.2857     H
C      0.62206   0.4225  0.12262     C
C      0.62206   0.5775  0.62262     C
H       0.6352    0.288   0.3022     H
H       0.6352    0.712   0.8022     H
C      0.63745   0.0775   0.1726     C
C      0.63745   0.9225   0.6726     C
C      0.63801   0.3413    0.342     C
C      0.63801   0.6587    0.842     C
C      0.64007   0.0435   0.4141     C
C      0.64007   0.9565   0.9141     C
C      0.64226   0.4286    0.796     C
C      0.64226   0.5714    0.296     C
N      0.64254   0.0757  0.82325     N
N      0.64254   0.9243  0.32325     N
C      0.64496   0.2137   0.1604     C
C      0.64496   0.7863   0.6604     C
H       0.6485   0.1004   0.4483     H
H       0.6485   0.8996   0.9483     H
H       0.6558   0.2967   0.3764     H
H       0.6558   0.7033   0.8764     H
C      0.66008   0.4613  0.32499     C
C      0.66008   0.5387  0.82499     C
C      0.66317   0.4679  0.13757     C
C      0.66317   0.5321  0.63757     C
N      0.66381   0.0069  0.36538     N
N      0.66381   0.9931  0.86538     N
H       0.6693   0.4477   0.6291     H
H       0.6693   0.5523   0.1291     H
O      0.66939  0.01173  0.19252     O
O      0.66939  0.98827  0.69252     O
N      0.67168   0.3434  0.78483     N
N      0.67168   0.6566  0.28483     N
Co     0.67187  0.15893    0.743    Co
Co     0.67187  0.84107    0.243    Co
C      0.68546   0.2638  0.17768     C
C      0.68546   0.7362  0.67768     C
H       0.6895   0.0327   0.3611     H
H       0.6895   0.9673   0.8611     H
C      0.69543    0.389  0.16515     C
C      0.69543    0.611  0.66515     C
C      0.70308   0.4844   0.3304     C
C      0.70308   0.5156   0.8304     C
O      0.70576    0.228  0.65975     O
O      0.70576    0.772  0.15975     O
H       0.7065   0.2116   0.1983     H
H       0.7065   0.7884   0.6983     H
N      0.70877   0.3991  0.80694     N
N      0.70877   0.6009  0.30694     N
H       0.7172   0.2957   0.6702     H
H       0.7172   0.7043   0.1702     H
H       0.7245   0.4292   0.3473     H
H       0.7245   0.5708   0.8473     H
O      0.73331    0.143  0.79204     O
O      0.73331    0.857  0.29204     O
H       0.7334   0.3635   0.8061     H
H       0.7334   0.6365   0.3061     H
C      0.74083   0.4356  0.18016     C
C      0.74083   0.5644  0.68016     C
O       0.7496   0.0462  0.33503     O
O       0.7496   0.9538  0.83503     O
O       0.7504   0.4538  0.66497     O
O       0.7504   0.5462  0.16497     O
C      0.75917   0.0644  0.81984     C
C      0.75917   0.9356  0.31984     C
H       0.7666   0.1365   0.1939     H
H       0.7666   0.8635   0.6939     H
O      0.76669    0.357  0.20796     O
O      0.76669    0.643  0.70796     O
H       0.7755   0.0708   0.6527     H
H       0.7755   0.9292   0.1527     H
H       0.7828   0.2043   0.3298     H
H       0.7828   0.7957   0.8298     H
N      0.79123   0.1009  0.19306     N
N      0.79123   0.8991  0.69306     N
H       0.7935   0.2884   0.8017     H
H       0.7935   0.7116   0.3017     H
O      0.79424    0.272  0.34025     O
O      0.79424    0.728  0.84025     O
C      0.79692   0.0156   0.6696     C
C      0.79692   0.9844   0.1696     C
C      0.80457    0.111  0.83485     C
C      0.80457    0.889  0.33485     C
H       0.8105   0.4673   0.6389     H
H       0.8105   0.5327   0.1389     H
C      0.81454   0.2362  0.82232     C
C      0.81454   0.7638  0.32232     C
Co     0.82813  0.34107    0.257    Co
Co     0.82813  0.65893    0.757    Co
N      0.82832   0.1566  0.21517     N
N      0.82832   0.8434  0.71517     N
O      0.83061  0.48827  0.80748     O
O      0.83061  0.51173  0.30748     O
H       0.8307   0.0523   0.3709     H
H       0.8307   0.9477   0.8709     H
N      0.83619   0.4931  0.63462     N
N      0.83619   0.5069  0.13462     N
C      0.83683   0.0321  0.86243     C
C      0.83683   0.9679  0.36243     C
C      0.83992   0.0387  0.67501     C
C      0.83992   0.9613  0.17501     C
H       0.8442   0.2033   0.6236     H
H       0.8442   0.7967   0.1236     H
H       0.8515   0.3996   0.5517     H
H       0.8515   0.6004   0.0517     H
C      0.85504   0.2863   0.8396     C
C      0.85504   0.7137   0.3396     C
N      0.85746   0.4243  0.17675     N
N      0.85746   0.5757  0.67675     N
C      0.85774   0.0714    0.204     C
C      0.85774   0.9286    0.704     C
C      0.85993   0.4565   0.5859     C
C      0.85993   0.5435   0.0859     C
C      0.86199   0.1587    0.658     C
C      0.86199   0.8413    0.158     C
C      0.86255   0.4225   0.8274     C
C      0.86255   0.5775   0.3274     C
H       0.8648    0.212   0.6978     H
H       0.8648    0.788   0.1978     H
C      0.87794   0.0775  0.87738     C
C      0.87794   0.9225  0.37738     C
H        0.887   0.0833   0.2143     H
H        0.887   0.9167   0.7143     H
C      0.88708   0.2052  0.86723     C
C      0.88708   0.7948  0.36723     C
O      0.89024    0.296  0.30321     O
O      0.89024    0.704  0.80321     O
C      0.89545   0.4109   0.1514     C
C      0.89545   0.5891   0.6514     C
H       0.8976   0.0258   0.5499     H
H       0.8976   0.9742   0.0499     H
C      0.89888   0.4843   0.0936     C
C      0.89888   0.5157   0.5936     C
O      0.90015   0.4665  0.83982     O
O      0.90015   0.5335  0.33982     O
H       0.9013     0.36   0.3202     H
H       0.9013     0.64   0.8202     H
O      0.90421   0.1257  0.40942     O
O      0.90421   0.8743  0.90942     O
C      0.90563   0.1391   0.6331     C
C      0.90563   0.8609   0.1331     C
C      0.91285   0.0103  0.40685     C
C      0.91285   0.9897  0.90685     C
H       0.9145   0.2362   0.8788     H
H       0.9145   0.7638   0.3788     H
C      0.91708   0.0706   0.5784     C
C      0.91708   0.9294   0.0784     C
H       0.9172   0.3588   0.1701     H
H       0.9172   0.6412   0.6701     H
H       0.9263   0.4806   0.5062     H
H       0.9263   0.5194   0.0062     H
H       0.9285   0.2416   0.0078     H
H       0.9285   0.7584   0.5078     H
C      0.93663   0.4997   0.0522     C
C      0.93663   0.5003   0.5522     C
C       0.9429   0.1912   0.6567     C
C       0.9429   0.8088   0.1567     C
H       0.9465   0.2457   0.6935     H
H       0.9465   0.7543   0.1935     H
O      0.94835   0.0389  0.92656     O
O      0.94835   0.9611  0.42656     O
H       0.9536    0.429   0.5696     H
H       0.9536    0.571   0.0696     H
H       0.9538   0.2315   0.4269     H
H       0.9538   0.7685   0.9269     H
C       0.9554   0.2652  0.02687     C
C       0.9554   0.7348  0.52687     C
N      0.95881   0.0749  0.57059     N
N      0.95881   0.9251  0.07059     N
C       0.9651    0.385  0.05161     C
C       0.9651    0.615  0.55161     C
N      0.97363   0.1528   0.6196     N
N      0.97363   0.8472   0.1196     N
H       0.9759   0.4419    0.405     H
H       0.9759   0.5581    0.905     H
N       0.9794   0.2586  0.43703     N
N       0.9794   0.7414  0.93703     N
N      0.98896   0.1878  0.03346     N
N      0.98896   0.8122  0.53346     N
C      0.99251   0.3772  0.42517     C
C      0.99251   0.6228  0.92517     C
