data_I
_chemical_name_common  '/home/zhangsd/repos/MofS-CGCNN/ML/data/TSD/clean_cifs/UMOKIS_clean'
_cell_length_a 12.11500
_cell_length_b 25.75100
_cell_length_c 35.58800
_cell_angle_alpha 90.00000
_cell_angle_beta  90.63900
_cell_angle_gamma 90.00000
_space_group_name_H-M_alt      'P 1'


loop_
_space_group_symop_operation_xyz
  'x, y, z' 

loop_
_atom_site_label
_atom_site_fract_x
_atom_site_fract_y
_atom_site_fract_z
_atom_site_type_symbol
H        0.001   0.5959   0.2335     H
H        0.001   0.9041   0.7335     H
O       0.0015  0.64662  0.85076     O
O       0.0015  0.85338  0.35076     O
H       0.0096     0.62   0.6773     H
H       0.0096     0.88   0.1773     H
C       0.0112  0.08452  0.69821     C
C       0.0112  0.41548  0.19821     C
H       0.0125   0.6871   0.3451     H
H       0.0125   0.8129   0.8451     H
C       0.0174  0.64289  0.69737     C
C       0.0174  0.85711  0.19737     C
C       0.0192  0.19964  0.76057     C
C       0.0192  0.30036  0.26057     C
C       0.0266   0.6896  0.40203     C
C       0.0266   0.8104  0.90203     C
H       0.0297   0.1679   0.0898     H
H       0.0297   0.3321   0.5898     H
C       0.0366   0.0152  0.74265     C
C       0.0366   0.4848  0.24265     C
H       0.0403   0.7375    0.805     H
H       0.0403   0.7625    0.305     H
H       0.0442   0.1712   0.2366     H
H       0.0442   0.3288   0.7366     H
C       0.0493      0.7   0.3662     C
C       0.0493      0.8   0.8662     C
H       0.0527   0.2235   0.8631     H
H       0.0527   0.2765   0.3631     H
C       0.0533  0.13006  0.67584     C
C       0.0533  0.36994  0.17584     C
C       0.0543  0.09535   0.2486     C
C       0.0543  0.40465   0.7486     C
H       0.0565   0.2237   0.7459     H
H       0.0565   0.2763   0.2459     H
N       0.0643  0.17367  0.78872     N
N       0.0643  0.32633  0.28872     N
C       0.0717   0.0014  0.26199     C
C       0.0717   0.4986  0.76199     C
C       0.0762   0.0576  0.72325     C
C       0.0762   0.4424  0.22325     C
C       0.0816  0.14072   0.2307     C
C       0.0816  0.35928   0.7307     C
H       0.0833   0.5026   0.2591     H
H       0.0833   0.9974   0.7591     H
N       0.0867  0.68704   0.7442     N
N       0.0867  0.81296   0.2442     N
H        0.088   0.2453    0.929     H
H        0.088   0.2547    0.429     H
H        0.094   0.1625   0.5926     H
H        0.094   0.3375   0.0926     H
C       0.0976  0.56913  0.80604     C
C       0.0976  0.93087  0.30604     C
N       0.0988  0.71553  0.42481     N
N       0.0988  0.78447  0.92481     N
Zn     0.10025  0.71289  0.48166    Zn
Zn     0.10025  0.78711  0.98166    Zn
C       0.1061  0.04889  0.24088     C
C       0.1061  0.45111  0.74088     C
C       0.1115   0.6509  0.71734     C
C       0.1115   0.8491  0.21734     C
C        0.115  0.72919   0.8045     C
C        0.115  0.77081   0.3045     C
C       0.1181   0.2168  0.87608     C
C       0.1181   0.2832  0.37608     C
C       0.1363   0.2288   0.9128     C
C       0.1363   0.2712   0.4128     C
C       0.1364  0.52759   0.7863     C
C       0.1364  0.97241   0.2863     C
H       0.1374   0.1869   0.5283     H
H       0.1374   0.3131   0.0283     H
N       0.1375  0.73364  0.36641     N
N       0.1375  0.76636  0.86641     N
H       0.1443   0.5871   0.8224     H
H       0.1443   0.9129   0.3224     H
O       0.1458  0.14795  0.68708     O
O       0.1458  0.35205  0.18708     O
C        0.147   0.1866  0.58561     C
C        0.147   0.3134  0.08561     C
O       0.1481   0.2325  0.19313     O
O       0.1481   0.2675  0.69313     O
H       0.1488   0.0681   0.7273     H
H       0.1488   0.4319   0.2273     H
C       0.1588  0.70416  0.77434     C
C       0.1588  0.79584  0.27434     C
C       0.1638   0.7419  0.40232     C
C       0.1638   0.7581  0.90232     C
C       0.1651  0.14177  0.20364     C
C       0.1651  0.35823  0.70364     C
C        0.171   0.1999  0.54998     C
C        0.171   0.3001  0.04998     C
H       0.1754   0.2497   0.9845     H
H       0.1754   0.2503   0.4845     H
H       0.1795    0.635   0.7136     H
H       0.1795    0.865   0.2136     H
C       0.1843  0.74203  0.83434     C
C       0.1843  0.75797  0.33434     C
O       0.1849   0.6191   0.3248     O
O       0.1849   0.8809   0.8248     O
C        0.187  0.05067  0.21302     C
C        0.187  0.44933  0.71302     C
O       0.1936  0.06874  0.83133     O
O       0.1936  0.43126  0.33133     O
O       0.1974   0.5379  0.70332     O
O       0.1974   0.9621  0.20332     O
C       0.2015   0.1913  0.18557     C
C       0.2015   0.3087  0.68557     C
N       0.2069  0.19391  0.86105     N
N       0.2069  0.30609  0.36105     N
O       0.2091   0.7033  0.21586     O
O       0.2091   0.7967  0.71586     O
N       0.2118  0.21393  0.60945     N
N       0.2118  0.28607  0.10945     N
O       0.2145   0.6236   0.2263     O
O       0.2145   0.8764   0.7263     O
C       0.2156  0.09533  0.19494     C
C       0.2156  0.40467  0.69494     C
Zn     0.21701  0.20852  0.66526    Zn
Zn     0.21701  0.29148  0.16526    Zn
H       0.2207   0.7365   0.9105     H
H       0.2207   0.7635   0.4105     H
H       0.2218   0.5263   0.3264     H
H       0.2218   0.9737   0.8264     H
H       0.2249   0.6156   0.5207     H
H       0.2249   0.8844   0.0207     H
Zn     0.22535  0.17354  0.80697    Zn
Zn     0.22535  0.32646  0.30697    Zn
N       0.2405  0.21153  0.92085     N
N       0.2405  0.28847  0.42085     N
N       0.2452   0.0025  0.20184     N
N       0.2452   0.4975  0.70184     N
C        0.247  0.23694  0.98664     C
C        0.247  0.26306  0.48664     C
N       0.2512  0.68589  0.49521     N
N       0.2512  0.81411  0.99521     N
N        0.252  0.23499  0.55157     N
N        0.252  0.26501  0.05157     N
N       0.2547   0.5143  0.79189     N
N       0.2547   0.9857  0.29189     N
N       0.2593   0.6644  0.22524     N
N       0.2593   0.8356  0.72524     N
C       0.2608  0.06918  0.80596     C
C       0.2608  0.43082  0.30596     C
N       0.2675  0.62034  0.31099     N
N       0.2675  0.87966  0.81099     N
H       0.2697   0.0945   0.1766     H
H       0.2697   0.4055   0.6766     H
C        0.271  0.69211  0.77264     C
C        0.271  0.80789  0.27264     C
C       0.2719  0.52679  0.30679     C
C       0.2719  0.97321  0.80679     C
C       0.2744  0.24332    0.588     C
C       0.2744  0.25668    0.088     C
C        0.276   0.6405  0.51355     C
C        0.276   0.8595  0.01355     C
C         0.28    0.191   0.8887     C
C         0.28    0.309   0.3887     C
O        0.281   0.1913  0.16395     O
O        0.281   0.3087  0.66395     O
O        0.288   0.0285  0.28591     O
O        0.288   0.4715  0.78591     O
O       0.2922  0.10995  0.78922     O
O       0.2922  0.39005  0.28922     O
O       0.2927  0.23386  0.78279     O
O       0.2927  0.26614  0.28279     O
C       0.2953  0.72962  0.83459     C
C       0.2953  0.77038  0.33459     C
C       0.2975  0.21425  0.95635     C
C       0.2975  0.28575  0.45635     C
H       0.3005   0.6759   0.7516     H
H       0.3005   0.8241   0.2516     H
C       0.3045  0.24046  0.02025     C
C       0.3045  0.25954  0.52025     C
C       0.3068  0.01866  0.79163     C
C       0.3068  0.48134  0.29163     C
C       0.3103   0.5738  0.29337     C
C       0.3103   0.9262  0.79337     C
O       0.3166   0.5486   0.8022     O
O       0.3166   0.9514   0.3022     O
H       0.3217   0.1783   0.2554     H
H       0.3217   0.3217   0.7554     H
H        0.327   0.2333    0.097     H
H        0.327   0.2667    0.597     H
O       0.3296   0.6575  0.31417     O
O       0.3296   0.8425  0.81417     O
C       0.3371  0.70507  0.80337     C
C       0.3371  0.79493  0.30337     C
H        0.339   0.1345   0.7211     H
H        0.339   0.3655   0.2211     H
O       0.3391  0.00689  0.19053     O
O       0.3391  0.49311  0.69053     O
H       0.3403   0.7375   0.8551     H
H       0.3403   0.7625   0.3551     H
C       0.3443  0.70996  0.49018     C
C       0.3443  0.79004  0.99018     C
H         0.35   0.1766   0.8864     H
H         0.35   0.3234   0.3864     H
H       0.3512   0.7419   0.4783     H
H       0.3512   0.7581   0.9783     H
N       0.3704  0.19457  0.68515     N
N       0.3704  0.30543  0.18515     N
C       0.3795  0.66639  0.23107     C
C       0.3795  0.83361  0.73107     C
C        0.384  0.01678  0.76304     C
C        0.384  0.48322  0.26304     C
C       0.3852  0.63761  0.51966     C
C       0.3852  0.86239  0.01966     C
C       0.3861  0.57729  0.26429     C
C       0.3861  0.92271  0.76429     C
C       0.3919   0.1563  0.71087     C
C       0.3919   0.3437  0.21087     C
H       0.3931   0.7373   0.2074     H
H       0.3931   0.7627   0.7074     H
C        0.394  0.23802  0.79257     C
C        0.394  0.26198  0.29257     C
C       0.3976  0.17546  0.25912     C
C       0.3976  0.32454  0.75912     C
C       0.4044  0.19471   0.9592     C
C       0.4044  0.30529   0.4592     C
H       0.4092   0.0475   0.7525     H
H       0.4092   0.4525   0.2525     H
C       0.4112  0.22191  0.02436     C
C       0.4112  0.27809  0.52436     C
H       0.4116   0.1056   0.2349     H
H       0.4116   0.3944   0.7349     H
H       0.4237    0.611   0.5317     H
H       0.4237    0.889   0.0317     H
C        0.424   0.5302  0.25011     C
C        0.424   0.9698  0.75011     C
N       0.4288  0.68246  0.50441     N
N       0.4288  0.81754  0.00441     N
C       0.4333  0.71058  0.21856     C
C       0.4333  0.78942  0.71856     C
C       0.4345  0.62657  0.24948     C
C       0.4345  0.87343  0.74948     C
H        0.438    0.179   0.9388     H
H        0.438    0.321   0.4388     H
O       0.4422  0.20772  0.81348     O
O       0.4422  0.29228  0.31348     O
H       0.4492   0.2246   0.0471     H
H       0.4492   0.2754   0.5471     H
C        0.452    0.132  0.24648     C
C        0.452    0.368  0.74648     C
N        0.453  0.69314  0.80239     N
N        0.453  0.80686  0.30239     N
C       0.4541  0.21489  0.27733     C
C       0.4541  0.28511  0.77733     C
C        0.459  0.19932  0.99335     C
C        0.459  0.30068  0.49335     C
C        0.466  0.21625   0.6783     C
C        0.466  0.28375   0.1783     C
H       0.4662   0.6325   0.7641     H
H       0.4662   0.8675   0.2641     H
H        0.476   0.2441   0.6621     H
H        0.476   0.2559   0.1621     H
H       0.4773   0.5303   0.2315     H
H       0.4773   0.9697   0.7315     H
C       0.4985  0.15479   0.7191     C
C       0.4985  0.34521   0.2191     C
C       0.5015  0.65479   0.7809     C
C       0.5015  0.84521   0.2809     C
H       0.5227   0.0303   0.2685     H
H       0.5227   0.4697   0.7685     H
H        0.524   0.7441   0.8379     H
H        0.524   0.7559   0.3379     H
H       0.5338   0.1325   0.7359     H
H       0.5338   0.3675   0.2359     H
C        0.534  0.71625   0.8217     C
C        0.534  0.78375   0.3217     C
C        0.541  0.69932  0.50665     C
C        0.541  0.80068  0.00665     C
C       0.5459  0.71489  0.22267     C
C       0.5459  0.78511  0.72267     C
N        0.547  0.19314  0.69761     N
N        0.547  0.30686  0.19761     N
C        0.548    0.632  0.25352     C
C        0.548    0.868  0.75352     C
H       0.5508   0.7246   0.4529     H
H       0.5508   0.7754   0.9529     H
O       0.5578  0.70772  0.68652     O
O       0.5578  0.79228  0.18652     O
H        0.562    0.679   0.5612     H
H        0.562    0.821   0.0612     H
C       0.5655  0.12657  0.25052     C
C       0.5655  0.37343  0.75052     C
C       0.5667  0.21058  0.28144     C
C       0.5667  0.28942  0.78144     C
N       0.5712  0.18246  0.99559     N
N       0.5712  0.31754  0.49559     N
C        0.576   0.0302  0.24989     C
C        0.576   0.4698  0.74989     C
H       0.5763    0.111   0.9683     H
H       0.5763    0.389   0.4683     H
H       0.5884   0.6056   0.2651     H
H       0.5884   0.8944   0.7651     H
C       0.5888  0.72191  0.47564     C
C       0.5888  0.77809  0.97564     C
H       0.5908   0.5475   0.7475     H
H       0.5908   0.9525   0.2475     H
C       0.5956  0.69471   0.5408     C
C       0.5956  0.80529   0.0408     C
C       0.6024  0.67546  0.24088     C
C       0.6024  0.82454  0.74088     C
C        0.606  0.73802  0.70743     C
C        0.606  0.76198  0.20743     C
H       0.6069   0.2373   0.2926     H
H       0.6069   0.2627   0.7926     H
C       0.6081   0.6563  0.78913     C
C       0.6081   0.8437  0.28913     C
C       0.6139  0.07729  0.23571     C
C       0.6139  0.42271  0.73571     C
C       0.6148  0.13761  0.98034     C
C       0.6148  0.36239  0.48034     C
C        0.616  0.51678  0.73696     C
C        0.616  0.98322  0.23696     C
C       0.6205  0.16639  0.26893     C
C       0.6205  0.33361  0.76893     C
N       0.6296  0.69457  0.81485     N
N       0.6296  0.80543  0.31485     N
H       0.6488   0.2419   0.0217     H
H       0.6488   0.2581   0.5217     H
H         0.65   0.6766   0.6136     H
H         0.65   0.8234   0.1136     H
C       0.6557  0.20996  0.00982     C
C       0.6557  0.29004  0.50982     C
H       0.6597   0.2375   0.6449     H
H       0.6597   0.2625   0.1449     H
O       0.6609  0.50689  0.30947     O
O       0.6609  0.99311  0.80947     O
H        0.661   0.6345   0.7789     H
H        0.661   0.8655   0.2789     H
C       0.6629  0.20507  0.69663     C
C       0.6629  0.29493  0.19663     C
O       0.6704   0.1575  0.18583     O
O       0.6704   0.3425  0.68583     O
H        0.673   0.7333    0.403     H
H        0.673   0.7667    0.903     H
H       0.6783   0.6783   0.2446     H
H       0.6783   0.8217   0.7446     H
O       0.6834   0.0486   0.6978     O
O       0.6834   0.4514   0.1978     O
C       0.6897   0.0738  0.20663     C
C       0.6897   0.4262  0.70663     C
C       0.6932  0.51866  0.70837     C
C       0.6932  0.98134  0.20837     C
C       0.6955  0.74046  0.47975     C
C       0.6955  0.75954  0.97975     C
H       0.6995   0.1759   0.7484     H
H       0.6995   0.3241   0.2484     H
C       0.7025  0.71425  0.54365     C
C       0.7025  0.78575  0.04365     C
C       0.7047  0.22962  0.66541     C
C       0.7047  0.27038  0.16541     C
O       0.7073  0.73386  0.71721     O
O       0.7073  0.76614  0.21721     O
O       0.7078  0.60995  0.71078     O
O       0.7078  0.89005  0.21078     O
O        0.712   0.5285  0.21409     O
O        0.712   0.9715  0.71409     O
O        0.719   0.6913  0.33605     O
O        0.719   0.8087  0.83605     O
C         0.72    0.691   0.6113     C
C         0.72    0.809   0.1113     C
C        0.724   0.1405  0.98645     C
C        0.724   0.3595  0.48645     C
C       0.7256  0.74332    0.912     C
C       0.7256  0.75668    0.412     C
C       0.7281  0.02679  0.19321     C
C       0.7281  0.47321  0.69321     C
C        0.729  0.19211  0.72736     C
C        0.729  0.30789  0.22736     C
H       0.7303   0.5945   0.3234     H
H       0.7303   0.9055   0.8234     H
N       0.7325  0.12034  0.18901     N
N       0.7325  0.37966  0.68901     N
C       0.7392  0.56918  0.69404     C
C       0.7392  0.93082  0.19404     C
N       0.7407   0.1644  0.27476     N
N       0.7407   0.3356  0.77476     N
N       0.7453   0.0143  0.70811     N
N       0.7453   0.4857  0.20811     N
N        0.748  0.73499  0.94843     N
N        0.748  0.76501  0.44843     N
N       0.7488  0.18589  0.00479     N
N       0.7488  0.31411  0.50479     N
C        0.753  0.73694  0.51336     C
C        0.753  0.76306  0.01336     C
N       0.7548   0.5025  0.29816     N
N       0.7548   0.9975  0.79816     N
N       0.7595  0.71153  0.57915     N
N       0.7595  0.78847  0.07915     N
Zn     0.77465  0.67354  0.69303    Zn
Zn     0.77465  0.82646  0.19303    Zn
H       0.7751   0.1156   0.9793     H
H       0.7751   0.3844   0.4793     H
H       0.7782   0.0263   0.1736     H
H       0.7782   0.4737   0.6736     H
H       0.7793   0.2365   0.5895     H
H       0.7793   0.2635   0.0895     H
Zn     0.78299  0.70852  0.83474    Zn
Zn     0.78299  0.79148  0.33474    Zn
C       0.7844  0.59533  0.30506     C
C       0.7844  0.90467  0.80506     C
O       0.7855   0.1236   0.2737     O
O       0.7855   0.3764   0.7737     O
N       0.7882  0.71393  0.89055     N
N       0.7882  0.78607  0.39055     N
O       0.7909   0.2033  0.28414     O
O       0.7909   0.2967  0.78414     O
N       0.7931  0.69391  0.63895     N
N       0.7931  0.80609  0.13895     N
C       0.7985   0.6913  0.31443     C
C       0.7985   0.8087  0.81443     C
O       0.8026   0.0379  0.79668     O
O       0.8026   0.4621  0.29668     O
O       0.8064  0.56874  0.66867     O
O       0.8064  0.93126  0.16867     O
C        0.813  0.55067  0.28698     C
C        0.813  0.94933  0.78698     C
O       0.8151   0.1191   0.1752     O
O       0.8151   0.3809   0.6752     O
C       0.8157  0.24203  0.66566     C
C       0.8157  0.25797  0.16566     C
H       0.8205    0.135   0.7864     H
H       0.8205    0.365   0.2864     H
H       0.8246   0.7497   0.5155     H
H       0.8246   0.7503   0.0155     H
C        0.829   0.6999  0.95002     C
C        0.829   0.8001  0.45002     C
C       0.8349  0.64177  0.29636     C
C       0.8349  0.85823  0.79636     C
C       0.8362   0.2419  0.09768     C
C       0.8362   0.2581  0.59768     C
C       0.8412  0.20416  0.72566     C
C       0.8412  0.29584  0.22566     C
H       0.8512   0.5681   0.7727     H
H       0.8512   0.9319   0.2727     H
O       0.8519   0.7325  0.30687     O
O       0.8519   0.7675  0.80687     O
C        0.853   0.6866  0.91439     C
C        0.853   0.8134  0.41439     C
O       0.8542  0.64795  0.81292     O
O       0.8542  0.85205  0.31292     O
H       0.8557   0.0871   0.6776     H
H       0.8557   0.4129   0.1776     H
N       0.8625  0.23364  0.13359     N
N       0.8625  0.26636  0.63359     N
H       0.8626   0.6869   0.9717     H
H       0.8626   0.8131   0.4717     H
C       0.8636  0.02759   0.7137     C
C       0.8636  0.47241   0.2137     C
C       0.8637   0.7288   0.5872     C
C       0.8637   0.7712   0.0872     C
C       0.8819   0.7168  0.62392     C
C       0.8819   0.7832  0.12392     C
C        0.885  0.22919   0.6955     C
C        0.885  0.27081   0.1955     C
C       0.8885   0.1509  0.78266     C
C       0.8885   0.3491  0.28266     C
C       0.8939  0.54889  0.25912     C
C       0.8939  0.95111  0.75912     C
Zn     0.89975  0.21289  0.01834    Zn
Zn     0.89975  0.28711  0.51834    Zn
N       0.9012  0.21553  0.07519     N
N       0.9012  0.28447  0.57519     N
C       0.9024  0.06913  0.69396     C
C       0.9024  0.43087  0.19396     C
H        0.906   0.6625   0.9074     H
H        0.906   0.8375   0.4074     H
H        0.912   0.7453    0.571     H
H        0.912   0.7547    0.071     H
N       0.9133  0.18704   0.7558     N
N       0.9133  0.31296   0.2558     N
H       0.9167   0.0026   0.2409     H
H       0.9167   0.4974   0.7409     H
C       0.9184  0.64072   0.2693     C
C       0.9184  0.85928   0.7693     C
C       0.9238   0.5576  0.77675     C
C       0.9238   0.9424  0.27675     C
C       0.9283   0.5014  0.23801     C
C       0.9283   0.9986  0.73801     C
N       0.9357  0.67367  0.71128     N
N       0.9357  0.82633  0.21128     N
H       0.9435   0.7237   0.7541     H
H       0.9435   0.7763   0.2541     H
C       0.9457  0.59535   0.2514     C
C       0.9457  0.90465   0.7514     C
C       0.9467  0.63006  0.82416     C
C       0.9467  0.86994  0.32416     C
H       0.9473   0.7235   0.6369     H
H       0.9473   0.7765   0.1369     H
C       0.9507      0.2   0.1338     C
C       0.9507      0.3   0.6338     C
H       0.9558   0.6712   0.2634     H
H       0.9558   0.8288   0.7634     H
H       0.9597   0.2375    0.695     H
H       0.9597   0.2625    0.195     H
C       0.9634   0.5152  0.75735     C
C       0.9634   0.9848  0.25735     C
H       0.9703   0.6679   0.4102     H
H       0.9703   0.8321   0.9102     H
C       0.9734   0.1896  0.09797     C
C       0.9734   0.3104  0.59797     C
C       0.9808  0.69964  0.73943     C
C       0.9808  0.80036  0.23943     C
C       0.9826  0.14289  0.80263     C
C       0.9826  0.35711  0.30263     C
H       0.9875   0.1871   0.1549     H
H       0.9875   0.3129   0.6549     H
C       0.9888  0.58452  0.80179     C
C       0.9888  0.91548  0.30179     C
H       0.9904     0.12   0.8227     H
H       0.9904     0.38   0.3227     H
O       0.9985  0.14662  0.64924     O
O       0.9985  0.35338  0.14924     O
H        0.999   0.0959   0.2665     H
H        0.999   0.4041   0.7665     H
