data_I
_chemical_name_common  '/home/zhangsd/repos/MofS-CGCNN/ML/data/TSD/clean_cifs/UNABUH_clean'
_cell_length_a  8.40500
_cell_length_b 10.29300
_cell_length_c 17.67850
_cell_angle_alpha 90.00000
_cell_angle_beta  102.81300
_cell_angle_gamma 90.00000
_space_group_name_H-M_alt      'P 1'


loop_
_space_group_symop_operation_xyz
  'x, y, z' 

loop_
_atom_site_label
_atom_site_fract_x
_atom_site_fract_y
_atom_site_fract_z
_atom_site_type_symbol
C      0.01452   0.7931  0.48352     C
O      0.02905   0.7847  0.55615     O
H       0.0363   0.2277   0.6692     H
C      0.03684    0.231  0.01974     C
C      0.03822   0.2687  0.09532     C
H       0.0639   0.6089   0.8413     H
C      0.06476   0.6334  0.89206     C
C      0.06635   0.7051  0.04055     C
H       0.0687   0.7276   0.0917     H
C      0.07716   0.3051  0.56946     C
O      0.08022   0.8908  0.45822     O
C      0.08788   0.2952  0.64908     C
H       0.1077   0.2284   0.1369     H
O      0.11932   0.2974  0.81292     O
H         0.14   0.1629   0.9054     H
C      0.14053   0.1152  0.00903     C
H       0.1438   0.4105   0.4845     H
C      0.15318    0.405  0.53778     C
C       0.1662   0.6073   0.0238     C
N      0.16638   0.5722  0.95068     N
N      0.17308   0.1016  0.93818     N
Cu     0.17366  0.94245  0.56802    Cu
C      0.17708    0.388  0.69788     C
H       0.1867     0.05      0.8     H
O      0.18766   0.0409  0.06326     O
C      0.19462   0.3792  0.78422     C
O      0.20715   0.9625  0.67625     O
H       0.2353   0.5645   0.0645     H
C      0.24416   0.4971  0.58786     C
C       0.2459   0.9881    0.833     C
C       0.2541   0.4881    0.667     C
C      0.25584   0.9971  0.91214     C
H       0.2647   0.0645   0.4355     H
O      0.29285   0.4625  0.82375     O
C      0.30538   0.8792  0.71578     C
O      0.31234   0.5409  0.43674     O
H       0.3133     0.55      0.7     H
C      0.32292    0.888  0.80212     C
Cu     0.32634  0.44245  0.93198    Cu
N      0.32692   0.6016  0.56182     N
N      0.33362   0.0722  0.54932     N
C       0.3338   0.1073   0.4762     C
C      0.34682    0.905  0.96222     C
H       0.3562   0.9105   0.0155     H
C      0.35947   0.6152  0.49097     C
H         0.36   0.6629   0.5946     H
O      0.38068   0.7974  0.68708     O
H       0.3923   0.7284   0.3631     H
C      0.41212   0.7952  0.85092     C
O      0.41978   0.3908  0.04178     O
C      0.42284   0.8051  0.93054     C
H       0.4313   0.2276   0.4083     H
C      0.43365   0.2051  0.45945     C
C      0.43524   0.1334  0.60794     C
H       0.4361   0.1089   0.6587     H
C      0.46178   0.7687  0.40468     C
C      0.46316    0.731  0.48026     C
H       0.4637   0.7277   0.8308     H
O      0.47095   0.2847  0.94385     O
C      0.48548   0.2931  0.01648     C
C      0.51452   0.7069  0.98352     C
O      0.52905   0.7153  0.05615     O
H       0.5363   0.2723   0.1692     H
C      0.53684    0.269  0.51974     C
C      0.53822   0.2313  0.59532     C
H       0.5639   0.8911   0.3413     H
C      0.56476   0.8666  0.39206     C
C      0.56635   0.7949  0.54055     C
H       0.5687   0.7724   0.5917     H
C      0.57716   0.1949  0.06946     C
O      0.58022   0.6092  0.95822     O
C      0.58788   0.2048  0.14908     C
H       0.6077   0.2716   0.6369     H
O      0.61932   0.2026  0.31292     O
H         0.64   0.3371   0.4054     H
C      0.64053   0.3848  0.50903     C
H       0.6438   0.0895   0.9845     H
C      0.65318    0.095  0.03778     C
C       0.6662   0.8927   0.5238     C
N      0.66638   0.9278  0.45068     N
N      0.67308   0.3984  0.43818     N
Cu     0.67366  0.55755  0.06802    Cu
C      0.67708    0.112  0.19788     C
H       0.6867     0.45      0.3     H
O      0.68766   0.4591  0.56326     O
C      0.69462   0.1208  0.28422     C
O      0.70715   0.5375  0.17625     O
H       0.7353   0.9355   0.5645     H
C      0.74416   0.0029  0.08786     C
C       0.7459   0.5119    0.333     C
C       0.7541   0.0119    0.167     C
C      0.75584   0.5029  0.41214     C
H       0.7647   0.4355   0.9355     H
O      0.79285   0.0375  0.32375     O
C      0.80538   0.6208  0.21578     C
O      0.81234   0.9591  0.93674     O
H       0.8133     0.95      0.2     H
C      0.82292    0.612  0.30212     C
Cu     0.82634  0.05755  0.43198    Cu
N      0.82692   0.8984  0.06182     N
N      0.83362   0.4278  0.04932     N
C       0.8338   0.3927   0.9762     C
C      0.84682    0.595  0.46222     C
H       0.8562   0.5895   0.5155     H
C      0.85947   0.8848  0.99097     C
H         0.86   0.8371   0.0946     H
O      0.88068   0.7026  0.18708     O
H       0.8923   0.7716   0.8631     H
C      0.91212   0.7048  0.35092     C
O      0.91978   0.1092  0.54178     O
C      0.92284   0.6949  0.43054     C
H       0.9313   0.2724   0.9083     H
C      0.93365   0.2949  0.95945     C
C      0.93524   0.3666  0.10794     C
H       0.9361   0.3911   0.1587     H
C      0.96178   0.7313  0.90468     C
C      0.96316    0.769  0.98026     C
H       0.9637   0.7723   0.3308     H
O      0.97095   0.2153  0.44385     O
C      0.98548   0.2069  0.51648     C
