data_I
_chemical_name_common  '/home/zhangsd/repos/MofS-CGCNN/ML/data/TSD/clean_cifs/UPOVOL_clean'
_cell_length_a  7.85290
_cell_length_b 12.18600
_cell_length_c 13.22170
_cell_angle_alpha 112.15600
_cell_angle_beta  105.45700
_cell_angle_gamma 91.54100
_space_group_name_H-M_alt      'P 1'


loop_
_space_group_symop_operation_xyz
  'x, y, z' 

loop_
_atom_site_label
_atom_site_fract_x
_atom_site_fract_y
_atom_site_fract_z
_atom_site_type_symbol
C       0.0535   0.0924   0.2031     C
O       0.0554   0.0864    0.104     O
H        0.068    0.275      0.4     H
O       0.0763   0.9575   0.7857     O
H       0.0768   0.1537   0.4153     H
C       0.1461    0.217   0.4096     C
C       0.2081   0.1648   0.3059     C
Er      0.2503  0.01855  0.98926    Er
H       0.2509   0.6185   0.7141     H
H       0.2619   0.2287   0.2925     H
O       0.2752   0.4572   0.5057     O
O       0.2824   0.8186   0.8804     O
O       0.2859   0.9191   0.1189     O
N       0.2918   0.2758   0.5168     N
H       0.2977   0.1142   0.3182     H
H       0.3052   0.7678    0.212     H
O       0.3228   0.0978    0.531     O
C       0.3396   0.3987   0.5587     C
H       0.3464   0.5959   0.8232     H
H       0.3512   0.1234   0.7535     H
O       0.3625   0.5636   0.1735     O
C       0.3629    0.635   0.7741     C
C       0.3662   0.2052   0.5725     C
H       0.3801   0.3949   0.2216     H
C       0.4061   0.7684   0.8436     C
H       0.4061   0.8845   0.3181     H
C       0.4222   0.8091    0.263     C
O       0.4423    0.181   0.1393     O
C        0.446   0.9053   0.1299     C
H       0.4481   0.2421   0.8584     H
C        0.463   0.6129     0.27     C
N       0.4631   0.4503   0.6659     N
O       0.4645     0.05   0.9148     O
C        0.467   0.1666   0.8049     C
H       0.4887   0.3875   0.3367     H
N       0.4939   0.2641   0.6759     N
C       0.4953   0.4181   0.2798     C
C       0.5047   0.5819   0.7202     C
N       0.5061   0.7359   0.3241     N
H       0.5113   0.6125   0.6633     H
C        0.533   0.8334   0.1951     C
O       0.5355     0.95   0.0852     O
N       0.5369   0.5497   0.3341     N
C        0.537   0.3871     0.73     C
H       0.5519   0.7579   0.1416     H
C        0.554   0.0947   0.8701     C
O       0.5577    0.819   0.8607     O
C       0.5778   0.1909    0.737     C
H       0.5939   0.1155   0.6819     H
C       0.5939   0.2316   0.1564     C
H       0.6199   0.6051   0.7784     H
C       0.6338   0.7948   0.4275     C
C       0.6371    0.365   0.2259     C
O       0.6375   0.4364   0.8265     O
H       0.6488   0.8766   0.2465     H
H       0.6536   0.4041   0.1768     H
C       0.6604   0.6013   0.4413     C
O       0.6772   0.9022    0.469     O
H       0.6948   0.2322    0.788     H
H       0.7023   0.8858   0.6818     H
N       0.7082   0.7242   0.4832     N
O       0.7141   0.0809   0.8811     O
O       0.7176   0.1814   0.1196     O
O       0.7248   0.5428   0.4943     O
H       0.7381   0.7713   0.7075     H
H       0.7491   0.3815   0.2859     H
Er      0.7497  0.98145  0.01074    Er
C       0.7919   0.8352   0.6941     C
C       0.8539    0.783   0.5904     C
H       0.9232   0.8463   0.5847     H
O       0.9237   0.0425   0.2143     O
H        0.932    0.725      0.6     H
O       0.9446   0.9136    0.896     O
C       0.9465   0.9076   0.7969     C
