data_I
_chemical_name_common  '/home/zhangsd/repos/MofS-CGCNN/ML/data/TSD/clean_cifs/URUVUA_clean'
_cell_length_a 18.89900
_cell_length_b 18.89900
_cell_length_c 31.69000
_cell_angle_alpha 90.00000
_cell_angle_beta  90.00000
_cell_angle_gamma 120.00000
_space_group_name_H-M_alt      'P 1'


loop_
_space_group_symop_operation_xyz
  'x, y, z' 

loop_
_atom_site_label
_atom_site_fract_x
_atom_site_fract_y
_atom_site_fract_z
_atom_site_type_symbol
Pd         0.0      0.5      0.5    Pd
C      0.02627  0.23863  0.30413     C
C      0.02627  0.78763  0.30413     C
O       0.0355   0.4452  0.94728     O
O       0.0355   0.5903  0.94728     O
H      0.03573  0.27877  0.76937     H
H      0.03573  0.75697  0.76937     H
O      0.03977  0.22393  0.34024     O
O      0.03977  0.81583  0.34024     O
Cu      0.0437  0.52185  0.03591    Cu
Cl     0.04633  0.22567  0.85771    Cl
Cl     0.04633  0.82067  0.85771    Cl
N      0.04777  0.52388  0.44123     N
C      0.05423  0.23407  0.71566     C
C      0.05423  0.82017  0.71566     C
H      0.05457  0.42363  0.43603     H
H      0.05457  0.63093  0.43603     H
C      0.06537  0.47133  0.42213     C
C      0.06537  0.59403  0.42213     C
C      0.07263  0.26797  0.75547     C
C      0.07263  0.80467  0.75547     C
O      0.07637  0.29783  0.28061     O
O      0.07637  0.77853  0.28061     O
H       0.0903   0.3879   0.8973     H
H       0.0903   0.7024   0.8973     H
C       0.0947   0.4543   0.9708     C
C       0.0947   0.6404   0.9708     C
H      0.09748  0.19497  0.66857     H
H      0.09748  0.90252  0.66857     H
C      0.09927  0.48683  0.38232     C
C      0.09927  0.61243  0.38232     C
Cl     0.10767  0.48733  0.52437    Cl
Cl     0.10767  0.62033  0.52437    Cl
C      0.10868  0.21737  0.69557     C
C      0.10868  0.89132  0.69557     C
O       0.1094   0.4825  0.00691     O
O       0.1094   0.6269  0.00691     O
O      0.11187  0.36883  0.38605     O
O      0.11187  0.74303  0.38605     O
C      0.11597  0.55798  0.36223     C
C      0.12097  0.42803  0.36253     C
C      0.12097  0.69293  0.36253     C
C        0.138   0.3987   0.9112     C
C        0.138   0.7393   0.9112     C
H      0.13837  0.56918  0.33523     H
N      0.14278  0.28557  0.77457     N
N      0.14278  0.85722  0.77457     N
Cu     0.14482  0.28963  0.36924    Cu
Cu     0.14482  0.85518  0.36924    Cu
O      0.14917  0.44273  0.32642     O
O      0.14917  0.70643  0.32642     O
C       0.1535   0.4326  0.95101     C
C       0.1535   0.7209  0.95101     C
Cl       0.154    0.441  0.80896    Cl
Cl       0.154    0.713  0.80896    Cl
Pd     0.16667  0.33333  0.83333    Pd
Pd     0.16667  0.83333  0.83333    Pd
Cl     0.17933  0.22567  0.85771    Cl
Cl     0.17933  0.95367  0.85771    Cl
C      0.17983  0.23407  0.71566     C
C      0.17983  0.94577  0.71566     C
O      0.18417  0.22393  0.34024     O
O      0.18417  0.96023  0.34024     O
Cu     0.18852  0.37703  0.29742    Cu
Cu     0.18852  0.81148  0.29742    Cu
N      0.19055   0.3811   0.8921     N
N      0.19055  0.80945   0.8921     N
H      0.19497  0.09748  0.33143     H
C      0.19533  0.26797  0.75547     C
C      0.19533  0.92737  0.75547     C
C      0.21237  0.23863  0.30413     C
C      0.21237  0.97373  0.30413     C
C      0.21737  0.10868  0.30443     C
O      0.22147  0.29783  0.28061     O
O      0.22147  0.92363  0.28061     O
O      0.22393  0.03977  0.65976     O
O      0.22393  0.18417  0.65976     O
C      0.22465   0.4493   0.9711     C
C      0.22465  0.77535   0.9711     C
Cl     0.22567  0.04633  0.14229    Cl
Cl     0.22567  0.17933  0.14229    Cl
C      0.23407  0.05423  0.28434     C
C      0.23407  0.17983  0.28434     C
H      0.23585   0.4717   0.9981     H
H      0.23585  0.76415   0.9981     H
C      0.23863  0.02627  0.69587     C
C      0.23863  0.21237  0.69587     C
H      0.24303  0.27877  0.76937     H
H      0.24303  0.96427  0.76937     H
O      0.25697  0.36883  0.38605     O
O      0.25697  0.88813  0.38605     O
C       0.2607   0.3987   0.9112     C
C       0.2607    0.862   0.9112     C
C      0.26797  0.07263  0.24453     C
C      0.26797  0.19533  0.24453     C
H      0.27877  0.03573  0.23063     H
H      0.27877  0.24303  0.23063     H
C       0.2791   0.4326  0.95101     C
C       0.2791   0.8465  0.95101     C
N      0.28557  0.14278  0.22543     N
Cl       0.287    0.441  0.80896    Cl
Cl       0.287    0.846  0.80896    Cl
Cu     0.28963  0.14482  0.63076    Cu
O      0.29357  0.44273  0.32642     O
O      0.29357  0.85083  0.32642     O
H       0.2976   0.3879   0.8973     H
H       0.2976   0.9097   0.8973     H
O      0.29783  0.07637  0.71939     O
O      0.29783  0.22147  0.71939     O
C      0.30707  0.42803  0.36253     C
C      0.30707  0.87903  0.36253     C
Pd     0.33333  0.16667  0.16667    Pd
C       0.3596   0.4543   0.9708     C
C       0.3596   0.9053   0.9708     C
O      0.36883  0.11187  0.61395     O
O      0.36883  0.25697  0.61395     O
H      0.36907  0.42363  0.43603     H
H      0.36907  0.94543  0.43603     H
O       0.3731   0.4825  0.00691     O
O       0.3731   0.8906  0.00691     O
Cu     0.37703  0.18852  0.70258    Cu
Cl     0.37967  0.48733  0.52437    Cl
Cl     0.37967  0.89233  0.52437    Cl
N       0.3811  0.19055   0.1079     N
C      0.38757  0.48683  0.38232     C
C      0.38757  0.90073  0.38232     C
H       0.3879   0.0903   0.1027     H
H       0.3879   0.2976   0.1027     H
C       0.3987    0.138   0.0888     C
C       0.3987   0.2607   0.0888     C
C      0.40597  0.47133  0.42213     C
C      0.40597  0.93463  0.42213     C
O       0.4097   0.4452  0.94728     O
O       0.4097   0.9645  0.94728     O
H      0.42363  0.05457  0.56397     H
H      0.42363  0.36907  0.56397     H
C      0.42803  0.12097  0.63747     C
C      0.42803  0.30707  0.63747     C
H      0.43082  0.56918  0.33523     H
H      0.43082  0.86163  0.33523     H
C       0.4326   0.1535  0.04899     C
C       0.4326   0.2791  0.04899     C
Cl       0.441    0.154  0.19104    Cl
Cl       0.441    0.287  0.19104    Cl
C      0.44202  0.55798  0.36223     C
C      0.44202  0.88403  0.36223     C
O      0.44273  0.14917  0.67358     O
O      0.44273  0.29357  0.67358     O
O       0.4452   0.0355  0.05272     O
O       0.4452   0.4097  0.05272     O
C       0.4493  0.22465   0.0289     C
C       0.4543   0.0947   0.0292     C
C       0.4543   0.3596   0.0292     C
C      0.47133  0.06537  0.57787     C
C      0.47133  0.40597  0.57787     C
H       0.4717  0.23585   0.0019     H
N      0.47612  0.52388  0.44123     N
N      0.47612  0.95223  0.44123     N
Cu     0.47815  0.52185  0.03591    Cu
Cu     0.47815   0.9563  0.03591    Cu
O       0.4825   0.1094  0.99309     O
O       0.4825   0.3731  0.99309     O
C      0.48683  0.09927  0.61768     C
C      0.48683  0.38757  0.61768     C
Cl     0.48733  0.10767  0.47563    Cl
Cl     0.48733  0.37967  0.47563    Cl
Pd         0.5      0.0      0.5    Pd
Pd         0.5      0.5      0.5    Pd
Cl     0.51267  0.62033  0.52437    Cl
Cl     0.51267  0.89233  0.52437    Cl
C      0.51317  0.61243  0.38232     C
C      0.51317  0.90073  0.38232     C
O       0.5175   0.6269  0.00691     O
O       0.5175   0.8906  0.00691     O
Cu     0.52185   0.0437  0.96409    Cu
Cu     0.52185  0.47815  0.96409    Cu
N      0.52388  0.04777  0.55877     N
N      0.52388  0.47612  0.55877     N
H       0.5283  0.76415   0.9981     H
C      0.52867  0.59403  0.42213     C
C      0.52867  0.93463  0.42213     C
C       0.5457   0.6404   0.9708     C
C       0.5457   0.9053   0.9708     C
C       0.5507  0.77535   0.9711     C
O       0.5548   0.5903  0.94728     O
O       0.5548   0.9645  0.94728     O
O      0.55727  0.70643  0.32642     O
O      0.55727  0.85083  0.32642     O
C      0.55798  0.11597  0.63777     C
C      0.55798  0.44202  0.63777     C
Cl       0.559    0.713  0.80896    Cl
Cl       0.559    0.846  0.80896    Cl
C       0.5674   0.7209  0.95101     C
C       0.5674   0.8465  0.95101     C
H      0.56918  0.13837  0.66477     H
H      0.56918  0.43082  0.66477     H
C      0.57197  0.69293  0.36253     C
C      0.57197  0.87903  0.36253     C
H      0.57637  0.63093  0.43603     H
H      0.57637  0.94543  0.43603     H
O       0.5903   0.0355  0.05272     O
O       0.5903   0.5548  0.05272     O
C      0.59403  0.06537  0.57787     C
C      0.59403  0.52867  0.57787     C
C       0.6013   0.7393   0.9112     C
C       0.6013    0.862   0.9112     C
H       0.6121   0.7024   0.8973     H
H       0.6121   0.9097   0.8973     H
C      0.61243  0.09927  0.61768     C
C      0.61243  0.51317  0.61768     C
N       0.6189  0.80945   0.8921     N
Cl     0.62033  0.10767  0.47563    Cl
Cl     0.62033  0.51267  0.47563    Cl
Cu     0.62297  0.81148  0.29742    Cu
O       0.6269   0.1094  0.99309     O
O       0.6269   0.5175  0.99309     O
H      0.63093  0.05457  0.56397     H
H      0.63093  0.57637  0.56397     H
O      0.63117  0.74303  0.38605     O
O      0.63117  0.88813  0.38605     O
C       0.6404   0.0947   0.0292     C
C       0.6404   0.5457   0.0292     C
Pd     0.66667  0.83333  0.83333    Pd
C      0.69293  0.12097  0.63747     C
C      0.69293  0.57197  0.63747     C
O      0.70217  0.77853  0.28061     O
O      0.70217  0.92363  0.28061     O
H       0.7024   0.0903   0.1027     H
H       0.7024   0.6121   0.1027     H
O      0.70643  0.14917  0.67358     O
O      0.70643  0.55727  0.67358     O
Cu     0.71037  0.85518  0.36924    Cu
Cl       0.713    0.154  0.19104    Cl
Cl       0.713    0.559  0.19104    Cl
N      0.71443  0.85722  0.77457     N
C       0.7209   0.1535  0.04899     C
C       0.7209   0.5674  0.04899     C
H      0.72123  0.75697  0.76937     H
H      0.72123  0.96427  0.76937     H
C      0.73203  0.80467  0.75547     C
C      0.73203  0.92737  0.75547     C
C       0.7393    0.138   0.0888     C
C       0.7393   0.6013   0.0888     C
O      0.74303  0.11187  0.61395     O
O      0.74303  0.63117  0.61395     O
H      0.75697  0.03573  0.23063     H
H      0.75697  0.72123  0.23063     H
C      0.76137  0.78763  0.30413     C
C      0.76137  0.97373  0.30413     C
H      0.76415  0.23585   0.0019     H
H      0.76415   0.5283   0.0019     H
C      0.76593  0.82017  0.71566     C
C      0.76593  0.94577  0.71566     C
Cl     0.77433  0.82067  0.85771    Cl
Cl     0.77433  0.95367  0.85771    Cl
C      0.77535  0.22465   0.0289     C
C      0.77535   0.5507   0.0289     C
O      0.77607  0.81583  0.34024     O
O      0.77607  0.96023  0.34024     O
O      0.77853  0.07637  0.71939     O
O      0.77853  0.70217  0.71939     O
C      0.78263  0.89132  0.69557     C
C      0.78763  0.02627  0.69587     C
C      0.78763  0.76137  0.69587     C
C      0.80467  0.07263  0.24453     C
C      0.80467  0.73203  0.24453     C
H      0.80503  0.90252  0.66857     H
N      0.80945  0.19055   0.1079     N
N      0.80945   0.6189   0.1079     N
Cu     0.81148  0.18852  0.70258    Cu
Cu     0.81148  0.62297  0.70258    Cu
O      0.81583  0.03977  0.65976     O
O      0.81583  0.77607  0.65976     O
C      0.82017  0.05423  0.28434     C
C      0.82017  0.76593  0.28434     C
Cl     0.82067  0.04633  0.14229    Cl
Cl     0.82067  0.77433  0.14229    Cl
Pd     0.83333  0.16667  0.16667    Pd
Pd     0.83333  0.66667  0.16667    Pd
Cl       0.846    0.287  0.19104    Cl
Cl       0.846    0.559  0.19104    Cl
C       0.8465   0.2791  0.04899     C
C       0.8465   0.5674  0.04899     C
O      0.85083  0.29357  0.67358     O
O      0.85083  0.55727  0.67358     O
Cu     0.85518  0.14482  0.63076    Cu
Cu     0.85518  0.71037  0.63076    Cu
N      0.85722  0.14278  0.22543     N
N      0.85722  0.71443  0.22543     N
H      0.86163  0.43082  0.66477     H
C        0.862   0.2607   0.0888     C
C        0.862   0.6013   0.0888     C
C      0.87903  0.30707  0.63747     C
C      0.87903  0.57197  0.63747     C
C      0.88403  0.44202  0.63777     C
O      0.88813  0.25697  0.61395     O
O      0.88813  0.63117  0.61395     O
O       0.8906   0.3731  0.99309     O
O       0.8906   0.5175  0.99309     O
C      0.89132  0.10868  0.30443     C
C      0.89132  0.78263  0.30443     C
Cl     0.89233  0.37967  0.47563    Cl
Cl     0.89233  0.51267  0.47563    Cl
C      0.90073  0.38757  0.61768     C
C      0.90073  0.51317  0.61768     C
H      0.90252  0.09748  0.33143     H
H      0.90252  0.80503  0.33143     H
C       0.9053   0.3596   0.0292     C
C       0.9053   0.5457   0.0292     C
H       0.9097   0.2976   0.1027     H
H       0.9097   0.6121   0.1027     H
O      0.92363  0.22147  0.71939     O
O      0.92363  0.70217  0.71939     O
C      0.92737  0.19533  0.24453     C
C      0.92737  0.73203  0.24453     C
C      0.93463  0.40597  0.57787     C
C      0.93463  0.52867  0.57787     C
H      0.94543  0.36907  0.56397     H
H      0.94543  0.57637  0.56397     H
C      0.94577  0.17983  0.28434     C
C      0.94577  0.76593  0.28434     C
N      0.95223  0.47612  0.55877     N
Cl     0.95367  0.17933  0.14229    Cl
Cl     0.95367  0.77433  0.14229    Cl
Cu      0.9563  0.47815  0.96409    Cu
O      0.96023  0.18417  0.65976     O
O      0.96023  0.77607  0.65976     O
H      0.96427  0.24303  0.23063     H
H      0.96427  0.72123  0.23063     H
O       0.9645   0.4097  0.05272     O
O       0.9645   0.5548  0.05272     O
C      0.97373  0.21237  0.69587     C
C      0.97373  0.76137  0.69587     C
