data_I
_chemical_name_common  '/home/zhangsd/repos/MofS-CGCNN/ML/data/TSD/clean_cifs/URUWEL_clean'
_cell_length_a 30.85570
_cell_length_b 18.87990
_cell_length_c 10.85220
_cell_angle_alpha 90.00000
_cell_angle_beta  93.25100
_cell_angle_gamma 90.00000
_space_group_name_H-M_alt      'P 1'


loop_
_space_group_symop_operation_xyz
  'x, y, z' 

loop_
_atom_site_label
_atom_site_fract_x
_atom_site_fract_y
_atom_site_fract_z
_atom_site_type_symbol
Cu         0.0  0.35856     0.25    Cu
Cu         0.0   0.4568     0.75    Cu
Cu         0.0   0.5432     0.25    Cu
Cu         0.0  0.64144     0.75    Cu
N      0.00243  0.40295  0.00442     N
N      0.00243  0.59705  0.50442     N
N      0.01932   0.3982  0.89178     N
N      0.01932   0.6018  0.39178     N
N      0.02368  0.36439  0.08995     N
N      0.02368  0.63561  0.58995     N
C      0.05336   0.3506  0.90705     C
C      0.05336   0.6494  0.40705     C
C      0.05649   0.3315  0.03126     C
C      0.05649   0.6685  0.53126     C
N      0.05796  0.49692  0.73033     N
N      0.05796  0.50308  0.23033     N
Cu     0.06193  0.42265  0.47509    Cu
Cu     0.06193  0.57735  0.97509    Cu
N      0.07688  0.49404  0.62356     N
N      0.07688  0.50596  0.12356     N
H      0.07916  0.33893  0.74102     H
H      0.07916  0.66107  0.24102     H
N       0.0813  0.46685  0.31566     N
N       0.0813  0.53315  0.81566     N
C      0.08142  0.32518  0.82522     C
C      0.08142  0.67482  0.32522     C
C      0.08844  0.28395  0.08121     C
C      0.08844  0.71605  0.58121     C
H      0.08976  0.27001  0.16544     H
H      0.08976  0.72999  0.66544     H
C      0.11383  0.27822  0.86957     C
C      0.11383  0.72178  0.36957     C
C       0.1153  0.46868  0.13707     C
C       0.1153  0.53132  0.63707     C
C      0.11765  0.25914  0.99845     C
C      0.11765  0.74086  0.49845     C
C      0.11852  0.44362  0.26264     C
C      0.11852  0.55638  0.76264     C
N      0.14202  0.24935  0.79003     N
N      0.14202  0.75065  0.29003     N
H      0.14653  0.47426  0.97216     H
H      0.14653  0.52574  0.47216     H
C      0.14825  0.45696  0.05439     C
C      0.14825  0.54304  0.55439     C
N      0.14965  0.21205  0.04039     N
N      0.14965  0.78795  0.54039     N
C      0.15392  0.40561  0.30942     C
C      0.15392  0.59439  0.80942     C
H      0.15542  0.38814   0.3916     H
H      0.15542  0.61186   0.8916     H
H      0.16927  0.07345  0.10959     H
H      0.16927  0.92655  0.60959     H
C       0.1719  0.20685  0.83667     C
C       0.1719  0.79315  0.33667     C
C      0.17548  0.18667  0.96025     C
C      0.17548  0.81333  0.46025     C
H      0.17585  0.04415  0.97362     H
H      0.17585  0.95585  0.47362     H
H      0.17648   0.2398  0.61583     H
H      0.17648   0.7602  0.11583     H
C      0.18348  0.41807  0.10321     C
C      0.18348  0.58193  0.60321     C
C      0.18761  0.39406  0.22967     C
C      0.18761  0.60594  0.72967     C
C      0.19041   0.0655  0.04704     C
C      0.19041   0.9345  0.54704     C
C       0.2017  0.17823  0.74045     C
C       0.2017  0.82177  0.24045     C
C      0.20433  0.21646  0.63597     C
C      0.20433  0.78354  0.13597     C
H      0.20541  0.16307  0.19873     H
H      0.20541  0.83693  0.69873     H
C       0.2106  0.13575  0.01261     C
C       0.2106  0.86425  0.51261     C
H      0.21137  0.18495  0.56817     H
H      0.21137  0.81505  0.06817     H
H      0.21333  0.03351  0.08021     H
H      0.21333  0.96649  0.58021     H
N      0.21703  0.40637   0.0257     N
N      0.21703  0.59363   0.5257     N
N      0.22471  0.36035   0.2744     N
N      0.22471  0.63965   0.7744     N
H      0.22718  0.25235  0.64822     H
H      0.22718  0.74765  0.14822     H
C      0.23115  0.17278  0.14268     C
C      0.23115  0.82722  0.64268     C
H      0.23766  0.21427  0.13042     H
H      0.23766  0.78573  0.63042     H
C      0.24269  0.14478  0.80042     C
C      0.24269  0.85522  0.30042     C
H      0.24695  0.36372  0.82921     H
H      0.24695  0.63628  0.32921     H
C      0.24852  0.12642    0.929     C
C      0.24852  0.87358    0.429     C
C      0.25148  0.37358    0.071     C
C      0.25148  0.62642    0.571     C
H      0.25305  0.13628  0.17079     H
H      0.25305  0.86372  0.67079     H
C      0.25731  0.35522  0.19958     C
C      0.25731  0.64478  0.69958     C
H      0.26234  0.28573  0.86958     H
H      0.26234  0.71427  0.36958     H
C      0.26885  0.32722  0.85732     C
C      0.26885  0.67278  0.35732     C
H      0.27282  0.24765  0.35178     H
H      0.27282  0.75235  0.85178     H
N      0.27529  0.13965   0.7256     N
N      0.27529  0.86035   0.2256     N
N      0.28297  0.09363   0.9743     N
N      0.28297  0.90637   0.4743     N
H      0.28667  0.46649  0.91979     H
H      0.28667  0.53351  0.41979     H
H      0.28863  0.31505  0.43183     H
H      0.28863  0.68495  0.93183     H
C       0.2894  0.36425  0.98739     C
C       0.2894  0.63575  0.48739     C
H      0.29459  0.33693  0.80127     H
H      0.29459  0.66307  0.30127     H
C      0.29567  0.28354  0.36403     C
C      0.29567  0.71646  0.86403     C
C       0.2983  0.32177  0.25955     C
C       0.2983  0.67823  0.75955     C
C      0.30959   0.4345  0.95296     C
C      0.30959   0.5655  0.45296     C
C      0.31239  0.10594  0.77033     C
C      0.31239  0.89406  0.27033     C
C      0.31652  0.08193  0.89679     C
C      0.31652  0.91807  0.39679     C
H      0.32352   0.2602  0.38417     H
H      0.32352   0.7398  0.88417     H
H      0.32415  0.45585  0.02638     H
H      0.32415  0.54415  0.52638     H
C      0.32452  0.31333  0.03975     C
C      0.32452  0.68667  0.53975     C
C       0.3281  0.29315  0.16333     C
C       0.3281  0.70685  0.66333     C
H      0.33073  0.42655  0.89041     H
H      0.33073  0.57345  0.39041     H
H      0.34458  0.11186   0.6084     H
H      0.34458  0.88814   0.1084     H
C      0.34608  0.09439  0.69058     C
C      0.34608  0.90561  0.19058     C
N      0.35035  0.28795  0.95961     N
N      0.35035  0.71205  0.45961     N
C      0.35175  0.04304  0.94561     C
C      0.35175  0.95696  0.44561     C
H      0.35347  0.02574  0.02784     H
H      0.35347  0.97426  0.52784     H
N      0.35798  0.25065  0.20997     N
N      0.35798  0.74935  0.70997     N
C      0.38148  0.05638  0.73736     C
C      0.38148  0.94362  0.23736     C
C      0.38235  0.24086  0.00155     C
C      0.38235  0.75914  0.50155     C
C       0.3847  0.03132  0.86293     C
C       0.3847  0.96868  0.36293     C
C      0.38617  0.22178  0.13043     C
C      0.38617  0.77822  0.63043     C
H      0.41024  0.22999  0.83456     H
H      0.41024  0.77001  0.33456     H
C      0.41156  0.21605  0.91879     C
C      0.41156  0.78395  0.41879     C
C      0.41858  0.17482  0.17478     C
C      0.41858  0.82518  0.67478     C
N       0.4187  0.03315  0.68434     N
N       0.4187  0.96685  0.18434     N
H      0.42084  0.16107  0.25898     H
H      0.42084  0.83893  0.75898     H
N      0.42312  0.00596  0.37644     N
N      0.42312  0.99404  0.87644     N
Cu     0.43807  0.07735  0.52491    Cu
Cu     0.43807  0.92265  0.02491    Cu
N      0.44204  0.00308  0.26967     N
N      0.44204  0.99692  0.76967     N
C      0.44351   0.1685  0.96874     C
C      0.44351   0.8315  0.46874     C
C      0.44664   0.1494  0.09295     C
C      0.44664   0.8506  0.59295     C
N      0.47632  0.13561  0.91005     N
N      0.47632  0.86439  0.41005     N
N      0.48068   0.1018  0.10822     N
N      0.48068   0.8982  0.60822     N
N      0.49757  0.09705  0.99558     N
N      0.49757  0.90295  0.49558     N
Cu         0.5   0.0432     0.25    Cu
Cu         0.5  0.14144     0.75    Cu
Cu         0.5  0.85856     0.25    Cu
Cu         0.5   0.9568     0.75    Cu
N      0.50243  0.09705  0.50442     N
N      0.50243  0.90295  0.00442     N
N      0.51932   0.1018  0.39178     N
N      0.51932   0.8982  0.89178     N
N      0.52368  0.13561  0.58995     N
N      0.52368  0.86439  0.08995     N
C      0.55336   0.1494  0.40705     C
C      0.55336   0.8506  0.90705     C
C      0.55649   0.1685  0.53126     C
C      0.55649   0.8315  0.03126     C
N      0.55796  0.00308  0.23033     N
N      0.55796  0.99692  0.73033     N
Cu     0.56193  0.07735  0.97509    Cu
Cu     0.56193  0.92265  0.47509    Cu
N      0.57688  0.00596  0.12356     N
N      0.57688  0.99404  0.62356     N
H      0.57916  0.16107  0.24102     H
H      0.57916  0.83893  0.74102     H
N       0.5813  0.03315  0.81566     N
N       0.5813  0.96685  0.31566     N
C      0.58142  0.17482  0.32522     C
C      0.58142  0.82518  0.82522     C
C      0.58844  0.21605  0.58121     C
C      0.58844  0.78395  0.08121     C
H      0.58976  0.22999  0.66544     H
H      0.58976  0.77001  0.16544     H
C      0.61383  0.22178  0.36957     C
C      0.61383  0.77822  0.86957     C
C       0.6153  0.03132  0.63707     C
C       0.6153  0.96868  0.13707     C
C      0.61765  0.24086  0.49845     C
C      0.61765  0.75914  0.99845     C
C      0.61852  0.05638  0.76264     C
C      0.61852  0.94362  0.26264     C
N      0.64202  0.25065  0.29003     N
N      0.64202  0.74935  0.79003     N
H      0.64653  0.02574  0.47216     H
H      0.64653  0.97426  0.97216     H
C      0.64825  0.04304  0.55439     C
C      0.64825  0.95696  0.05439     C
N      0.64965  0.28795  0.54039     N
N      0.64965  0.71205  0.04039     N
C      0.65392  0.09439  0.80942     C
C      0.65392  0.90561  0.30942     C
H      0.65542  0.11186   0.8916     H
H      0.65542  0.88814   0.3916     H
H      0.66927  0.42655  0.60959     H
H      0.66927  0.57345  0.10959     H
C       0.6719  0.29315  0.33667     C
C       0.6719  0.70685  0.83667     C
C      0.67548  0.31333  0.46025     C
C      0.67548  0.68667  0.96025     C
H      0.67585  0.45585  0.47362     H
H      0.67585  0.54415  0.97362     H
H      0.67648   0.2602  0.11583     H
H      0.67648   0.7398  0.61583     H
C      0.68348  0.08193  0.60321     C
C      0.68348  0.91807  0.10321     C
C      0.68761  0.10594  0.72967     C
C      0.68761  0.89406  0.22967     C
C      0.69041   0.4345  0.54704     C
C      0.69041   0.5655  0.04704     C
C       0.7017  0.32177  0.24045     C
C       0.7017  0.67823  0.74045     C
C      0.70433  0.28354  0.13597     C
C      0.70433  0.71646  0.63597     C
H      0.70541  0.33693  0.69873     H
H      0.70541  0.66307  0.19873     H
C       0.7106  0.36425  0.51261     C
C       0.7106  0.63575  0.01261     C
H      0.71137  0.31505  0.06817     H
H      0.71137  0.68495  0.56817     H
H      0.71333  0.46649  0.58021     H
H      0.71333  0.53351  0.08021     H
N      0.71703  0.09363   0.5257     N
N      0.71703  0.90637   0.0257     N
N      0.72471  0.13965   0.7744     N
N      0.72471  0.86035   0.2744     N
H      0.72718  0.24765  0.14822     H
H      0.72718  0.75235  0.64822     H
C      0.73115  0.32722  0.64268     C
C      0.73115  0.67278  0.14268     C
H      0.73766  0.28573  0.63042     H
H      0.73766  0.71427  0.13042     H
C      0.74269  0.35522  0.30042     C
C      0.74269  0.64478  0.80042     C
H      0.74695  0.13628  0.32921     H
H      0.74695  0.86372  0.82921     H
C      0.74852  0.37358    0.429     C
C      0.74852  0.62642    0.929     C
C      0.75148  0.12642    0.571     C
C      0.75148  0.87358    0.071     C
H      0.75305  0.36372  0.67079     H
H      0.75305  0.63628  0.17079     H
C      0.75731  0.14478  0.69958     C
C      0.75731  0.85522  0.19958     C
H      0.76234  0.21427  0.36958     H
H      0.76234  0.78573  0.86958     H
C      0.76885  0.17278  0.35732     C
C      0.76885  0.82722  0.85732     C
H      0.77282  0.25235  0.85178     H
H      0.77282  0.74765  0.35178     H
N      0.77529  0.36035   0.2256     N
N      0.77529  0.63965   0.7256     N
N      0.78297  0.40637   0.4743     N
N      0.78297  0.59363   0.9743     N
H      0.78667  0.03351  0.41979     H
H      0.78667  0.96649  0.91979     H
H      0.78863  0.18495  0.93183     H
H      0.78863  0.81505  0.43183     H
C       0.7894  0.13575  0.48739     C
C       0.7894  0.86425  0.98739     C
H      0.79459  0.16307  0.30127     H
H      0.79459  0.83693  0.80127     H
C      0.79567  0.21646  0.86403     C
C      0.79567  0.78354  0.36403     C
C       0.7983  0.17823  0.75955     C
C       0.7983  0.82177  0.25955     C
C      0.80959   0.0655  0.45296     C
C      0.80959   0.9345  0.95296     C
C      0.81239  0.39406  0.27033     C
C      0.81239  0.60594  0.77033     C
C      0.81652  0.41807  0.39679     C
C      0.81652  0.58193  0.89679     C
H      0.82352   0.2398  0.88417     H
H      0.82352   0.7602  0.38417     H
H      0.82415  0.04415  0.52638     H
H      0.82415  0.95585  0.02638     H
C      0.82452  0.18667  0.53975     C
C      0.82452  0.81333  0.03975     C
C       0.8281  0.20685  0.66333     C
C       0.8281  0.79315  0.16333     C
H      0.83073  0.07345  0.39041     H
H      0.83073  0.92655  0.89041     H
H      0.84458  0.38814   0.1084     H
H      0.84458  0.61186   0.6084     H
C      0.84608  0.40561  0.19058     C
C      0.84608  0.59439  0.69058     C
N      0.85035  0.21205  0.45961     N
N      0.85035  0.78795  0.95961     N
C      0.85175  0.45696  0.44561     C
C      0.85175  0.54304  0.94561     C
H      0.85347  0.47426  0.52784     H
H      0.85347  0.52574  0.02784     H
N      0.85798  0.24935  0.70997     N
N      0.85798  0.75065  0.20997     N
C      0.88148  0.44362  0.23736     C
C      0.88148  0.55638  0.73736     C
C      0.88235  0.25914  0.50155     C
C      0.88235  0.74086  0.00155     C
C       0.8847  0.46868  0.36293     C
C       0.8847  0.53132  0.86293     C
C      0.88617  0.27822  0.63043     C
C      0.88617  0.72178  0.13043     C
H      0.91024  0.27001  0.33456     H
H      0.91024  0.72999  0.83456     H
C      0.91156  0.28395  0.41879     C
C      0.91156  0.71605  0.91879     C
C      0.91858  0.32518  0.67478     C
C      0.91858  0.67482  0.17478     C
N       0.9187  0.46685  0.18434     N
N       0.9187  0.53315  0.68434     N
H      0.92084  0.33893  0.75898     H
H      0.92084  0.66107  0.25898     H
N      0.92312  0.49404  0.87644     N
N      0.92312  0.50596  0.37644     N
Cu     0.93807  0.42265  0.02491    Cu
Cu     0.93807  0.57735  0.52491    Cu
N      0.94204  0.49692  0.76967     N
N      0.94204  0.50308  0.26967     N
C      0.94351   0.3315  0.46874     C
C      0.94351   0.6685  0.96874     C
C      0.94664   0.3506  0.59295     C
C      0.94664   0.6494  0.09295     C
N      0.97632  0.36439  0.41005     N
N      0.97632  0.63561  0.91005     N
N      0.98068   0.3982  0.60822     N
N      0.98068   0.6018  0.10822     N
N      0.99757  0.40295  0.49558     N
N      0.99757  0.59705  0.99558     N
