data_I
_chemical_name_common  '/home/zhangsd/repos/MofS-CGCNN/ML/data/TSD/clean_cifs/URUWIP_clean'
_cell_length_a 32.04000
_cell_length_b 16.79000
_cell_length_c 10.77000
_cell_angle_alpha 90.00000
_cell_angle_beta  92.36000
_cell_angle_gamma 90.00000
_space_group_name_H-M_alt      'P 1'


loop_
_space_group_symop_operation_xyz
  'x, y, z' 

loop_
_atom_site_label
_atom_site_fract_x
_atom_site_fract_y
_atom_site_fract_z
_atom_site_type_symbol
Cu         0.0  0.32519     0.25    Cu
Cu         0.0  0.46654     0.75    Cu
Cu         0.0  0.53346     0.25    Cu
Cu         0.0  0.67481     0.75    Cu
N       0.0039   0.3842   0.4973     N
N       0.0039   0.6158   0.9973     N
N       0.0153   0.3915   0.8968     N
N       0.0153   0.6085   0.3968     N
N       0.0164   0.3352   0.0855     N
N       0.0164   0.6648   0.5855     N
C       0.0503   0.3443   0.9088     C
C       0.0503   0.6557   0.4088     C
C       0.0507   0.3072   0.0246     C
C       0.0507   0.6928   0.5246     C
Cu     0.05544  0.44593   0.4676    Cu
Cu     0.05544  0.55407   0.9676    Cu
N       0.0555   0.4855   0.2149     N
N       0.0555   0.5145   0.7149     N
N       0.0766    0.495   0.1122     N
N       0.0766    0.505   0.6122     N
N       0.0772   0.4457   0.3024     N
N       0.0772   0.5543   0.8024     N
H       0.0804   0.3549   0.7415     H
H       0.0804   0.6451   0.2415     H
C       0.0814   0.3307   0.8213     C
C       0.0814   0.6693   0.3213     C
C       0.0816   0.2557    0.062     C
C       0.0816   0.7443    0.562     C
H       0.0817   0.2312   0.1414     H
H       0.0817   0.7688   0.6414     H
C       0.1133   0.2403   0.9795     C
C       0.1133   0.7597   0.4795     C
C       0.1134   0.2795   0.8603     C
C       0.1134   0.7205   0.3603     C
C       0.1152    0.459   0.1318     C
C       0.1152    0.541   0.6318     C
C       0.1153   0.4263   0.2555     C
C       0.1153   0.5737   0.7555     C
N       0.1444   0.1869   0.0112     N
N       0.1444   0.8131   0.5112     N
N       0.1448   0.2629   0.7794     N
N       0.1448   0.7371   0.2794     N
H       0.1487    0.473    0.976     H
H       0.1487    0.527    0.476     H
C       0.1493   0.4526   0.0583     C
C       0.1493   0.5474   0.5583     C
C       0.1503   0.3867   0.3102     C
C       0.1503   0.6133   0.8102     C
H       0.1507   0.3661   0.3923     H
H       0.1507   0.6339   0.8923     H
H       0.1675   0.1792     0.57     H
H       0.1675   0.8208     0.07     H
C       0.1734   0.1758   0.9317     C
C       0.1734   0.8242   0.4317     C
C       0.1735   0.2118   0.8152     C
C       0.1735   0.7882   0.3152     C
H       0.1798   0.0981   0.6404     H
H       0.1798   0.9019   0.1404     H
H       0.1839   0.1106   0.1381     H
H       0.1839   0.8894   0.6381     H
C       0.1842   0.3804   0.2341     C
C       0.1842   0.6196   0.7341     C
C       0.1849   0.4145   0.1111     C
C       0.1849   0.5855   0.6111     C
C       0.1903   0.1494   0.6118     C
C       0.1903   0.8506   0.1118     C
H       0.1951   0.2978    0.612     H
H       0.1951   0.7022    0.112     H
C       0.2066   0.1158   0.9766     C
C       0.2066   0.8842   0.4766     C
C       0.2077   0.1969   0.7225     C
C       0.2077   0.8031   0.2225     C
C        0.211    0.104   0.1005     C
C        0.211    0.896   0.6005     C
H       0.2126   0.1403   0.5535     H
H       0.2126   0.8597   0.0535     H
C        0.219   0.2783   0.6627     C
C        0.219   0.7217   0.1627     C
N       0.2196   0.3431    0.285     N
N       0.2196   0.6569    0.785     N
N       0.2205   0.4111   0.0444     N
N       0.2205   0.5889   0.5444     N
H       0.2215     0.05   0.1167     H
H       0.2215     0.95   0.6167     H
H       0.2261   0.3169   0.7284     H
H       0.2261   0.6831   0.2284     H
H       0.2309   0.1429   0.1365     H
H       0.2309   0.8571   0.6365     H
H        0.243   0.2711   0.6102     H
H        0.243   0.7289   0.1102     H
C       0.2454   0.1197   0.8993     C
C       0.2454   0.8803   0.3993     C
C       0.2474   0.1597   0.7815     C
C       0.2474   0.8403   0.2815     C
C       0.2526   0.3403   0.2185     C
C       0.2526   0.6597   0.7185     C
C       0.2546   0.3803   0.1007     C
C       0.2546   0.6197   0.6007     C
H        0.257   0.2289   0.3898     H
H        0.257   0.7711   0.8898     H
H       0.2691   0.3571   0.8635     H
H       0.2691   0.6429   0.3635     H
H       0.2739   0.1831   0.2716     H
H       0.2739   0.8169   0.7716     H
H       0.2785     0.45   0.8833     H
H       0.2785     0.55   0.3833     H
N       0.2795   0.0889   0.9556     N
N       0.2795   0.9111   0.4556     N
N       0.2804   0.1569    0.715     N
N       0.2804   0.8431    0.215     N
C        0.281   0.2217   0.3373     C
C        0.281   0.7783   0.8373     C
H       0.2874   0.3597   0.4465     H
H       0.2874   0.6403   0.9465     H
C        0.289    0.396   0.8995     C
C        0.289    0.604   0.3995     C
C       0.2923   0.3031   0.2775     C
C       0.2923   0.6969   0.7775     C
C       0.2934   0.3842   0.0234     C
C       0.2934   0.6158   0.5234     C
H       0.3049   0.2022    0.388     H
H       0.3049   0.7978    0.888     H
C       0.3097   0.3506   0.3882     C
C       0.3097   0.6494   0.8882     C
C       0.3151   0.0855   0.8889     C
C       0.3151   0.9145   0.3889     C
C       0.3158   0.1196   0.7659     C
C       0.3158   0.8804   0.2659     C
H       0.3161   0.3894   0.8619     H
H       0.3161   0.6106   0.3619     H
H       0.3202   0.4019   0.3596     H
H       0.3202   0.5981   0.8596     H
C       0.3265   0.2882   0.1848     C
C       0.3265   0.7118   0.6848     C
C       0.3266   0.3242   0.0683     C
C       0.3266   0.6758   0.5683     C
H       0.3325   0.3208     0.43     H
H       0.3325   0.6792     0.93     H
H       0.3493   0.1339   0.6077     H
H       0.3493   0.8661   0.1077     H
C       0.3497   0.1133   0.6898     C
C       0.3497   0.8867   0.1898     C
C       0.3507   0.0474   0.9417     C
C       0.3507   0.9526   0.4417     C
H       0.3513    0.027    0.024     H
H       0.3513    0.973    0.524     H
N       0.3552   0.2371   0.2206     N
N       0.3552   0.7629   0.7206     N
N       0.3556   0.3131   0.9888     N
N       0.3556   0.6869   0.4888     N
C       0.3847   0.0737   0.7445     C
C       0.3847   0.9263   0.2445     C
C       0.3848    0.041   0.8682     C
C       0.3848    0.959   0.3682     C
C       0.3866   0.2205   0.1397     C
C       0.3866   0.7795   0.6397     C
C       0.3867   0.2597   0.0205     C
C       0.3867   0.7403   0.5205     C
H       0.4183   0.2688   0.8586     H
H       0.4183   0.7312   0.3586     H
C       0.4184   0.2443    0.938     C
C       0.4184   0.7557    0.438     C
C       0.4186   0.1693   0.1787     C
C       0.4186   0.8307   0.6787     C
H       0.4196   0.1451   0.2585     H
H       0.4196   0.8549   0.7585     H
N       0.4228   0.0543   0.6976     N
N       0.4228   0.9457   0.1976     N
N       0.4234    0.005   0.8878     N
N       0.4234    0.995   0.3878     N
N       0.4445   0.0145   0.7851     N
N       0.4445   0.9855   0.2851     N
Cu     0.44456  0.05407   0.5324    Cu
Cu     0.44456  0.94593   0.0324    Cu
C       0.4493   0.1928   0.9754     C
C       0.4493   0.8072   0.4754     C
C       0.4497   0.1557   0.0912     C
C       0.4497   0.8443   0.5912     C
N       0.4836   0.1648   0.9145     N
N       0.4836   0.8352   0.4145     N
N       0.4847   0.1085   0.1032     N
N       0.4847   0.8915   0.6032     N
N       0.4961   0.1158   0.5027     N
N       0.4961   0.8842   0.0027     N
Cu         0.5  0.03346     0.25    Cu
Cu         0.5  0.17481     0.75    Cu
Cu         0.5  0.82519     0.25    Cu
Cu         0.5  0.96654     0.75    Cu
N       0.5039   0.1158   0.9973     N
N       0.5039   0.8842   0.4973     N
N       0.5153   0.1085   0.3968     N
N       0.5153   0.8915   0.8968     N
N       0.5164   0.1648   0.5855     N
N       0.5164   0.8352   0.0855     N
C       0.5503   0.1557   0.4088     C
C       0.5503   0.8443   0.9088     C
C       0.5507   0.1928   0.5246     C
C       0.5507   0.8072   0.0246     C
Cu     0.55544  0.05407   0.9676    Cu
Cu     0.55544  0.94593   0.4676    Cu
N       0.5555   0.0145   0.7149     N
N       0.5555   0.9855   0.2149     N
N       0.5766    0.005   0.6122     N
N       0.5766    0.995   0.1122     N
N       0.5772   0.0543   0.8024     N
N       0.5772   0.9457   0.3024     N
H       0.5804   0.1451   0.2415     H
H       0.5804   0.8549   0.7415     H
C       0.5814   0.1693   0.3213     C
C       0.5814   0.8307   0.8213     C
C       0.5816   0.2443    0.562     C
C       0.5816   0.7557    0.062     C
H       0.5817   0.2688   0.6414     H
H       0.5817   0.7312   0.1414     H
C       0.6133   0.2597   0.4795     C
C       0.6133   0.7403   0.9795     C
C       0.6134   0.2205   0.3603     C
C       0.6134   0.7795   0.8603     C
C       0.6152    0.041   0.6318     C
C       0.6152    0.959   0.1318     C
C       0.6153   0.0737   0.7555     C
C       0.6153   0.9263   0.2555     C
N       0.6444   0.3131   0.5112     N
N       0.6444   0.6869   0.0112     N
N       0.6448   0.2371   0.2794     N
N       0.6448   0.7629   0.7794     N
H       0.6487    0.027    0.476     H
H       0.6487    0.973    0.976     H
C       0.6493   0.0474   0.5583     C
C       0.6493   0.9526   0.0583     C
C       0.6503   0.1133   0.8102     C
C       0.6503   0.8867   0.3102     C
H       0.6507   0.1339   0.8923     H
H       0.6507   0.8661   0.3923     H
H       0.6675   0.3208     0.07     H
H       0.6675   0.6792     0.57     H
C       0.6734   0.3242   0.4317     C
C       0.6734   0.6758   0.9317     C
C       0.6735   0.2882   0.3152     C
C       0.6735   0.7118   0.8152     C
H       0.6798   0.4019   0.1404     H
H       0.6798   0.5981   0.6404     H
H       0.6839   0.3894   0.6381     H
H       0.6839   0.6106   0.1381     H
C       0.6842   0.1196   0.7341     C
C       0.6842   0.8804   0.2341     C
C       0.6849   0.0855   0.6111     C
C       0.6849   0.9145   0.1111     C
C       0.6903   0.3506   0.1118     C
C       0.6903   0.6494   0.6118     C
H       0.6951   0.2022    0.112     H
H       0.6951   0.7978    0.612     H
C       0.7066   0.3842   0.4766     C
C       0.7066   0.6158   0.9766     C
C       0.7077   0.3031   0.2225     C
C       0.7077   0.6969   0.7225     C
C        0.711    0.396   0.6005     C
C        0.711    0.604   0.1005     C
H       0.7126   0.3597   0.0535     H
H       0.7126   0.6403   0.5535     H
C        0.719   0.2217   0.1627     C
C        0.719   0.7783   0.6627     C
N       0.7196   0.1569    0.785     N
N       0.7196   0.8431    0.285     N
N       0.7205   0.0889   0.5444     N
N       0.7205   0.9111   0.0444     N
H       0.7215     0.45   0.6167     H
H       0.7215     0.55   0.1167     H
H       0.7261   0.1831   0.2284     H
H       0.7261   0.8169   0.7284     H
H       0.7309   0.3571   0.6365     H
H       0.7309   0.6429   0.1365     H
H        0.743   0.2289   0.1102     H
H        0.743   0.7711   0.6102     H
C       0.7454   0.3803   0.3993     C
C       0.7454   0.6197   0.8993     C
C       0.7474   0.3403   0.2815     C
C       0.7474   0.6597   0.7815     C
C       0.7526   0.1597   0.7185     C
C       0.7526   0.8403   0.2185     C
C       0.7546   0.1197   0.6007     C
C       0.7546   0.8803   0.1007     C
H        0.757   0.2711   0.8898     H
H        0.757   0.7289   0.3898     H
H       0.7691   0.1429   0.3635     H
H       0.7691   0.8571   0.8635     H
H       0.7739   0.3169   0.7716     H
H       0.7739   0.6831   0.2716     H
H       0.7785     0.05   0.3833     H
H       0.7785     0.95   0.8833     H
N       0.7795   0.4111   0.4556     N
N       0.7795   0.5889   0.9556     N
N       0.7804   0.3431    0.215     N
N       0.7804   0.6569    0.715     N
C        0.781   0.2783   0.8373     C
C        0.781   0.7217   0.3373     C
H       0.7874   0.1403   0.9465     H
H       0.7874   0.8597   0.4465     H
C        0.789    0.104   0.3995     C
C        0.789    0.896   0.8995     C
C       0.7923   0.1969   0.7775     C
C       0.7923   0.8031   0.2775     C
C       0.7934   0.1158   0.5234     C
C       0.7934   0.8842   0.0234     C
H       0.8049   0.2978    0.888     H
H       0.8049   0.7022    0.388     H
C       0.8097   0.1494   0.8882     C
C       0.8097   0.8506   0.3882     C
C       0.8151   0.4145   0.3889     C
C       0.8151   0.5855   0.8889     C
C       0.8158   0.3804   0.2659     C
C       0.8158   0.6196   0.7659     C
H       0.8161   0.1106   0.3619     H
H       0.8161   0.8894   0.8619     H
H       0.8202   0.0981   0.8596     H
H       0.8202   0.9019   0.3596     H
C       0.8265   0.2118   0.6848     C
C       0.8265   0.7882   0.1848     C
C       0.8266   0.1758   0.5683     C
C       0.8266   0.8242   0.0683     C
H       0.8325   0.1792     0.93     H
H       0.8325   0.8208     0.43     H
H       0.8493   0.3661   0.1077     H
H       0.8493   0.6339   0.6077     H
C       0.8497   0.3867   0.1898     C
C       0.8497   0.6133   0.6898     C
C       0.8507   0.4526   0.4417     C
C       0.8507   0.5474   0.9417     C
H       0.8513    0.473    0.524     H
H       0.8513    0.527    0.024     H
N       0.8552   0.2629   0.7206     N
N       0.8552   0.7371   0.2206     N
N       0.8556   0.1869   0.4888     N
N       0.8556   0.8131   0.9888     N
C       0.8847   0.4263   0.2445     C
C       0.8847   0.5737   0.7445     C
C       0.8848    0.459   0.3682     C
C       0.8848    0.541   0.8682     C
C       0.8866   0.2795   0.6397     C
C       0.8866   0.7205   0.1397     C
C       0.8867   0.2403   0.5205     C
C       0.8867   0.7597   0.0205     C
H       0.9183   0.2312   0.3586     H
H       0.9183   0.7688   0.8586     H
C       0.9184   0.2557    0.438     C
C       0.9184   0.7443    0.938     C
C       0.9186   0.3307   0.6787     C
C       0.9186   0.6693   0.1787     C
H       0.9196   0.3549   0.7585     H
H       0.9196   0.6451   0.2585     H
N       0.9228   0.4457   0.1976     N
N       0.9228   0.5543   0.6976     N
N       0.9234    0.495   0.3878     N
N       0.9234    0.505   0.8878     N
N       0.9445   0.4855   0.2851     N
N       0.9445   0.5145   0.7851     N
Cu     0.94456  0.44593   0.0324    Cu
Cu     0.94456  0.55407   0.5324    Cu
C       0.9493   0.3072   0.4754     C
C       0.9493   0.6928   0.9754     C
C       0.9497   0.3443   0.5912     C
C       0.9497   0.6557   0.0912     C
N       0.9836   0.3352   0.4145     N
N       0.9836   0.6648   0.9145     N
N       0.9847   0.3915   0.6032     N
N       0.9847   0.6085   0.1032     N
N       0.9961   0.3842   0.0027     N
N       0.9961   0.6158   0.5027     N
