data_I
_chemical_name_common  '/home/zhangsd/repos/MofS-CGCNN/ML/data/TSD/clean_cifs/UTEWOG_clean'
_cell_length_a 18.54900
_cell_length_b 18.54900
_cell_length_c 18.54900
_cell_angle_alpha 90.00000
_cell_angle_beta  90.00000
_cell_angle_gamma 90.00000
_space_group_name_H-M_alt      'P 1'


loop_
_space_group_symop_operation_xyz
  'x, y, z' 

loop_
_atom_site_label
_atom_site_fract_x
_atom_site_fract_y
_atom_site_fract_z
_atom_site_type_symbol
Ni         0.0  0.38115      0.5    Ni
Ni         0.0      0.5  0.38115    Ni
Ni         0.0      0.5  0.61885    Ni
Ni         0.0  0.61885      0.5    Ni
N        0.085  0.38009  0.43193     N
N        0.085  0.38009  0.56807     N
N        0.085  0.43193  0.38009     N
N        0.085  0.43193  0.61991     N
N        0.085  0.56807  0.38009     N
N        0.085  0.56807  0.61991     N
N        0.085  0.61991  0.43193     N
N        0.085  0.61991  0.56807     N
C      0.13431   0.3292  0.41309     C
C      0.13431   0.3292  0.58691     C
C      0.13431  0.41309   0.3292     C
C      0.13431  0.41309   0.6708     C
C      0.13431  0.58691   0.3292     C
C      0.13431  0.58691   0.6708     C
C      0.13431   0.6708  0.41309     C
C      0.13431   0.6708  0.58691     C
H       0.1455  0.28685  0.43962     H
H       0.1455  0.28685  0.56038     H
H       0.1455  0.43962  0.28685     H
H       0.1455  0.43962  0.71315     H
H       0.1455  0.56038  0.28685     H
H       0.1455  0.56038  0.71315     H
H       0.1455  0.71315  0.43962     H
H       0.1455  0.71315  0.56038     H
C      0.16478   0.3496   0.3496     C
C      0.16478   0.3496   0.6504     C
C      0.16478   0.6504   0.3496     C
C      0.16478   0.6504   0.6504     C
C      0.22006  0.31051  0.31051     C
C      0.22006  0.31051  0.68949     C
C      0.22006  0.68949  0.31051     C
C      0.22006  0.68949  0.68949     C
H      0.22788  0.22788  0.38183     H
H      0.22788  0.22788  0.61817     H
H      0.22788  0.38183  0.22788     H
H      0.22788  0.38183  0.77211     H
H      0.22788  0.61817  0.22788     H
H      0.22788  0.61817  0.77211     H
H      0.22788  0.77211  0.38183     H
H      0.22788  0.77211  0.61817     H
C      0.24622  0.24622  0.33767     C
C      0.24622  0.24622  0.66233     C
C      0.24622  0.33767  0.24622     C
C      0.24622  0.33767  0.75378     C
C      0.24622  0.66233  0.24622     C
C      0.24622  0.66233  0.75378     C
C      0.24622  0.75378  0.33767     C
C      0.24622  0.75378  0.66233     C
H      0.28685   0.1455  0.43962     H
H      0.28685   0.1455  0.56038     H
H      0.28685  0.43962   0.1455     H
H      0.28685  0.43962   0.8545     H
H      0.28685  0.56038   0.1455     H
H      0.28685  0.56038   0.8545     H
H      0.28685   0.8545  0.43962     H
H      0.28685   0.8545  0.56038     H
C      0.31051  0.22006  0.31051     C
C      0.31051  0.22006  0.68949     C
C      0.31051  0.31051  0.22006     C
C      0.31051  0.31051  0.77994     C
C      0.31051  0.68949  0.22006     C
C      0.31051  0.68949  0.77994     C
C      0.31051  0.77994  0.31051     C
C      0.31051  0.77994  0.68949     C
C       0.3292  0.13431  0.41309     C
C       0.3292  0.13431  0.58691     C
C       0.3292  0.41309  0.13431     C
C       0.3292  0.41309  0.86569     C
C       0.3292  0.58691  0.13431     C
C       0.3292  0.58691  0.86569     C
C       0.3292  0.86569  0.41309     C
C       0.3292  0.86569  0.58691     C
C      0.33767  0.24622  0.24622     C
C      0.33767  0.24622  0.75378     C
C      0.33767  0.75378  0.24622     C
C      0.33767  0.75378  0.75378     C
C       0.3496  0.16478   0.3496     C
C       0.3496  0.16478   0.6504     C
C       0.3496   0.3496  0.16478     C
C       0.3496   0.3496  0.83522     C
C       0.3496   0.6504  0.16478     C
C       0.3496   0.6504  0.83522     C
C       0.3496  0.83522   0.3496     C
C       0.3496  0.83522   0.6504     C
N      0.38009    0.085  0.43193     N
N      0.38009    0.085  0.56807     N
N      0.38009  0.43193    0.085     N
N      0.38009  0.43193    0.915     N
N      0.38009  0.56807    0.085     N
N      0.38009  0.56807    0.915     N
N      0.38009    0.915  0.43193     N
N      0.38009    0.915  0.56807     N
Ni     0.38115      0.0      0.5    Ni
Ni     0.38115      0.5      0.0    Ni
H      0.38183  0.22788  0.22788     H
H      0.38183  0.22788  0.77211     H
H      0.38183  0.77211  0.22788     H
H      0.38183  0.77211  0.77211     H
C      0.41309  0.13431   0.3292     C
C      0.41309  0.13431   0.6708     C
C      0.41309   0.3292  0.13431     C
C      0.41309   0.3292  0.86569     C
C      0.41309   0.6708  0.13431     C
C      0.41309   0.6708  0.86569     C
C      0.41309  0.86569   0.3292     C
C      0.41309  0.86569   0.6708     C
N      0.43193    0.085  0.38009     N
N      0.43193    0.085  0.61991     N
N      0.43193  0.38009    0.085     N
N      0.43193  0.38009    0.915     N
N      0.43193  0.61991    0.085     N
N      0.43193  0.61991    0.915     N
N      0.43193    0.915  0.38009     N
N      0.43193    0.915  0.61991     N
H      0.43962   0.1455  0.28685     H
H      0.43962   0.1455  0.71315     H
H      0.43962  0.28685   0.1455     H
H      0.43962  0.28685   0.8545     H
H      0.43962  0.71315   0.1455     H
H      0.43962  0.71315   0.8545     H
H      0.43962   0.8545  0.28685     H
H      0.43962   0.8545  0.71315     H
Ni         0.5      0.0  0.38115    Ni
Ni         0.5      0.0  0.61885    Ni
Ni         0.5  0.38115      0.0    Ni
Ni         0.5  0.61885      0.0    Ni
H      0.56038   0.1455  0.28685     H
H      0.56038   0.1455  0.71315     H
H      0.56038  0.28685   0.1455     H
H      0.56038  0.28685   0.8545     H
H      0.56038  0.71315   0.1455     H
H      0.56038  0.71315   0.8545     H
H      0.56038   0.8545  0.28685     H
H      0.56038   0.8545  0.71315     H
N      0.56807    0.085  0.38009     N
N      0.56807    0.085  0.61991     N
N      0.56807  0.38009    0.085     N
N      0.56807  0.38009    0.915     N
N      0.56807  0.61991    0.085     N
N      0.56807  0.61991    0.915     N
N      0.56807    0.915  0.38009     N
N      0.56807    0.915  0.61991     N
C      0.58691  0.13431   0.3292     C
C      0.58691  0.13431   0.6708     C
C      0.58691   0.3292  0.13431     C
C      0.58691   0.3292  0.86569     C
C      0.58691   0.6708  0.13431     C
C      0.58691   0.6708  0.86569     C
C      0.58691  0.86569   0.3292     C
C      0.58691  0.86569   0.6708     C
H      0.61817  0.22788  0.22788     H
H      0.61817  0.22788  0.77211     H
H      0.61817  0.77211  0.22788     H
H      0.61817  0.77211  0.77211     H
Ni     0.61885      0.0      0.5    Ni
Ni     0.61885      0.5      0.0    Ni
N      0.61991    0.085  0.43193     N
N      0.61991    0.085  0.56807     N
N      0.61991  0.43193    0.085     N
N      0.61991  0.43193    0.915     N
N      0.61991  0.56807    0.085     N
N      0.61991  0.56807    0.915     N
N      0.61991    0.915  0.43193     N
N      0.61991    0.915  0.56807     N
C       0.6504  0.16478   0.3496     C
C       0.6504  0.16478   0.6504     C
C       0.6504   0.3496  0.16478     C
C       0.6504   0.3496  0.83522     C
C       0.6504   0.6504  0.16478     C
C       0.6504   0.6504  0.83522     C
C       0.6504  0.83522   0.3496     C
C       0.6504  0.83522   0.6504     C
C      0.66233  0.24622  0.24622     C
C      0.66233  0.24622  0.75378     C
C      0.66233  0.75378  0.24622     C
C      0.66233  0.75378  0.75378     C
C       0.6708  0.13431  0.41309     C
C       0.6708  0.13431  0.58691     C
C       0.6708  0.41309  0.13431     C
C       0.6708  0.41309  0.86569     C
C       0.6708  0.58691  0.13431     C
C       0.6708  0.58691  0.86569     C
C       0.6708  0.86569  0.41309     C
C       0.6708  0.86569  0.58691     C
C      0.68949  0.22006  0.31051     C
C      0.68949  0.22006  0.68949     C
C      0.68949  0.31051  0.22006     C
C      0.68949  0.31051  0.77994     C
C      0.68949  0.68949  0.22006     C
C      0.68949  0.68949  0.77994     C
C      0.68949  0.77994  0.31051     C
C      0.68949  0.77994  0.68949     C
H      0.71315   0.1455  0.43962     H
H      0.71315   0.1455  0.56038     H
H      0.71315  0.43962   0.1455     H
H      0.71315  0.43962   0.8545     H
H      0.71315  0.56038   0.1455     H
H      0.71315  0.56038   0.8545     H
H      0.71315   0.8545  0.43962     H
H      0.71315   0.8545  0.56038     H
C      0.75378  0.24622  0.33767     C
C      0.75378  0.24622  0.66233     C
C      0.75378  0.33767  0.24622     C
C      0.75378  0.33767  0.75378     C
C      0.75378  0.66233  0.24622     C
C      0.75378  0.66233  0.75378     C
C      0.75378  0.75378  0.33767     C
C      0.75378  0.75378  0.66233     C
H      0.77211  0.22788  0.38183     H
H      0.77211  0.22788  0.61817     H
H      0.77211  0.38183  0.22788     H
H      0.77211  0.38183  0.77211     H
H      0.77211  0.61817  0.22788     H
H      0.77211  0.61817  0.77211     H
H      0.77211  0.77211  0.38183     H
H      0.77211  0.77211  0.61817     H
C      0.77994  0.31051  0.31051     C
C      0.77994  0.31051  0.68949     C
C      0.77994  0.68949  0.31051     C
C      0.77994  0.68949  0.68949     C
C      0.83522   0.3496   0.3496     C
C      0.83522   0.3496   0.6504     C
C      0.83522   0.6504   0.3496     C
C      0.83522   0.6504   0.6504     C
H       0.8545  0.28685  0.43962     H
H       0.8545  0.28685  0.56038     H
H       0.8545  0.43962  0.28685     H
H       0.8545  0.43962  0.71315     H
H       0.8545  0.56038  0.28685     H
H       0.8545  0.56038  0.71315     H
H       0.8545  0.71315  0.43962     H
H       0.8545  0.71315  0.56038     H
C      0.86569   0.3292  0.41309     C
C      0.86569   0.3292  0.58691     C
C      0.86569  0.41309   0.3292     C
C      0.86569  0.41309   0.6708     C
C      0.86569  0.58691   0.3292     C
C      0.86569  0.58691   0.6708     C
C      0.86569   0.6708  0.41309     C
C      0.86569   0.6708  0.58691     C
N        0.915  0.38009  0.43193     N
N        0.915  0.38009  0.56807     N
N        0.915  0.43193  0.38009     N
N        0.915  0.43193  0.61991     N
N        0.915  0.56807  0.38009     N
N        0.915  0.56807  0.61991     N
N        0.915  0.61991  0.43193     N
N        0.915  0.61991  0.56807     N
