data_I
_chemical_name_common  '/home/zhangsd/repos/MofS-CGCNN/ML/data/TSD/clean_cifs/UTOTUT_clean'
_cell_length_a  6.40940
_cell_length_b 14.85700
_cell_length_c 16.06600
_cell_angle_alpha 90.00000
_cell_angle_beta  90.00000
_cell_angle_gamma 90.00000
_space_group_name_H-M_alt      'P 1'


loop_
_space_group_symop_operation_xyz
  'x, y, z' 

loop_
_atom_site_label
_atom_site_fract_x
_atom_site_fract_y
_atom_site_fract_z
_atom_site_type_symbol
Cu     0.01037  0.75704  0.50551    Cu
N        0.067   0.3951   0.1296     N
N       0.0842   0.6053   0.6305     N
H        0.127   0.5149   0.2423     H
H       0.1407   0.4828   0.7419     H
N       0.1411   0.3378   0.0718     N
N       0.1571   0.6647   0.5747     N
O       0.2193   0.9285   0.8578     O
O        0.222   0.7342   0.2669     O
C       0.2284   0.9389   0.9334     C
N       0.2306   0.6081   0.9675     N
O       0.2307   0.6039   0.8922     O
C       0.2314   0.8587   0.9897     C
C        0.232   0.6991   0.0069     C
C        0.233   0.7719   0.9538     C
H       0.2346   0.7643   0.8964     H
H       0.2349    0.924   0.1004     H
C       0.2351    0.867   0.0765     C
C       0.2357   0.7058   0.0927     C
H       0.2358   0.6547   0.1261     H
O       0.2373   0.0175   0.9672     O
C       0.2373   0.8019    0.222     C
C       0.2391   0.7911   0.1276     C
O       0.2407   0.5433   0.0142     O
Cu      0.2423  0.09184  0.86393    Cu
O       0.2425   0.1182   0.7475     O
N        0.244   0.4953   0.2234     N
O       0.2451   0.2263   0.9366     O
C       0.2468   0.4304   0.1647     C
C       0.2532   0.5696   0.6647     C
O       0.2549   0.7737   0.4366     O
N        0.256   0.5047   0.7234     N
O       0.2575   0.8818   0.2475     O
Cu      0.2577  0.90816  0.36393    Cu
O       0.2593   0.4567   0.5142     O
C       0.2609   0.2089   0.6276     C
C       0.2627   0.1981    0.722     C
O       0.2627   0.9825   0.4672     O
H       0.2642   0.3453   0.6261     H
C       0.2643   0.2942   0.5927     C
C       0.2649    0.133   0.5765     C
H       0.2651    0.076   0.6004     H
H       0.2654   0.2357   0.3964     H
C        0.267   0.2281   0.4538     C
C        0.268   0.3009   0.5069     C
C       0.2686   0.1413   0.4897     C
O       0.2693   0.3961   0.3922     O
N       0.2694   0.3919   0.4675     N
C       0.2716   0.0611   0.4334     C
O        0.278   0.2658   0.7669     O
O       0.2807   0.0715   0.3578     O
N       0.3429   0.3353   0.0747     N
N       0.3589   0.6622   0.5718     N
H       0.3593   0.5172   0.2419     H
H        0.373   0.4851   0.7423     H
N       0.4158   0.3947   0.1305     N
N        0.433   0.6049   0.6296     N
Cu     0.48963  0.24296  0.00551    Cu
Cu     0.51037  0.74296  0.49449    Cu
N        0.567   0.1049   0.8704     N
N       0.5842   0.8947   0.3695     N
H        0.627   0.9851   0.7577     H
H       0.6407   0.0172   0.2581     H
N       0.6411   0.1622   0.9282     N
N       0.6571   0.8353   0.4253     N
O       0.7193   0.5715   0.1422     O
O        0.722   0.7658   0.7331     O
C       0.7284   0.5611   0.0666     C
N       0.7306   0.8919   0.0325     N
O       0.7307   0.8961   0.1078     O
C       0.7314   0.6413   0.0103     C
C        0.732   0.8009   0.9931     C
C        0.733   0.7281   0.0462     C
H       0.7346   0.7357   0.1036     H
H       0.7349    0.576   0.8996     H
C       0.7351    0.633   0.9235     C
C       0.7357   0.7942   0.9073     C
H       0.7358   0.8453   0.8739     H
O       0.7373   0.4825   0.0328     O
C       0.7373   0.6981    0.778     C
C       0.7391   0.7089   0.8724     C
O       0.7407   0.9567   0.9858     O
Cu      0.7423  0.40816  0.13607    Cu
O       0.7425   0.3818   0.2525     O
N        0.744   0.0047   0.7766     N
O       0.7451   0.2737   0.0634     O
C       0.7468   0.0696   0.8353     C
C       0.7532   0.9304   0.3353     C
O       0.7549   0.7263   0.5634     O
N        0.756   0.9953   0.2766     N
O       0.7575   0.6182   0.7525     O
Cu      0.7577  0.59184  0.63607    Cu
O       0.7593   0.0433   0.4858     O
C       0.7609   0.2911   0.3724     C
C       0.7627   0.3019    0.278     C
O       0.7627   0.5175   0.5328     O
H       0.7642   0.1547   0.3739     H
C       0.7643   0.2058   0.4073     C
C       0.7649    0.367   0.4235     C
H       0.7651    0.424   0.3996     H
H       0.7654   0.2643   0.6036     H
C        0.767   0.2719   0.5462     C
C        0.768   0.1991   0.4931     C
C       0.7686   0.3587   0.5103     C
O       0.7693   0.1039   0.6078     O
N       0.7694   0.1081   0.5325     N
C       0.7716   0.4389   0.5666     C
O        0.778   0.2342   0.2331     O
O       0.7807   0.4285   0.6422     O
N       0.8429   0.1647   0.9253     N
N       0.8589   0.8378   0.4282     N
H       0.8593   0.9828   0.7581     H
H        0.873   0.0149   0.2577     H
N       0.9158   0.1053   0.8695     N
N        0.933   0.8951   0.3704     N
Cu     0.98963  0.25704  0.99449    Cu
