data_I
_chemical_name_common  '/home/zhangsd/repos/MofS-CGCNN/ML/data/TSD/clean_cifs/UVUDUM_clean'
_cell_length_a 27.67650
_cell_length_b 27.67650
_cell_length_c 17.93530
_cell_angle_alpha 90.00000
_cell_angle_beta  90.00000
_cell_angle_gamma 120.00000
_space_group_name_H-M_alt      'P 1'


loop_
_space_group_symop_operation_xyz
  'x, y, z' 

loop_
_atom_site_label
_atom_site_fract_x
_atom_site_fract_y
_atom_site_fract_z
_atom_site_type_symbol
Zn     0.00018  0.34412  0.26772    Zn
O       0.0006  0.38157  0.36206     O
O      0.00269  0.55829  0.32798     O
H      0.01027  0.53383  0.64283     H
Zn      0.0106  0.33315  0.60105    Zn
Zn     0.01078  0.67727  0.06562    Zn
O      0.01176  0.28912  0.11533     O
H       0.0178   0.8618   0.0785     H
O       0.0183  0.74708  0.43105     O
O      0.02248  0.26934  0.40578     O
O      0.02269  0.28498  0.28363     O
Zn     0.02425  0.61272  0.24855    Zn
C      0.02622  0.44887  0.61446     C
H      0.03093  0.79267  0.80317     H
C      0.03227  0.54127  0.59914     C
H       0.0332   0.7859   0.3021     H
C      0.03415  0.63235  0.58499     C
H      0.03423  0.17617  0.72747     H
C      0.03431  0.73513  0.91833     C
H       0.0346   0.8175   0.0494     H
H      0.03643  0.17917  0.59537     H
O      0.03928  0.41467  0.58801     O
C       0.0417  0.27352  0.33991     C
O      0.04206  0.29406  0.92135     O
O       0.0438  0.57614   0.1708     O
O      0.04421   0.3893    0.782     O
C      0.04703  0.50315  0.57401     C
O      0.04763  0.33273  0.69539     O
O      0.04823   0.7143  0.97128     O
O      0.04835  0.40438   0.9503     O
C      0.04859  0.85693  0.06073     C
C      0.05005  0.59064  0.55961     C
Zn     0.05395  0.74487  0.58188    Zn
O      0.05597  0.67842  0.55133     O
H      0.05693  0.50487  0.10557     H
C      0.05754  0.60134  0.10898     C
C      0.05981  0.43485  0.00658     C
O      0.06211  0.64837  0.09772     O
C      0.06395  0.52089  0.05717     C
O      0.06399  0.41981  0.07245     O
H      0.06423  0.24347  0.82687     H
H       0.0646   0.8793   0.0156     H
C      0.06502  0.81407  0.82923     C
C      0.06533  0.78954  0.44231     C
H      0.06693  0.14667  0.62487     H
O      0.06776  0.83915  0.18342     O
C      0.06846  0.36748  0.74834     C
C       0.0687  0.20313  0.70092     C
C      0.06875  0.18293  0.62268     C
C      0.06894  0.57296  0.04593     C
C      0.06897  0.81787   0.3093     C
C       0.0694  0.49269  0.99691     C
H      0.07053  0.23977  0.69957     H
O      0.07104  0.68936  0.38304     O
C      0.07602  0.79274  0.89295     C
Zn      0.0782  0.35759  0.08479    Zn
H        0.079   0.2491   0.2175     H
C      0.07939  0.51356  0.50985     C
H      0.07973  0.93307  0.62487     H
O      0.08041  0.39545  0.23562     O
H      0.08133  0.54107  0.76887     H
O      0.08134  0.70873  0.74532     O
C      0.08168  0.51655  0.92552     C
C      0.08223   0.5977  0.97597     C
C      0.08238  0.60164  0.49589     C
H      0.08423  0.49657  0.88417     H
H       0.0849   0.1908    0.135     H
H      0.08603  0.63347  0.96877     H
O      0.08647  0.68915  0.26089     O
C      0.08932  0.30712   0.9478     C
H      0.08987  0.48743  0.49353     H
C      0.08995  0.26393  0.33024     C
C      0.08998     0.57  0.91646     C
O      0.09053    0.801  0.50413     O
O      0.09086  0.88291  0.73805     O
C      0.09308  0.87595  0.12054     C
H      0.09357  0.49743  0.36623     H
C      0.09371  0.82932  0.37926     C
H      0.09507  0.63573  0.46983     H
C       0.0961  0.56241   0.4703     C
C      0.09667  0.85332  0.24979     C
C      0.10084  0.25395  0.84319     C
C      0.10151  0.70837  0.32676     C
C      0.10153  0.25165  0.25885     C
H      0.10303  0.20987  0.59707     H
C      0.10425  0.86702  0.80364     C
O      0.10472  0.59891  0.85009     O
H       0.1059   0.9151    0.135     H
H      0.10683  0.89697  0.59707     H
O      0.10838  0.77774  0.66131     O
O      0.11107  0.33603  0.00536     O
C      0.11417  0.93125  0.62268     C
H       0.1146   0.2764   0.4389     H
C      0.11554  0.75599  0.71887     C
C       0.1162  0.57359  0.78721     C
H      0.11623  0.63207  0.71607     H
O      0.11709  0.20796  0.73805     O
H      0.11923  0.41937  0.36457     H
H       0.1207   0.1853   0.0156     H
C      0.12279  0.28631  0.90735     C
C      0.12287  0.39088  0.22436     C
H      0.12347  0.55983  0.26373     H
C       0.1236  0.26938   0.3905     C
C      0.12405  0.21713  0.12054     C
O      0.12538   0.5758  0.40471     O
C      0.12539  0.82433  0.93248     C
H       0.1256   0.8736   0.1022     H
H        0.126   0.4284   0.8635     H
C      0.12607  0.38338  0.77372     C
H       0.1264    0.252   0.1022     H
C      0.13021  0.53224  0.36758     C
H      0.13283  0.80977  0.97617     H
C      0.13298  0.23724  0.80364     C
O      0.13433  0.37714  0.16254     O
C      0.13442   0.9313  0.70092     C
H       0.1382    0.156   0.0785     H
C      0.14167  0.61808   0.7274     C
H      0.14193  0.96577  0.72747     H
H      0.14253  0.56077  0.80167     H
H      0.14273  0.96357  0.59537     H
C      0.14307  0.19166  0.06073     C
H       0.1431   0.3436   0.6905     H
C      0.14578   0.8764   0.3905     C
H      0.14667  0.07973  0.37513     H
C      0.14668  0.24335  0.24979     C
C       0.1474  0.41571  0.83744     C
H      0.14803  0.60207  0.68227     H
C      0.15012  0.89847  0.25885     C
C      0.15041  0.55249  0.28934     C
H      0.15083  0.44957  0.61727     H
C       0.1512  0.41557  0.35737     C
C       0.1531  0.89916  0.84319     C
H       0.1541   0.7309   0.8398     H
H      0.15417  0.52393  0.26203     H
H        0.156   0.0178   0.9215     H
H      0.15717  0.52473  0.39413     H
C      0.15766   0.3656  0.73419     C
C      0.15935  0.75662  0.33643     C
O      0.16085  0.22861  0.18342     O
H       0.1618   0.8854   0.4389     H
C      0.16265  0.40228  0.28741     C
H      0.16323  0.74567  0.44917     H
C      0.16351  0.87721  0.90735     C
H       0.1641   0.7372   0.9671     H
H      0.16923  0.92947  0.69957     H
C      0.16982  0.78946  0.75932     C
H       0.1701    0.921   0.2175     H
C      0.17068  0.26439  0.37926     C
H      0.17153  0.78127  0.22777     H
O      0.17248  0.43806  0.48325     O
C      0.17398  0.91005  0.33024     C
C      0.17567  0.30107  0.93248     C
H      0.17617  0.14193  0.27253     H
H      0.17733  0.64887  0.74517     H
H      0.17917  0.14273  0.40463     H
H      0.17923  0.93577  0.82687     H
C      0.18023  0.76751  0.82348     C
C      0.18213   0.2511   0.3093     C
H       0.1825   0.2171   0.0494     H
C      0.18293  0.11417  0.37732     C
C      0.18321   0.7682  0.40782     C
H       0.1853   0.0646   0.9844     H
C      0.18593  0.25096  0.82923     C
C      0.18665  0.42332  0.41688     C
H      0.18667  0.58693  0.29153     H
C      0.18755  0.79027  0.27617     C
H      0.19023  0.32307  0.97617     H
C      0.19026  0.47501  0.60594     C
H       0.1906   0.7031   0.0713     H
H       0.1908   0.1059    0.865     H
H       0.1914   0.7009   0.9392     H
C      0.19166  0.04859  0.93927     C
H      0.19513  0.51067  0.58817     H
C      0.19891  0.73537  0.96575     C
O        0.199  0.28953  0.50413     O
C      0.20035  0.42943  0.86303     C
H       0.2005   0.8569   0.6905     H
C      0.20313  0.13442  0.29908     C
H      0.20693  0.41467  0.56447     H
C      0.20726  0.28329  0.89295     C
H      0.20733  0.23827  0.80317     H
H      0.20773  0.79307  0.56447     H
C      0.20794  0.84234  0.73419     C
O      0.20796  0.09086  0.26195     O
C      0.20928  0.44954  0.54613     C
C      0.20973  0.39729  0.27617     C
H      0.20987  0.10683  0.40293     H
C      0.21046  0.27579  0.44231     C
C      0.21054  0.38036  0.75932     C
H      0.21263  0.48137  0.65107     H
H       0.2141   0.2473   0.3021     H
O      0.21624  0.45871  0.92862     O
H       0.2171   0.0346   0.9506     H
C      0.21713  0.09308  0.87946     C
C      0.21779  0.91068   0.9478     C
H      0.21873  0.39027  0.22777     H
C      0.21916  0.73542  0.04399     C
O      0.22226  0.33064  0.66131     O
O      0.22495  0.88893  0.00536     O
H       0.2265   0.7697   0.0696     H
H      0.22743  0.75157  0.53167     H
O      0.22861  0.06776  0.81658     O
C      0.22908  0.79965  0.86303     C
H       0.2303   0.4568   0.0696     H
C       0.2318  0.41502  0.40782     C
C      0.23182   0.9583  0.33991     C
C      0.23249  0.41272  0.82348     C
C      0.23666  0.81335  0.41688     C
C      0.23724  0.10425  0.19636     C
H      0.23827  0.03093  0.19683     H
C      0.23962  0.83735  0.28741     C
H      0.23977  0.16923  0.30043     H
C      0.24025  0.79072  0.54613     C
O      0.24247  0.78376  0.92862     O
O       0.2428  0.86567  0.16254     O
C      0.24335  0.09667  0.75021     C
C      0.24338  0.40274  0.33643     C
H      0.24347  0.17923  0.17313     H
C      0.24401  0.35955  0.71887     C
O      0.24686  0.97752  0.40578     O
H       0.2473   0.0332   0.6979     H
H      0.24843  0.47587  0.53167     H
H       0.2491   0.1701   0.7825     H
C      0.25096  0.06502  0.17077     C
C       0.2511  0.06897   0.6907     C
C      0.25165  0.15012  0.74115     C
O      0.25199  0.95794  0.92135     O
H        0.252   0.1256   0.8978     H
O      0.25292  0.27122  0.43105     O
H       0.2536   0.7336   0.0418     H
C      0.25395   0.1531  0.15681     C
H      0.25433  0.41757  0.44917     H
Zn     0.25513  0.30908  0.58188    Zn
C      0.25731  0.87393  0.77372     C
O      0.26229  0.97731  0.28363     O
H       0.2628   0.4269   0.9671     H
C      0.26393  0.17398  0.66976     C
C      0.26436   0.8488  0.35737     C
C      0.26439  0.09371  0.62074     C
C      0.26458  0.48374  0.04399     C
C      0.26463  0.46354  0.96575     C
C      0.26487  0.29919  0.91833     C
O      0.26557  0.82752  0.48325     O
H       0.2664     0.52   0.0418     H
C        0.268  0.87713  0.22436     C
C      0.26831   0.8526  0.83744     C
H      0.26873  0.78737  0.65107     H
H       0.2691   0.4232   0.8398     H
O      0.26934  0.24686  0.59422     O
C      0.26938  0.14578   0.6095     C
O      0.27122   0.0183  0.56895     O
C      0.27352  0.23182  0.66009     C
C      0.27579  0.06533  0.55769     C
H       0.2764   0.1618   0.5611     H
O      0.27737  0.98824  0.11533     O
Zn     0.27938   0.9218  0.08479    Zn
C      0.28329  0.07602  0.10705     C
C      0.28474  0.80974  0.60594     C
O      0.28498  0.26229  0.71637     O
O       0.2851  0.95237  0.69539     O
O       0.2857  0.33394  0.97128     O
C      0.28631  0.16351  0.09265     C
O      0.28912  0.27737  0.88467     O
O      0.28953  0.09053  0.49587     O
O      0.29127  0.37261  0.74532     O
C      0.29163  0.39315  0.32676     C
O      0.29406  0.25199  0.07865     O
H       0.2969   0.4875   0.0713     H
H      0.29873  0.84917  0.61727     H
C      0.29902  0.93154  0.74834     C
H       0.2991   0.4905   0.9392     H
C      0.29919  0.03431  0.08167     C
H      0.30013  0.88077  0.36457     H
C      0.30107  0.12539  0.06752     C
H       0.3024    0.874   0.8635     H
C      0.30712  0.21779   0.0522     C
Zn     0.30908  0.05395  0.41812    Zn
O      0.31064  0.38169  0.38304     O
O      0.31085  0.39733  0.26089     O
O      0.31503  0.91959  0.23562     O
H      0.31553  0.80487  0.58817     H
O      0.32158  0.37754  0.55133     O
Zn     0.32255   0.9894  0.60105    Zn
Zn     0.32273  0.33352  0.06562    Zn
H      0.32307  0.13283  0.02383     H
O      0.33064  0.10838  0.33869     O
O      0.33273   0.2851  0.30461     O
Zn     0.33315  0.32255  0.39895    Zn
Zn     0.33352  0.01078  0.93438    Zn
O      0.33394  0.04823  0.02872     O
O      0.33603  0.22495  0.99464     O
H       0.3436   0.2005   0.3095     H
Zn     0.34393  0.99982  0.26772    Zn
Zn     0.34412  0.34393  0.73228    Zn
O      0.34509  0.95579    0.782     O
H      0.35113  0.52847  0.74517     H
O      0.35163  0.41375  0.09772     O
O      0.35581  0.93601  0.07245     O
O      0.35602  0.95165   0.9503     O
Zn     0.35759  0.27938  0.91521    Zn
C      0.35955  0.11554  0.28113     C
H      0.36427  0.45933  0.46983     H
C       0.3656  0.20794  0.26581     C
H      0.36653  0.45257  0.96877     H
C      0.36748  0.29902  0.25166     C
H      0.36757  0.84283  0.39413     H
C      0.36765  0.40179  0.58499     C
H      0.36793  0.48417  0.71607     H
H      0.36977  0.84583  0.26203     H
O      0.37261  0.08134  0.25468     O
C      0.37503  0.94019  0.00658     C
O       0.3754  0.96072  0.58801     O
O      0.37714   0.2428  0.83746     O
O      0.37754  0.05597  0.44867     O
C      0.38036  0.16982  0.24068     C
O      0.38096   0.9994  0.36206     O
O      0.38157  0.38096  0.63794     O
O      0.38169  0.07104  0.61696     O
C      0.38192   0.5236   0.7274     C
C      0.38338  0.25731  0.22628     C
Zn     0.38728  0.41154  0.24855    Zn
O       0.3893  0.34509    0.218     O
H      0.39027  0.17153  0.77223     H
C      0.39088    0.268  0.77564     C
C      0.39315  0.10151  0.67324     C
O      0.39545  0.31503  0.76438     O
C      0.39729  0.18755  0.72383     C
O      0.39733  0.08647  0.73911     O
H      0.39757  0.91013  0.49353     H
H      0.39793  0.54597  0.68227     H
C      0.39836  0.48073  0.49589     C
C      0.39866  0.45621  0.10898     C
H      0.40027  0.81333  0.29153     H
O      0.40109  0.50582  0.85009     O
C      0.40179  0.03415  0.41501     C
C      0.40204  0.86979  0.36758     C
C      0.40209  0.84959  0.28934     C
C      0.40228  0.23962  0.71259     C
C       0.4023  0.48454  0.97597     C
C      0.40274  0.15935  0.66357     C
H      0.40387  0.90643  0.36623     H
O      0.40438  0.35602   0.0497     O
C      0.40936   0.4594  0.55961     C
Zn     0.41154  0.02425  0.75145    Zn
H      0.41233  0.91577  0.88417     H
C      0.41272  0.18023  0.17652     C
H      0.41307  0.59973  0.29153     H
O      0.41375  0.06211  0.90228     O
H      0.41467  0.20773  0.43553     H
O      0.41467   0.3754  0.41199     O
C      0.41502  0.18321  0.59218     C
C      0.41557  0.26436  0.64263     C
C      0.41571  0.26831  0.16256     C
H      0.41757  0.16323  0.55083     H
H      0.41823  0.85747  0.80167     H
H      0.41937  0.30013  0.63543     H
O      0.41981  0.35581  0.92755     O
C      0.42266  0.97378  0.61446     C
H       0.4232   0.1541   0.1602     H
C      0.42328   0.9306  0.99691     C
C      0.42332  0.23666  0.58312     C
O      0.42386  0.46767   0.1708     O
O       0.4242  0.54957  0.40471     O
C      0.42641  0.54262  0.78721     C
H       0.4269   0.1641   0.0329     H
C      0.42704  0.49599  0.04593     C
H       0.4284   0.3024   0.1365     H
C      0.42943  0.22908  0.13697     C
C         0.43  0.51999  0.91646     C
C      0.43418  0.92061  0.50985     C
C      0.43485  0.37503  0.99342     C
C      0.43486  0.91832  0.92552     C
H      0.43637  0.87653  0.26373     H
C      0.43759  0.53368   0.4703     C
O      0.43806  0.26557  0.51675     O
H      0.43923  0.58177  0.80167     H
H      0.44017  0.56363  0.26373     H
O      0.44171  0.44441  0.32798     O
O      0.44441  0.00269  0.67202     O
C      0.44751  0.59791  0.28934     C
H      0.44793  0.94307  0.10557     H
C      0.44887  0.42266  0.38554     C
C      0.44954  0.24025  0.45387     C
H      0.44957  0.29873  0.38273     H
O      0.45043  0.87462  0.40471     O
H      0.45257  0.08603  0.03123     H
H      0.45403  0.85197  0.68227     H
C      0.45613  0.95297  0.57401     C
C      0.45621  0.05754  0.89102     C
H       0.4568   0.2265   0.9304     H
C      0.45693  0.93605  0.05717     C
C      0.45738   0.8838  0.78721     C
O      0.45871  0.24247  0.07138     O
C      0.45873  0.49099  0.59914     C
H      0.45893  0.54027  0.76887     H
H      0.45933  0.09507  0.53017     H
C       0.4594  0.05005  0.44039     C
H      0.45973  0.91867  0.76887     H
C      0.46354  0.19891  0.03425     C
H      0.46617  0.47643  0.64283     H
C      0.46632   0.9039   0.4703     C
O      0.46767   0.0438   0.8292     O
C      0.46776  0.59796  0.36758     C
H      0.47153  0.82267  0.74517     H
C      0.47501  0.28474  0.39406     C
H      0.47527  0.63243  0.39413     H
H      0.47587  0.22743  0.46833     H
H      0.47607  0.63023  0.26203     H
C       0.4764  0.85833   0.7274     C
H      0.47643  0.01027  0.35717     H
C      0.47911  0.54307  0.05717     C
H         0.48   0.7464   0.0418     H
C      0.48001  0.91002  0.91646     C
C      0.48073  0.08238  0.50411     C
H      0.48137  0.26873  0.34893     H
C      0.48345  0.56514  0.92552     C
C      0.48374  0.21916  0.95601     C
H      0.48417  0.11623  0.28393     H
C      0.48454  0.08223  0.02403     C
C      0.48644  0.56582  0.50985     C
H      0.48743  0.39757  0.50647     H
H       0.4875   0.1906   0.9287     H
H      0.48933  0.68447  0.58817     H
H       0.4905   0.1914   0.0608     H
C      0.49099  0.03227  0.40086     C
C      0.49269  0.42328  0.00309     C
O      0.49418  0.89528  0.85009     O
H      0.49513  0.55207  0.10557     H
C      0.49599  0.06894  0.95407     C
H      0.49657  0.41233  0.11583     H
C      0.49685  0.54387  0.57401     C
H      0.49743  0.40387  0.63377     H
H      0.50257  0.59613  0.36623     H
C      0.50315  0.45613  0.42599     C
H      0.50343  0.58767  0.88417     H
C      0.50401  0.93106  0.04593     C
H      0.50487  0.44793  0.89443     H
O      0.50582  0.10472  0.14991     O
C      0.50731  0.57672  0.99691     C
C      0.50901  0.96773  0.59914     C
H       0.5095   0.8086   0.9392     H
H      0.51067  0.31553  0.41183     H
H       0.5125   0.8094   0.0713     H
H      0.51257  0.60243  0.49353     H
C      0.51356  0.43418  0.49015     C
C      0.51546  0.91777  0.97597     C
H      0.51583  0.88377  0.71607     H
C      0.51626  0.78084  0.04399     C
C      0.51655  0.43486  0.07448     C
H      0.51863  0.73127  0.65107     H
C      0.51927  0.91762  0.49589     C
C      0.51999  0.08998  0.08354     C
H         0.52   0.2536   0.9582     H
C      0.52089  0.45693  0.94283     C
H      0.52357  0.98973  0.64283     H
C       0.5236  0.14167   0.2726     C
H      0.52393  0.36977  0.73797     H
H      0.52413  0.77257  0.53167     H
H      0.52473  0.36757  0.60587     H
C      0.52499  0.71526  0.60594     C
H      0.52847  0.17733  0.25483     H
C      0.53224  0.40204  0.63242     C
O      0.53233   0.9562   0.1708     O
C      0.53368   0.0961   0.5297     C
H      0.53383  0.52357  0.35717     H
C      0.53646  0.80109  0.96575     C
H      0.54027  0.08133  0.23113     H
C       0.5406  0.94995  0.55961     C
H      0.54067  0.90493  0.46983     H
H      0.54107  0.45973  0.23113     H
C      0.54127  0.50901  0.40086     C
O      0.54129  0.75753  0.92862     O
C      0.54262   0.1162  0.21279     C
C      0.54307  0.06395  0.94283     C
H       0.5432   0.7735   0.0696     H
C      0.54379  0.94246  0.10898     C
C      0.54387  0.04703  0.42599     C
H      0.54597  0.14803  0.31773     H
H      0.54743  0.91397  0.96877     H
O      0.54957  0.12538  0.59529     O
H      0.55043  0.70127  0.61727     H
C      0.55046  0.75975  0.54613     C
C      0.55113  0.57734  0.61446     C
H      0.55207  0.05693  0.89443     H
C      0.55249  0.40209  0.71066     C
O      0.55559  0.99731  0.32798     O
O      0.55829  0.55559  0.67202     O
H      0.55983  0.43637  0.73627     H
H      0.56077  0.41823  0.19833     H
O      0.56194  0.73443  0.48325     O
C      0.56241  0.46632   0.5297     C
H      0.56363  0.12347  0.73627     H
C      0.56514  0.08168  0.07448     C
C      0.56515  0.62497  0.00658     C
C      0.56582  0.07939  0.49015     C
C         0.57  0.48001  0.08354     C
C      0.57057  0.77092  0.86303     C
H       0.5716   0.6976   0.8635     H
C      0.57296  0.50401  0.95407     C
H       0.5731   0.8359   0.9671     H
C      0.57359  0.45738  0.21279     C
O       0.5758  0.45043  0.59529     O
O      0.57614  0.53233   0.8292     O
C      0.57668  0.76334  0.41688     C
C      0.57672   0.0694  0.00309     C
H       0.5768   0.8459   0.8398     H
C      0.57734  0.02622  0.38554     C
O      0.58019  0.64419  0.07245     O
H      0.58063  0.69987  0.36457     H
H      0.58177  0.14253  0.19833     H
H      0.58243  0.83677  0.44917     H
C      0.58429  0.73169  0.83744     C
C      0.58443  0.73564  0.35737     C
C      0.58498  0.81679  0.40782     C
O      0.58533   0.6246  0.58801     O
H      0.58533  0.79227  0.56447     H
O      0.58625  0.93789  0.09772     O
H      0.58693  0.40027  0.70847     H
C      0.58728  0.81977  0.82348     C
H      0.58767  0.08423  0.11583     H
Zn     0.58846  0.97575  0.24855    Zn
C      0.59064   0.5406  0.44039     C
O      0.59562  0.64398   0.9503     O
H      0.59613  0.09357  0.63377     H
C      0.59726  0.84065  0.33643     C
C       0.5977  0.51546  0.02403     C
C      0.59772  0.76038  0.28741     C
C      0.59791  0.15041  0.71066     C
C      0.59796  0.13021  0.63242     C
C      0.59821  0.96585  0.58499     C
O      0.59891  0.49418  0.14991     O
H      0.59973  0.18667  0.70847     H
C      0.60134  0.54379  0.89102     C
C      0.60164  0.51927  0.50411     C
H      0.60207  0.45403  0.31773     H
H      0.60243  0.08987  0.50647     H
O      0.60267  0.91353  0.26089     O
C      0.60271  0.81245  0.27617     C
O      0.60455  0.68497  0.23562     O
C      0.60685  0.89849  0.32676     C
C      0.60912    0.732  0.22436     C
H      0.60973  0.82847  0.22777     H
O       0.6107  0.65491    0.782     O
Zn     0.61272  0.58846  0.75145    Zn
C      0.61662  0.74269  0.77372     C
C      0.61808   0.4764   0.2726     C
O      0.61831  0.92896  0.38304     O
O      0.61843  0.61904  0.36206     O
O      0.61904   0.0006  0.63794     O
C      0.61964  0.83018  0.75932     C
O      0.62246  0.94403  0.55133     O
O      0.62286   0.7572  0.16254     O
O       0.6246  0.03928  0.41199     O
C      0.62497  0.05981  0.99342     C
O      0.62739  0.91866  0.74532     O
H      0.63023  0.15417  0.73797     H
H      0.63207  0.51583  0.28393     H
C      0.63235  0.59821  0.41501     C
H      0.63243  0.15717  0.60587     H
C      0.63252  0.70098  0.74834     C
H      0.63347  0.54743  0.03123     H
C       0.6344  0.79206  0.73419     C
H      0.63573  0.54067  0.53017     H
C      0.64045  0.88446  0.71887     C
Zn     0.64241  0.72062  0.08479    Zn
O      0.64398  0.04835   0.0497     O
O      0.64419  0.06399  0.92755     O
O      0.64837  0.58625  0.90228     O
H      0.64887  0.47153  0.25483     H
O      0.65491  0.04421    0.218     O
Zn     0.65588  0.65607  0.26772    Zn
Zn     0.65607  0.00018  0.73228    Zn
H       0.6564   0.7995   0.6905     H
O      0.66397  0.77505  0.00536     O
O      0.66606  0.95177  0.97128     O
Zn     0.66648  0.98922  0.06562    Zn
Zn     0.66685  0.67745  0.60105    Zn
O      0.66727   0.7149  0.69539     O
O      0.66936  0.89162  0.66131     O
H      0.67693  0.86717  0.97617     H
Zn     0.67727  0.66648  0.93438    Zn
Zn     0.67745   0.0106  0.39895    Zn
O      0.67842  0.62246  0.44867     O
H      0.68447  0.19513  0.41183     H
O      0.68497  0.08041  0.76438     O
O      0.68915  0.60267  0.73911     O
O      0.68936  0.61831  0.61696     O
Zn     0.69092  0.94605  0.58188    Zn
C      0.69288  0.78221   0.9478     C
H       0.6976    0.126   0.1365     H
C      0.69893  0.87461  0.93248     C
H      0.69987  0.11923  0.63543     H
C      0.70081  0.96569  0.91833     C
H       0.7009   0.5095   0.0608     H
C      0.70098  0.06846  0.25166     C
H      0.70127  0.15083  0.38273     H
H       0.7031   0.5125   0.9287     H
O      0.70594  0.74801  0.92135     O
C      0.70837  0.60685  0.67324     C
O      0.70873  0.62739  0.25468     O
O      0.71047  0.90947  0.50413     O
O      0.71088  0.72263  0.11533     O
C      0.71369  0.83649  0.90735     C
O       0.7143  0.66606  0.02872     O
O       0.7149  0.04763  0.30461     O
O      0.71502  0.73771  0.28363     O
C      0.71526  0.19026  0.39406     C
C      0.71671  0.92398  0.89295     C
Zn     0.72062   0.0782  0.91521    Zn
O      0.72263  0.01176  0.88467     O
H       0.7236   0.8382   0.4389     H
C      0.72421  0.93467  0.44231     C
C      0.72648  0.76818  0.33991     C
O      0.72878   0.9817  0.43105     O
C      0.73062  0.85422   0.3905     C
O      0.73066  0.75314  0.40578     O
H       0.7309   0.5768   0.1602     H
H      0.73127  0.21263  0.34893     H
C      0.73169   0.1474  0.16256     C
C        0.732  0.12287  0.77564     C
H       0.7336     0.48   0.9582     H
O      0.73443  0.17248  0.51675     O
C      0.73513  0.70081  0.08167     C
C      0.73537  0.53646  0.03425     C
C      0.73542  0.51626  0.95601     C
C      0.73561  0.90629  0.37926     C
C      0.73564   0.1512  0.64263     C
C      0.73607  0.82602  0.33024     C
H       0.7372   0.5731   0.0329     H
O      0.73771  0.02269  0.71637     O
C      0.74269  0.12607  0.22628     C
Zn     0.74487  0.69092  0.41812    Zn
H      0.74567  0.58243  0.55083     H
C      0.74605   0.8469  0.84319     C
H       0.7464   0.2664   0.9582     H
O      0.74708  0.72878  0.56895     O
H        0.748   0.8744   0.1022     H
O      0.74801  0.04206  0.07865     O
C      0.74835  0.84988  0.25885     C
C       0.7489  0.93103   0.3093     C
C      0.74904  0.93498  0.82923     C
H       0.7509   0.8299   0.2175     H
H      0.75157  0.52413  0.46833     H
H       0.7527   0.9668   0.3021     H
O      0.75314  0.02248  0.59422     O
C      0.75599  0.64045  0.28113     C
H      0.75653  0.82077  0.82687     H
C      0.75662  0.59726  0.66357     C
C      0.75665  0.90333  0.24979     C
O       0.7572  0.13433  0.83746     O
O      0.75753  0.21624  0.07138     O
C      0.75975  0.20928  0.45387     C
H      0.76023  0.83077  0.69957     H
C      0.76038  0.16265  0.71259     C
H      0.76173  0.96907  0.80317     H
C      0.76276  0.89575  0.80364     C
C      0.76334  0.18665  0.58312     C
C      0.76751  0.58728  0.17652     C
C      0.76818   0.0417  0.66009     C
C       0.7682  0.58498  0.59218     C
H       0.7697   0.5432   0.9304     H
C      0.77092  0.20035  0.13697     C
O      0.77139  0.93224  0.18342     O
H      0.77257  0.24843  0.46833     H
H       0.7735   0.2303   0.9304     H
O      0.77505  0.11107  0.99464     O
O      0.77774  0.66936  0.33869     O
C      0.78084  0.26458  0.95601     C
H      0.78127  0.60973  0.77223     H
C      0.78221  0.08932   0.0522     C
C      0.78287  0.90692  0.12054     C
H       0.7829   0.9654   0.0494     H
O      0.78376  0.54129  0.07138     O
H       0.7859   0.7527   0.6979     H
H      0.78737  0.51863  0.34893     H
C      0.78946  0.61964  0.24068     C
C      0.78954  0.72421  0.55769     C
H      0.79013  0.89317  0.59707     H
C      0.79027  0.60271  0.72383     C
C      0.79072  0.55046  0.45387     C
O      0.79204  0.90914  0.73805     O
C      0.79206  0.15766  0.26581     C
H      0.79227  0.20693  0.43553     H
H      0.79267  0.76173  0.19683     H
C      0.79274  0.71671  0.10705     C
H      0.79307  0.58533  0.43553     H
C      0.79687  0.86558  0.70092     C
H       0.7995   0.1431   0.3095     H
C      0.79965  0.57057  0.13697     C
O        0.801  0.71047  0.49587     O
C      0.80109  0.26463  0.03425     C
H      0.80487  0.48933  0.41183     H
C      0.80834  0.95141  0.06073     C
H       0.8086   0.2991   0.0608     H
H       0.8092   0.8941    0.135     H
H       0.8094   0.2969   0.9287     H
C      0.80974  0.52499  0.39406     C
H      0.80977  0.67693  0.02383     H
C      0.81245  0.20973  0.72383     C
H      0.81333  0.41307  0.70847     H
C      0.81335  0.57668  0.58312     C
C      0.81407  0.74904  0.17077     C
H       0.8147   0.9354   0.0156     H
C      0.81679   0.2318  0.59218     C
C      0.81707  0.88583  0.62268     C
H       0.8175   0.7829   0.9506     H
C      0.81787   0.7489   0.6907     C
C      0.81977  0.23249  0.17652     C
H      0.82077  0.06423  0.17313     H
H      0.82083  0.85727  0.59537     H
H      0.82267  0.35113  0.25483     H
H      0.82383  0.85807  0.72747     H
C      0.82433  0.69893  0.06752     C
C      0.82602  0.08995  0.66976     C
O      0.82752  0.56194  0.51675     O
H      0.82847  0.21873  0.77223     H
C      0.82932  0.73561  0.62074     C
H       0.8299    0.079   0.7825     H
C      0.83018  0.21054  0.24068     C
H      0.83077  0.07053  0.30043     H
H       0.8359   0.2628   0.0329     H
C      0.83649  0.12279  0.09265     C
H      0.83677  0.25433  0.55083     H
C      0.83735  0.59772  0.71259     C
H       0.8382   0.1146   0.5611     H
O      0.83915  0.77139  0.81658     O
C      0.84065  0.24338  0.66357     C
C      0.84234   0.6344  0.26581     C
H      0.84283  0.47527  0.60587     H
H        0.844   0.9822   0.0785     H
H      0.84583  0.47607  0.73797     H
H       0.8459   0.2691   0.1602     H
C       0.8469  0.10084  0.15681     C
C       0.8488  0.58443  0.64263     C
H      0.84917  0.55043  0.38273     H
C      0.84959  0.44751  0.71066     C
C      0.84988  0.10153  0.74115     C
H      0.85197  0.39793  0.31773     H
C       0.8526  0.58429  0.16256     C
C      0.85332  0.75665  0.75021     C
H      0.85333  0.92027  0.62487     H
C      0.85422   0.1236   0.6095     C
H       0.8569   0.6564   0.3095     H
C      0.85693  0.80834  0.93927     C
H      0.85727  0.03643  0.40463     H
H      0.85747  0.43923  0.19833     H
H      0.85807  0.03423  0.27253     H
C      0.85833  0.38192   0.2726     C
H       0.8618    0.844   0.9215     H
C      0.86558   0.0687  0.29908     C
O      0.86567  0.62286  0.83746     O
C      0.86702  0.76276  0.19636     C
H      0.86717  0.19023  0.02383     H
C      0.86979  0.46776  0.63242     C
H       0.8736    0.748   0.8978     H
C      0.87393  0.61662  0.22628     C
H        0.874   0.5716   0.1365     H
H       0.8744   0.1264   0.8978     H
C      0.87461  0.17567  0.06752     C
O      0.87462   0.4242  0.59529     O
C      0.87595  0.78287  0.87946     C
C       0.8764  0.73062   0.6095     C
H      0.87653  0.44017  0.73627     H
C      0.87713  0.60912  0.77564     C
C      0.87721  0.71369  0.09265     C
H       0.8793   0.8147   0.9844     H
H      0.88077  0.58063  0.63543     H
O      0.88291  0.79204  0.26195     O
H      0.88377  0.36793  0.28393     H
C       0.8838  0.42641  0.21279     C
C      0.88446  0.24401  0.28113     C
H       0.8854   0.7236   0.5611     H
C      0.88583  0.06875  0.37732     C
O      0.88893  0.66397  0.99464     O
O      0.89162  0.22226  0.33869     O
H      0.89317  0.10303  0.40293     H
H       0.8941   0.0849    0.865     H
O      0.89528  0.40109  0.14991     O
C      0.89575  0.13298  0.19636     C
H      0.89697  0.79013  0.40293     H
C      0.89847  0.74835  0.74115     C
C      0.89849  0.29163  0.67324     C
C      0.89916  0.74605  0.15681     C
C      0.90333  0.14668  0.75021     C
C       0.9039  0.43759   0.5297     C
H      0.90493  0.36427  0.53017     H
C      0.90629  0.17068  0.62074     C
H      0.90643  0.50257  0.63377     H
C      0.90692  0.12405  0.87946     C
O      0.90914  0.11709  0.26195     O
O      0.90947    0.199  0.49587     O
C      0.91002     0.43  0.08354     C
C      0.91005  0.73607  0.66976     C
H      0.91013  0.51257  0.50647     H
C      0.91068  0.69288   0.0522     C
O      0.91353  0.31085  0.73911     O
H      0.91397  0.36653  0.03123     H
H       0.9151   0.8092    0.865     H
H      0.91577  0.50343  0.11583     H
C      0.91762  0.39836  0.50411     C
C      0.91777   0.4023  0.02403     C
C      0.91832  0.48345  0.07448     C
O      0.91866  0.29127  0.25468     O
H      0.91867  0.45893  0.23113     H
O      0.91959  0.60455  0.76438     O
H      0.92027  0.06693  0.37513     H
C      0.92061  0.48644  0.49015     C
H        0.921   0.7509   0.7825     H
Zn      0.9218  0.64241  0.91521    Zn
C      0.92398  0.20726  0.10705     C
O      0.92896  0.31064  0.61696     O
H      0.92947  0.76023  0.30043     H
C       0.9306  0.50731  0.00309     C
C      0.93103  0.18213   0.6907     C
C      0.93106  0.42704  0.95407     C
C      0.93125  0.81707  0.37732     C
C       0.9313  0.79687  0.29908     C
C      0.93154  0.63252  0.25166     C
O      0.93224  0.16085  0.81658     O
H      0.93307  0.85333  0.37513     H
C      0.93467  0.21046  0.55769     C
C      0.93498  0.18593  0.17077     C
H       0.9354   0.1207   0.9844     H
H      0.93577  0.75653  0.17313     H
O      0.93601  0.58019  0.92755     O
C      0.93605  0.47911  0.94283     C
O      0.93789  0.35163  0.90228     O
C      0.94019  0.56515  0.99342     C
C      0.94246  0.39866  0.89102     C
H      0.94307  0.49513  0.89443     H
O      0.94403  0.32158  0.44867     O
Zn     0.94605  0.25513  0.41812    Zn
C      0.94995  0.40936  0.44039     C
C      0.95141  0.14307  0.93927     C
O      0.95165  0.59562   0.0497     O
O      0.95177   0.2857  0.02872     O
O      0.95237  0.66727  0.30461     O
C      0.95297  0.49685  0.42599     C
O      0.95579   0.6107    0.218     O
O       0.9562  0.42386   0.8292     O
O      0.95794  0.70594  0.07865     O
C       0.9583  0.72648  0.66009     C
O      0.96072  0.58533  0.41199     O
H      0.96357  0.82083  0.40463     H
H       0.9654   0.1825   0.9506     H
C      0.96569  0.26487  0.08167     C
H      0.96577  0.82383  0.27253     H
C      0.96585  0.36765  0.41501     C
H       0.9668   0.2141   0.6979     H
C      0.96773  0.45873  0.40086     C
H      0.96907  0.20733  0.19683     H
C      0.97378  0.55113  0.38554     C
Zn     0.97575  0.38728  0.75145    Zn
O      0.97731  0.71502  0.71637     O
O      0.97752  0.73066  0.59422     O
O       0.9817  0.25292  0.56895     O
H       0.9822   0.1382   0.9215     H
O      0.98824  0.71088  0.88467     O
Zn     0.98922  0.32273  0.93438    Zn
Zn      0.9894  0.66685  0.39895    Zn
H      0.98973  0.46617  0.35717     H
O      0.99731  0.44171  0.67202     O
O       0.9994  0.61843  0.63794     O
Zn     0.99982  0.65588  0.73228    Zn
