data_I
_chemical_name_common  '/home/zhangsd/repos/MofS-CGCNN/ML/data/TSD/clean_cifs/UVUGAV_clean'
_cell_length_a 27.63800
_cell_length_b 27.63800
_cell_length_c 17.94900
_cell_angle_alpha 90.00000
_cell_angle_beta  90.00000
_cell_angle_gamma 120.00000
_space_group_name_H-M_alt      'P 1'


loop_
_space_group_symop_operation_xyz
  'x, y, z' 

loop_
_atom_site_label
_atom_site_fract_x
_atom_site_fract_y
_atom_site_fract_z
_atom_site_type_symbol
Zn     0.00025  0.34437  0.76962    Zn
O      0.00167  0.38146  0.86456     O
O      0.00515   0.5594  0.82705     O
H       0.0059   0.5323   0.1399     H
Zn     0.01079  0.33308  0.10295    Zn
Zn     0.01104  0.67745  0.56371    Zn
O       0.0119  0.28803  0.61573     O
C        0.014   0.8851   0.5792     C
O      0.01763  0.74688  0.92901     O
O      0.02224  0.28481  0.78434     O
O      0.02266  0.26906  0.90633     O
Zn     0.02412  0.61318  0.74685    Zn
C      0.02488  0.44823   0.1164     C
H      0.02997  0.79573  0.30673     H
C      0.03021  0.54036   0.0985     C
H       0.0329   0.7868   0.7996     H
C      0.03425  0.63216    0.084     C
C      0.03451  0.73542  0.41733     C
O      0.03921  0.41446   0.0918     O
C      0.04163  0.27318   0.8405     C
O      0.04192  0.29412  0.42513     O
O      0.04393  0.57674  0.66844     O
O      0.04531  0.39054  0.28239     O
C      0.04614  0.50234   0.0756     C
O      0.04646  0.33166  0.19789     O
C       0.0481   0.8604   0.5603     C
O      0.04813  0.71312  0.46877     O
O      0.04852   0.4041  0.45101     O
C      0.05029  0.59034     0.06     C
C      0.05187  0.86953  0.20263     C
C      0.05247  0.15603  0.14123     C
Zn     0.05349  0.74428  0.08018    Zn
O      0.05721  0.67857  0.05094     O
H      0.05733  0.50567  0.60507     H
C      0.05794  0.60203  0.60737     C
C      0.06015  0.43512  0.50717     C
C       0.0605   0.8995   0.5026     C
C      0.06067  0.91083  0.13263     C
C      0.06217  0.19203  0.21083     C
O      0.06258  0.64904  0.59568     O
H      0.06267  0.24183  0.33213     H
O      0.06427  0.42027    0.573     O
C      0.06427  0.81653  0.33273     C
C      0.06459  0.52143  0.55647     C
C      0.06464  0.78925   0.9407     C
C      0.06868  0.81855   0.8074     C
C      0.06876  0.36758  0.24933     C
O      0.06878  0.84031  0.68189     O
C      0.06988   0.5738  0.54437     C
C      0.07002  0.49273  0.49677     C
O      0.07076  0.68891  0.88233     O
C      0.07633  0.79328  0.39333     C
Zn     0.07761  0.35746  0.58649    Zn
H       0.0786   0.2497   0.7176     H
O      0.08021  0.39592  0.73766     O
O      0.08113  0.70858  0.24153     O
C       0.0812   0.5139   0.0146     C
C      0.08127  0.19063  0.09513     C
C      0.08175  0.51615  0.42547     C
H      0.08203  0.54137  0.26597     H
C       0.0832  0.59799  0.47407     C
H       0.0834   0.1915    0.635     H
H      0.08363  0.49557  0.38427     H
C       0.0856   0.6024   0.9994     C
O      0.08693  0.68933  0.76034     O
H      0.08723  0.63377  0.46627     H
C      0.08917  0.14983  0.13263     C
C      0.08937  0.26331   0.8301     C
O      0.08993  0.80053  0.00177     O
C      0.09002  0.30845  0.44973     C
C      0.09065  0.56976  0.41527     C
O      0.09147  0.89363  0.25063     O
H       0.0915   0.4875   0.9988     H
C      0.09287  0.82942   0.8777     C
C       0.0938   0.8774   0.6195     C
C      0.09691  0.85423   0.7486     C
H       0.0991   0.6367   0.9734     H
C      0.09937  0.25213  0.34793     C
C       0.1005    0.161   0.5026     C
C      0.10106  0.25158   0.7588     C
C       0.1012    0.564   0.9769     C
C      0.10178   0.7083  0.82617     C
C      0.10267  0.87053  0.31023     C
C      0.10357  0.94753  0.14123     C
O      0.10486  0.59789  0.34856     O
O      0.10637  0.19783  0.25063     O
O      0.10727  0.77908  0.16038     O
H       0.1081   0.9166    0.635     H
C      0.10937  0.91873  0.09513     C
O      0.11242  0.33848  0.50628     O
C       0.1149   0.1289   0.5792     C
C       0.1149  0.75668  0.21693     C
H        0.115    0.276   0.9384     H
C      0.11693  0.57287  0.28617     C
H      0.12013  0.42057  0.86707     H
C      0.12258  0.39128  0.72597     C
C       0.1226   0.2164   0.6195     C
C      0.12287  0.28719  0.40893     C
C       0.1235  0.26874   0.8898     C
H       0.1253    0.874   0.5993     H
H        0.126   0.2513   0.5993     H
C      0.12631  0.82318  0.43183     C
C      0.12662  0.38362  0.27333     C
C       0.1289    0.014   0.4208     C
H      0.12907  0.43243  0.35993     H
C      0.12947  0.23213  0.31023     C
C      0.12987  0.93783  0.21083     C
C      0.13047  0.18233  0.20263     C
O      0.13386  0.37727   0.6649     O
H      0.13437  0.80693  0.47323     H
O       0.1355   0.5752   0.9173     O
C       0.1396   0.1877   0.5603     C
H      0.14027  0.33923  0.19343     H
C       0.1413   0.5368   0.8775     C
H      0.14183  0.55857  0.30167     H
C       0.1427   0.5573   0.7618     C
C      0.14524   0.8765   0.8898     C
C      0.14563  0.61857  0.22697     C
C      0.14577  0.24268   0.7486     C
C      0.14983  0.06067  0.86737     C
C      0.14987  0.41893  0.33393     C
C      0.15052  0.89894   0.7588     C
C        0.151   0.6148   0.8693     C
C      0.15188  0.41654  0.85927     C
C      0.15277  0.90063  0.34793     C
H      0.15417  0.72933  0.33453     H
C      0.15603  0.10357  0.85877     C
C      0.15652  0.36354  0.23483     C
C      0.15939  0.75604  0.83657     C
O      0.15969  0.22847  0.68189     O
C        0.161   0.0605   0.4974     C
H        0.161    0.885   0.9384     H
H      0.16223  0.74527  0.94907     H
C      0.16275  0.40322  0.78897     C
C      0.16433  0.87713  0.40893     C
C      0.16901  0.78953  0.25773     C
C      0.17058  0.26345   0.8777     C
H       0.1711   0.9214   0.7176     H
C      0.17233  0.60617  0.16927     C
H      0.17233  0.78167  0.72827     H
O      0.17364   0.4382  0.98478     O
C      0.17394  0.91063   0.8301     C
C      0.17682  0.30312  0.43183     C
C       0.1773   0.5631   0.8079     C
H      0.17917  0.93733  0.33213     H
C      0.18057  0.76603  0.31873     C
C      0.18145  0.25013   0.8074     C
C      0.18233  0.05187  0.79737     C
C      0.18281  0.76773  0.90787     C
C      0.18347  0.24773  0.33273     C
C       0.1835    0.606   0.7993     C
C      0.18756  0.42399  0.91807     C
C       0.1877   0.0481   0.4397     C
C      0.18809  0.79017  0.77687     C
C      0.19063  0.10937  0.90487     C
H       0.1915   0.1081    0.365     H
C      0.19203  0.12987  0.78917     C
H      0.19307  0.32743  0.47323     H
C      0.19373  0.47897  0.10637     C
O      0.19783  0.09147  0.74937     O
H      0.19897  0.85973  0.19343     H
O      0.19947   0.2894  0.00177     O
C      0.20287  0.48433  0.46403     C
C      0.20347  0.72883  0.45583     C
C      0.20387  0.43453  0.35643     C
H      0.20427  0.23423  0.30673     H
C      0.20443  0.65267  0.24587     C
C      0.20672  0.28304  0.39333     C
C      0.20703  0.84348  0.23483     C
H      0.20733  0.41537  0.06737     H
H      0.20803  0.79267  0.06737     H
C      0.20983  0.39793  0.77687     C
C      0.21047  0.37947  0.25773     C
C      0.21073  0.45027  0.04717     C
C      0.21075  0.27539   0.9407     C
H       0.2132   0.2461   0.7996     H
C       0.2164   0.0938   0.3805     C
H      0.21833  0.39067  0.72827     H
C      0.21843  0.53777  0.08747     C
C      0.21844  0.90998  0.44973     C
O      0.22092  0.32818  0.16038     O
C      0.22397  0.74793  0.57153     C
H      0.22523  0.75007  0.03167     H
O      0.22607  0.88758  0.50628     O
O      0.22697  0.46883  0.41603     O
O      0.22847  0.06878  0.31811     O
C      0.22977  0.71913  0.52543     C
C      0.23067  0.79613  0.35643     C
C      0.23155  0.95837   0.8405     C
C      0.23213  0.10267  0.68977     C
C      0.23227  0.41509  0.90787     C
C      0.23283  0.50567  0.16407     C
C      0.23397  0.41453  0.31873     C
H      0.23423  0.02997  0.69327     H
C      0.23642  0.81244  0.91807     C
C      0.23953  0.78927  0.04717     C
C      0.24046  0.83725  0.78897     C
H      0.24183  0.17917  0.66787     H
O      0.24187  0.77303  0.41603     O
C      0.24268  0.09691   0.2514     C
C      0.24332  0.35821  0.21693     C
O       0.2434  0.86614   0.6649     O
C      0.24396  0.40336  0.83657     C
C      0.24417  0.51683  0.53403     C
H       0.2461   0.0329   0.2004     H
O       0.2464  0.97734  0.90633     O
C      0.24773  0.06427  0.66727     C
H       0.2497   0.1711   0.2824     H
H      0.24993  0.47517  0.03167     H
C      0.25013  0.06868   0.1926     C
H       0.2513   0.1253   0.4007     H
C      0.25158  0.15052   0.2412     C
C      0.25207  0.47603  0.57153     C
C      0.25213  0.15277  0.65207     C
O      0.25221  0.95808  0.42513     O
O      0.25312  0.27075  0.92901     O
H      0.25473  0.41697  0.94907     H
Zn     0.25572  0.30921  0.08018    Zn
C      0.25701  0.87338  0.27333     C
O      0.26257  0.97776  0.78434     O
C      0.26331  0.17394   0.1699     C
C      0.26345  0.09287   0.1223     C
O      0.26455  0.82636  0.98478     O
C      0.26458  0.29908  0.41733     C
C      0.26465  0.84812  0.85927     C
C      0.26869  0.87742  0.72597     C
C      0.26874  0.14524   0.1102     C
O      0.26906   0.2464  0.09367     O
C      0.26907  0.85013  0.33393     C
H      0.27067  0.42483  0.33453     H
O      0.27075  0.01763  0.07099     O
C      0.27117  0.47463  0.45583     C
C      0.27267  0.75583  0.53403     C
C      0.27283  0.76717  0.16407     C
C      0.27318  0.23155   0.1595     C
C      0.27539  0.06464   0.0593     C
H        0.276    0.161   0.0616     H
O      0.27612   0.9881  0.61573     O
Zn     0.27984  0.92239  0.58649    Zn
C      0.28087  0.51063  0.52543     C
C      0.28147  0.79713  0.46403     C
C      0.28304  0.07633  0.60667     C
O      0.28481  0.26257  0.21566     O
O      0.28521  0.95354  0.19789     O
C      0.28523  0.80627  0.10637     C
O      0.28688    0.335  0.46877     O
C      0.28719  0.16433  0.59107     C
O      0.28803  0.27612  0.38427     O
O       0.2894  0.08993  0.99823     O
O      0.29142  0.37254  0.24153     O
C       0.2917  0.39349  0.82617     C
O      0.29412  0.25221  0.57487     O
C      0.29883  0.93124  0.24933     C
C      0.29908  0.03451  0.58267     C
H      0.30043  0.87987  0.86707     H
C      0.30312  0.12631  0.56817     C
H      0.30337  0.87093  0.35993     H
C      0.30845  0.21844  0.55027     C
Zn     0.30921  0.05349  0.91982    Zn
O      0.31067  0.39761  0.76034     O
O      0.31109  0.38186  0.88233     O
O       0.3157  0.91979  0.73766     O
C      0.31933  0.78157  0.08747     C
O      0.32143  0.37864  0.05094     O
Zn      0.3223  0.98921  0.10295    Zn
Zn     0.32255  0.33358  0.56371    Zn
H      0.32743  0.13437  0.52677     H
O      0.32818  0.10727  0.83962     O
O      0.33166  0.28521  0.80211     O
Zn     0.33308   0.3223  0.89705    Zn
Zn     0.33358  0.01104  0.43629    Zn
O        0.335  0.04813  0.53123     O
O      0.33848  0.22607  0.49372     O
H      0.33923  0.19897  0.80657     H
Zn     0.34412  0.99975  0.76962    Zn
Zn     0.34437  0.34412  0.23038    Zn
O      0.34524  0.95469  0.28239     O
C      0.34733  0.55177  0.24587     C
O      0.35096  0.41355  0.59568     O
O      0.35557  0.95148  0.45101     O
O      0.35599  0.93573    0.573     O
Zn     0.35746  0.27984  0.41351    Zn
C      0.35821   0.1149  0.78307     C
H       0.3633   0.4624   0.9734     H
C      0.36354  0.20703  0.76517     C
H      0.36623  0.45347  0.46627     H
C      0.36758  0.29883  0.75067     C
C      0.36784  0.40209    0.084     C
O      0.37254  0.08113  0.75847     O
C      0.37496  0.93985  0.50717     C
O      0.37525  0.96079   0.0918     O
O      0.37727   0.2434   0.3351     O
O      0.37864  0.05721  0.94906     O
C      0.37947  0.16901  0.74227     C
O      0.37979  0.99833  0.86456     O
C      0.38143  0.52707  0.22697     C
O      0.38146  0.37979  0.13544     O
O      0.38186  0.07076  0.11767     O
C      0.38362  0.25701  0.72667     C
C       0.3852   0.5362   0.8693     C
C       0.3858   0.8227   0.8079     C
Zn     0.38682  0.41095  0.74685    Zn
O      0.39054  0.34524  0.71761     O
H      0.39067  0.17233  0.27173     H
C      0.39128  0.26869  0.27403     C
C      0.39349  0.10178  0.17383     C
C      0.39383  0.56617  0.16927     C
C        0.394   0.5775   0.7993     C
C       0.3955   0.8587   0.8775     C
O      0.39592   0.3157  0.26234     O
H        0.396   0.9085   0.9988     H
C       0.3976   0.4832   0.9994     C
O      0.39761  0.08693  0.23966     O
C      0.39793  0.18809  0.22313     C
C      0.39797  0.45592  0.60737     C
C      0.40201  0.48522  0.47407     C
C      0.40209  0.03425    0.916     C
O      0.40211  0.50698  0.34856     O
C      0.40322  0.24046  0.21103     C
C      0.40336  0.15939  0.16343     C
O       0.4041  0.35557  0.54899     O
C      0.40966  0.45995     0.06     C
Zn     0.41095  0.02412  0.25315    Zn
H      0.41193  0.91637  0.38427     H
O      0.41355  0.06258  0.40432     O
O      0.41446  0.37525   0.9082     O
C      0.41453  0.18057  0.68127     C
C       0.4146   0.8573   0.7618     C
C      0.41509  0.18281  0.09213     C
H      0.41537  0.20803  0.93263     H
C      0.41654  0.26465  0.14073     C
H      0.41673  0.85817  0.30167     H
H      0.41697  0.16223  0.05093     H
C      0.41893  0.26907  0.66607     C
O      0.42027  0.35599    0.427     O
H      0.42057  0.30043  0.13293     H
C       0.4225   0.8165   0.7993     C
C       0.4227  0.92998  0.49677     C
O      0.42326   0.4672  0.66844     O
C      0.42335  0.97512   0.1164     C
C      0.42399  0.23642  0.08193     C
O       0.4248   0.5603   0.9173     O
H      0.42483  0.15417  0.66547     H
C       0.4262  0.49609  0.54437     C
C      0.42713  0.54407  0.28617     C
C      0.43024   0.5209  0.41527     C
H      0.43243  0.30337  0.64007     H
C       0.4327   0.9188   0.0146     C
C      0.43383  0.82767  0.16927     C
C      0.43439  0.91825  0.42547     C
C      0.43453  0.23067  0.64357     C
C      0.43512  0.37496  0.49283     C
C        0.436   0.5372   0.9769     C
C       0.4369   0.6142   0.8079     C
O       0.4382  0.26455  0.01522     O
O       0.4397   0.8645   0.9173     O
O       0.4406  0.44575  0.82705     O
H      0.44143  0.58327  0.30167     H
C       0.4427   0.5854   0.7618     C
O      0.44575  0.00515  0.17295     O
C      0.44823  0.42335   0.8836     C
C      0.44823  0.79557  0.24587     C
H      0.44833  0.94267  0.60507     H
C      0.45027  0.23953  0.95283     C
H      0.45347  0.08723  0.53373     H
C      0.45592  0.05794  0.39263     C
C      0.45593  0.88307  0.28617     C
C       0.4562  0.95386   0.0756     C
C      0.45683  0.93541  0.55647     C
H      0.45863  0.54067  0.26597     H
H      0.45933  0.91797  0.26597     H
C      0.45964  0.48985   0.0985     C
C      0.45995  0.05029     0.94     C
C      0.46223  0.68067  0.08747     C
H       0.4624   0.0991   0.0266     H
C       0.4628   0.8988   0.9769     C
C       0.4632   0.6045   0.8775     C
C       0.4638    0.849   0.8693     C
O       0.4672  0.04393  0.33156     O
H       0.4677   0.4736   0.1399     H
O      0.46883  0.24187  0.58397     O
C      0.47293  0.85437  0.22697     C
H       0.4736   0.0059   0.8601     H
C      0.47463  0.20347  0.54417     C
H      0.47517  0.22523  0.96833     H
C      0.47603  0.22397  0.42847     C
C      0.47857  0.54317  0.55647     C
C      0.47897  0.28523  0.89363     C
C       0.4791  0.90935  0.41527     C
C      0.48317  0.72733  0.53403     C
C       0.4832   0.0856   0.0006     C
C      0.48385  0.56561  0.42547     C
C      0.48433  0.28147  0.53597     C
C      0.48522   0.0832  0.52593     C
C       0.4861   0.5673   0.0146     C
H       0.4875    0.396   0.0012     H
C      0.48937  0.77023  0.52543     C
C      0.48985  0.03021   0.9015     C
C      0.49273   0.4227  0.50323     C
O      0.49302  0.89514  0.34856     O
H      0.49433  0.55167  0.60507     H
C      0.49433  0.72717  0.16407     C
H      0.49557  0.41193  0.61573     H
C      0.49609  0.06988  0.45563     C
C      0.49766   0.5438   0.0756     C
C      0.50234   0.4562   0.9244     C
C      0.50391  0.93012  0.54437     C
H      0.50443  0.58807  0.38427     H
C      0.50567  0.27283  0.83593     C
H      0.50567  0.44833  0.39493     H
O      0.50698  0.10486  0.65144     O
C      0.50727   0.5773  0.49677     C
C      0.51015  0.96979   0.0985     C
C      0.51063  0.22977  0.47457     C
H       0.5125    0.604   0.9988     H
C       0.5139   0.4327   0.9854     C
C      0.51478   0.9168  0.47407     C
C      0.51567  0.71853  0.46403     C
C      0.51615  0.43439  0.57453     C
C       0.5168   0.9144   0.9994     C
C      0.51683  0.27267  0.46597     C
C       0.5209  0.09065  0.58473     C
C      0.52103  0.71477  0.10637     C
C      0.52143  0.45683  0.44353     C
C      0.52397  0.77603  0.57153     C
H      0.52483  0.77477  0.03167     H
C      0.52537  0.79653  0.45583     C
H       0.5264   0.9941   0.1399     H
C      0.52707  0.14563  0.77303     C
O      0.53117  0.75813  0.41603     O
H       0.5323   0.5264   0.8601     H
O       0.5328  0.95607  0.66844     O
C       0.5362    0.151   0.1307     C
C       0.5368   0.3955   0.1225     C
C       0.5372   0.1012   0.0231     C
H       0.5376   0.9009   0.9734     H
C      0.53777  0.31933  0.91253     C
C      0.54005  0.94971     0.06     C
C      0.54036  0.51015   0.9015     C
H      0.54067  0.08203  0.73403     H
H      0.54137  0.45933  0.73403     H
C      0.54317  0.06459  0.44353     C
C       0.5438  0.04614   0.9244     C
C      0.54407  0.11693  0.71383     C
C      0.54408  0.94206  0.60737     C
H      0.54653  0.91277  0.46627     H
C      0.54973  0.76047  0.04717     C
H      0.55167  0.05733  0.39493     H
C      0.55177  0.20443  0.75413     C
C      0.55177  0.57665   0.1164     C
O      0.55425  0.99485  0.82705     O
C       0.5573   0.4146   0.2382     C
H      0.55857  0.41673  0.69833     H
O       0.5594  0.55425  0.17295     O
O       0.5603   0.1355   0.0827     O
O       0.5618  0.73545  0.98478     O
C       0.5631   0.3858   0.1921     C
C        0.564   0.4628   0.0231     C
C      0.56488  0.62504  0.50717     C
C      0.56547  0.76933  0.35643     C
C      0.56561  0.08175  0.57453     C
C      0.56617  0.17233  0.83073     C
C       0.5673   0.0812   0.9854     C
H      0.56757  0.69663  0.35993     H
C      0.56976   0.4791  0.58473     C
C      0.57287  0.45593  0.71383     C
C       0.5738  0.50391  0.45563     C
H      0.57517  0.84583  0.33453     H
O       0.5752   0.4397   0.0827     O
C      0.57601  0.76358  0.91807     C
C      0.57665  0.02488   0.8836     C
O      0.57674   0.5328  0.33156     O
C       0.5773  0.07002  0.50323     C
C       0.5775   0.1835   0.2007     C
H      0.57943  0.69957  0.86707     H
O      0.57973  0.64401    0.573     O
C      0.58107  0.73093  0.33393     C
H      0.58303  0.83777  0.94907     H
H      0.58327  0.14183  0.69833     H
C      0.58346  0.73535  0.85927     C
H      0.58463  0.79197  0.06737     H
C      0.58491  0.81719  0.90787     C
C       0.5854   0.1427   0.2382     C
C      0.58547  0.81943  0.31873     C
O      0.58554  0.62475   0.0918     O
O      0.58645  0.93742  0.59568     O
H      0.58807  0.08363  0.61573     H
Zn     0.58905  0.97588  0.74685    Zn
C      0.59034  0.54005     0.94     C
O       0.5959  0.64443  0.45101     O
C      0.59664  0.84061  0.83657     C
C      0.59678  0.75954  0.78897     C
O      0.59789  0.49302  0.65144     O
C      0.59791  0.96575    0.084     C
C      0.59799  0.51478  0.52593     C
C      0.60203  0.54408  0.39263     C
C      0.60207  0.81191  0.77687     C
O      0.60239  0.91307  0.76034     O
C       0.6024   0.5168   0.0006     C
H        0.604   0.0915   0.0012     H
O      0.60408   0.6843  0.73766     O
C       0.6045   0.1413   0.1225     C
C        0.606   0.4225   0.2007     C
C      0.60617  0.43383  0.83073     C
C      0.60651  0.89822  0.82617     C
C      0.60872  0.73131  0.72597     C
H      0.60933  0.82767  0.72827     H
O      0.60946  0.65476  0.28239     O
Zn     0.61318  0.58905  0.25315    Zn
C       0.6142   0.1773   0.1921     C
C       0.6148   0.4638   0.1307     C
C      0.61638  0.74299  0.27333     C
O      0.61814  0.92924  0.88233     O
O      0.61854  0.62021  0.86456     O
C      0.61857  0.47293  0.77303     C
O      0.62021  0.00167  0.13544     O
C      0.62053  0.83099  0.25773     C
O      0.62136  0.94279  0.05094     O
O      0.62273   0.7566   0.6649     O
O      0.62475  0.03921   0.9082     O
C      0.62504  0.06015  0.49283     C
O      0.62746  0.91887  0.24153     O
C      0.63216  0.59791    0.916     C
C      0.63242  0.70117  0.24933     C
H      0.63377  0.54653  0.53373     H
C      0.63646  0.79297  0.23483     C
H       0.6367   0.5376   0.0266     H
C      0.64179   0.8851  0.21693     C
Zn     0.64254  0.72016  0.58649    Zn
O      0.64401  0.06427    0.427     O
O      0.64443  0.04852  0.54899     O
O      0.64904  0.58645  0.40432     O
C      0.65267  0.44823  0.75413     C
O      0.65476  0.04531  0.71761     O
Zn     0.65563  0.65588  0.76962    Zn
Zn     0.65588  0.00025  0.23038    Zn
H      0.66077  0.80103  0.19343     H
O      0.66152  0.77393  0.50628     O
O        0.665  0.95187  0.46877     O
Zn     0.66642  0.98896  0.56371    Zn
Zn     0.66692   0.6777  0.10295    Zn
O      0.66834  0.71479  0.19789     O
O      0.67182  0.89273  0.16038     O
H      0.67257  0.86563  0.47323     H
Zn     0.67745  0.66642  0.43629    Zn
Zn      0.6777  0.01079  0.89705    Zn
O      0.67857  0.62136  0.94906     O
C      0.68067  0.21843  0.91253     C
O       0.6843  0.08021  0.26234     O
O      0.68891  0.61814  0.11767     O
O      0.68933  0.60239  0.23966     O
Zn     0.69079  0.94651  0.08018    Zn
C      0.69155  0.78156  0.44973     C
H      0.69663  0.12907  0.64007     H
C      0.69688  0.87369  0.43183     C
H      0.69957  0.12013  0.13293     H
C      0.70092  0.96549  0.41733     C
C      0.70117  0.06876  0.75067     C
O      0.70588  0.74779  0.42513     O
C       0.7083  0.60651  0.17383     C
O      0.70858  0.62746  0.75847     O
O       0.7106  0.91007  0.00177     O
O      0.71197  0.72388  0.61573     O
C      0.71281  0.83567  0.40893     C
O      0.71312    0.665  0.53123     O
C      0.71477  0.19373  0.89363     C
O      0.71479  0.04646  0.80211     O
O      0.71519  0.73743  0.78434     O
C      0.71696  0.92367  0.39333     C
C      0.71853  0.20287  0.53597     C
C      0.71913  0.48937  0.47457     C
Zn     0.72016  0.07761  0.41351    Zn
O      0.72388   0.0119  0.38427     O
H        0.724    0.839   0.9384     H
C      0.72461  0.93536   0.9407     C
C      0.72682  0.76845   0.8405     C
C      0.72717  0.23283  0.83593     C
C      0.72733  0.24417  0.46597     C
C      0.72883  0.52537  0.54417     C
O      0.72925  0.98237  0.92901     O
H      0.72933  0.57517  0.66547     H
C      0.73093  0.14987  0.66607     C
O      0.73094   0.7536  0.90633     O
C      0.73126  0.85476   0.8898     C
C      0.73131  0.12258  0.27403     C
C      0.73535  0.15188  0.14073     C
C      0.73542  0.70092  0.58267     C
O      0.73545  0.17364  0.01522     O
C      0.73655  0.90713   0.8777     C
C      0.73669  0.82606   0.8301     C
O      0.73743  0.02224  0.21566     O
C      0.74299  0.12662  0.72667     C
Zn     0.74428  0.69079  0.91982    Zn
H      0.74527  0.58303  0.05093     H
O      0.74688  0.72925  0.07099     O
O      0.74779  0.04192  0.57487     O
C      0.74787  0.84723  0.34793     C
C      0.74793  0.52397  0.42847     C
C      0.74842  0.84948   0.7588     C
H       0.7487   0.8747   0.5993     H
C      0.74987  0.93132   0.8074     C
H      0.75007  0.52483  0.96833     H
H       0.7503   0.8289   0.7176     H
C      0.75227  0.93573  0.33273     C
O       0.7536  0.02266  0.09367     O
H       0.7539   0.9671   0.7996     H
C      0.75583  0.48317  0.46597     C
C      0.75604  0.59664  0.16343     C
O       0.7566  0.13386   0.3351     O
C      0.75668  0.64179  0.78307     C
C      0.75732  0.90309   0.7486     C
O      0.75813  0.22697  0.58397     O
H      0.75817  0.82083  0.33213     H
C      0.75954  0.16275  0.21103     C
C      0.76047  0.21073  0.95283     C
C      0.76358  0.18756  0.08193     C
H      0.76577  0.97003  0.30673     H
C      0.76603  0.58547  0.68127     C
C      0.76717  0.49433  0.83593     C
C      0.76773  0.58491  0.09213     C
C      0.76787  0.89733  0.31023     C
C      0.76845  0.04163   0.1595     C
C      0.76933  0.20387  0.64357     C
C      0.77023  0.28087  0.47457     C
O      0.77153  0.93122  0.68189     O
O      0.77303  0.53117  0.58397     O
O      0.77393  0.11242  0.49372     O
H      0.77477  0.24993  0.96833     H
C      0.77603  0.25207  0.42847     C
O      0.77908  0.67182  0.83962     O
C      0.78156  0.09002  0.55027     C
C      0.78157  0.46223  0.91253     C
H      0.78167  0.60933  0.27173     H
C       0.7836   0.9062   0.6195     C
H       0.7868   0.7539   0.2004     H
C      0.78925  0.72461   0.0593     C
C      0.78927  0.54973  0.95283     C
C      0.78953  0.62053  0.74227     C
C      0.79017  0.60207  0.22313     C
H      0.79197  0.20733  0.93263     H
H      0.79267  0.58463  0.93263     H
C      0.79297  0.15652  0.76517     C
C      0.79328  0.71696  0.60667     C
C      0.79557  0.34733  0.75413     C
H      0.79573  0.76577  0.69327     H
C      0.79613  0.56547  0.64357     C
C      0.79653  0.27117  0.54417     C
C      0.79713  0.51567  0.53597     C
O      0.80053   0.7106  0.99823     O
H      0.80103  0.14027  0.80657     H
O      0.80217  0.90853  0.25063     O
C      0.80627  0.52103  0.89363     C
H      0.80693  0.67257  0.52677     H
C      0.80797  0.87013  0.21083     C
H       0.8085   0.8919    0.635     H
C      0.80937  0.89063  0.09513     C
C      0.81191  0.20983  0.22313     C
C       0.8123   0.9519   0.5603     C
C      0.81244  0.57601  0.08193     C
C       0.8165    0.394   0.2007     C
C      0.81653  0.75227  0.66727     C
C      0.81719  0.23227  0.09213     C
C      0.81767  0.94813  0.20263     C
C      0.81855  0.74987   0.1926     C
C      0.81943  0.23397  0.68127     C
H      0.82083  0.06267  0.66787     H
C       0.8227   0.4369   0.1921     C
C      0.82318  0.69688  0.56817     C
C      0.82606  0.08937   0.1699     C
O      0.82636   0.5618  0.01522     O
H      0.82767  0.21833  0.27173     H
C      0.82767  0.39383  0.83073     C
H       0.8289   0.0786   0.2824     H
C      0.82942  0.73655   0.1223     C
C      0.83099  0.21047  0.74227     C
C      0.83567  0.12287  0.59107     C
C      0.83725  0.59678  0.21103     C
H      0.83777  0.25473  0.05093     H
H        0.839    0.115   0.0616     H
C        0.839   0.9395   0.5026     C
O      0.84031  0.77153  0.31811     O
C      0.84061  0.24396  0.16343     C
C      0.84348  0.63646  0.76517     C
C      0.84397  0.89643  0.14123     C
H      0.84583  0.27067  0.66547     H
C      0.84723  0.09937  0.65207     C
C      0.84812  0.58346  0.14073     C
C        0.849   0.3852   0.1307     C
C      0.84948  0.10106   0.2412     C
C      0.85013  0.58107  0.66607     C
C      0.85017  0.93933  0.13263     C
C      0.85423  0.75732   0.2514     C
C      0.85437  0.38143  0.77303     C
C      0.85476   0.1235   0.1102     C
C       0.8573   0.4427   0.2382     C
H      0.85817  0.44143  0.69833     H
C       0.8587   0.4632   0.1225     C
H      0.85973  0.66077  0.80657     H
C       0.8604   0.8123   0.4397     C
O       0.8645   0.4248   0.0827     O
H      0.86563  0.19307  0.52677     H
O      0.86614  0.62273   0.3351     O
C      0.86953  0.81767  0.79737     C
C      0.87013  0.06217  0.78917     C
C      0.87053  0.76787  0.68977     C
H      0.87093  0.56757  0.64007     H
C       0.8711    0.986   0.5792     C
C      0.87338  0.61638  0.72667     C
C      0.87369  0.17682  0.56817     C
H        0.874   0.7487   0.4007     H
H       0.8747    0.126   0.4007     H
C       0.8765  0.73126   0.1102     C
C      0.87713  0.71281  0.59107     C
C       0.8774   0.7836   0.3805     C
C      0.87742  0.60872  0.27403     C
H      0.87987  0.57943  0.13293     H
C      0.88307  0.42713  0.71383     C
H        0.885    0.724   0.0616     H
C       0.8851  0.24332  0.78307     C
C       0.8851   0.8711   0.4208     C
O      0.88758  0.66152  0.49372     O
C      0.89063  0.08127  0.90487     C
H       0.8919   0.0834    0.365     H
O      0.89273  0.22092  0.83962     O
O      0.89363  0.80217  0.74937     O
O      0.89514  0.40211  0.65144     O
C      0.89643  0.05247  0.85877     C
C      0.89733  0.12947  0.68977     C
C      0.89822   0.2917  0.17383     C
C       0.8988    0.436   0.0231     C
C      0.89894  0.74842   0.2412     C
C       0.8995    0.839   0.4974     C
C      0.90063  0.74787  0.65207     C
H       0.9009   0.3633   0.0266     H
C      0.90309  0.14577   0.2514     C
C       0.9062   0.1226   0.3805     C
C      0.90713  0.17058   0.1223     C
H       0.9085   0.5125   0.0012     H
O      0.90853  0.10637  0.74937     O
C      0.90935  0.43024  0.58473     C
C      0.90998  0.69155  0.55027     C
O      0.91007  0.19947  0.99823     O
C      0.91063  0.73669   0.1699     C
C      0.91083  0.85017  0.86737     C
H      0.91277  0.36623  0.53373     H
O      0.91307  0.31067  0.23966     O
C       0.9144   0.3976   0.0006     C
H      0.91637  0.50443  0.61573     H
H       0.9166   0.8085    0.365     H
C       0.9168  0.40201  0.52593     C
H      0.91797  0.45863  0.73403     H
C      0.91825  0.48385  0.57453     C
C      0.91873  0.80937  0.90487     C
C       0.9188   0.4861   0.9854     C
O      0.91887  0.29142  0.75847     O
O      0.91979  0.60408  0.26234     O
H       0.9214   0.7503   0.2824     H
Zn     0.92239  0.64254  0.41351    Zn
C      0.92367  0.20672  0.60667     C
O      0.92924  0.31109  0.11767     O
C      0.92998  0.50727  0.50323     C
C      0.93012   0.4262  0.45563     C
O      0.93122  0.15969  0.31811     O
C      0.93124  0.63242  0.75067     C
C      0.93132  0.18145   0.1926     C
C      0.93536  0.21075   0.0593     C
C      0.93541  0.47857  0.44353     C
C      0.93573  0.18347  0.66727     C
O      0.93573  0.57973    0.427     O
H      0.93733  0.75817  0.66787     H
O      0.93742  0.35096  0.40432     O
C      0.93783  0.80797  0.78917     C
C      0.93933  0.08917  0.86737     C
C       0.9395   0.1005   0.4974     C
C      0.93985  0.56488  0.49283     C
C      0.94206  0.39797  0.39263     C
H      0.94267  0.49433  0.39493     H
O      0.94279  0.32143  0.94906     O
Zn     0.94651  0.25572  0.91982    Zn
C      0.94753  0.84397  0.85877     C
C      0.94813  0.13047  0.79737     C
C      0.94971  0.40966     0.94     C
O      0.95148   0.5959  0.54899     O
O      0.95187  0.28688  0.53123     O
C       0.9519   0.1396   0.4397     C
O      0.95354  0.66834  0.80211     O
C      0.95386  0.49766   0.9244     C
O      0.95469  0.60946  0.71761     O
O      0.95607  0.42326  0.33156     O
O      0.95808  0.70588  0.57487     O
C      0.95837  0.72682   0.1595     C
O      0.96079  0.58554   0.9082     O
C      0.96549  0.26458  0.58267     C
C      0.96575  0.36784    0.916     C
H       0.9671   0.2132   0.2004     H
C      0.96979  0.45964   0.9015     C
H      0.97003  0.20427  0.69327     H
C      0.97512  0.55177   0.8836     C
Zn     0.97588  0.38682  0.25315    Zn
O      0.97734  0.73094  0.09367     O
O      0.97776  0.71519  0.21566     O
O      0.98237  0.25312  0.07099     O
C        0.986   0.1149   0.4208     C
O       0.9881  0.71197  0.38427     O
Zn     0.98896  0.32255  0.43629    Zn
Zn     0.98921  0.66692  0.89705    Zn
H       0.9941   0.4677   0.8601     H
O      0.99485   0.4406  0.17295     O
O      0.99833  0.61854  0.13544     O
Zn     0.99975  0.65563  0.23038    Zn
