data_I
_chemical_name_common  '/home/zhangsd/repos/MofS-CGCNN/ML/data/TSD/clean_cifs/UXUYUI_clean'
_cell_length_a 10.99090
_cell_length_b 10.99090
_cell_length_c 10.99100
_cell_angle_alpha 90.00000
_cell_angle_beta  90.00000
_cell_angle_gamma 90.00000
_space_group_name_H-M_alt      'P 1'


loop_
_space_group_symop_operation_xyz
  'x, y, z' 

loop_
_atom_site_label
_atom_site_fract_x
_atom_site_fract_y
_atom_site_fract_z
_atom_site_type_symbol
H       0.0645   0.2495    0.055     H
H       0.0645   0.7505    0.445     H
Li      0.0816   0.4108   0.8364    Li
Li      0.0816   0.5892   0.6636    Li
O       0.0963   0.4106   0.6586     O
O       0.0963   0.5894   0.8414     O
H       0.1323   0.1813   0.6734     H
H       0.1323   0.8187   0.8266     H
C       0.1462   0.2423   0.0341     C
C       0.1462   0.7577   0.4659     C
C       0.1621    0.338   0.5884     C
C       0.1621    0.662   0.9116     C
C       0.1729   0.2167   0.6082     C
C       0.1729   0.7833   0.8918     C
N       0.1808   0.2988   0.9384     N
N       0.1808   0.7012   0.5616     N
H       0.1813   0.1323   0.1734     H
H       0.1813   0.8677   0.3266     H
H       0.2066   0.4568   0.4597     H
H       0.2066   0.5432   0.0403     H
C       0.2155   0.3766    0.485     C
C       0.2155   0.6234    0.015     C
C       0.2167   0.1729   0.1082     C
C       0.2167   0.8271   0.3918     C
C       0.2423   0.1462   0.5341     C
C       0.2423   0.8538   0.9659     C
H       0.2495   0.0645    0.555     H
H       0.2495   0.9355    0.945     H
C       0.2822   0.2975   0.4183     C
C       0.2822   0.7025   0.0817     C
C       0.2975   0.2822   0.9183     C
C       0.2975   0.7178   0.5817     C
N       0.2988   0.1808   0.4384     N
N       0.2988   0.8192   0.0616     N
H       0.3209   0.3296   0.3503     H
H       0.3209   0.6704   0.1497     H
H       0.3296   0.3209   0.8503     H
H       0.3296   0.6791   0.6497     H
C        0.338   0.1621   0.0884     C
C        0.338   0.8379   0.4116     C
C       0.3766   0.2155    0.985     C
C       0.3766   0.7845    0.515     C
O       0.4106   0.0963   0.1586     O
O       0.4106   0.9037   0.3414     O
Li      0.4108   0.0816   0.3364    Li
Li      0.4108   0.9184   0.1636    Li
H       0.4568   0.2066   0.9597     H
H       0.4568   0.7934   0.5403     H
H       0.5432   0.2066   0.5403     H
H       0.5432   0.7934   0.9597     H
Li      0.5892   0.0816   0.1636    Li
Li      0.5892   0.9184   0.3364    Li
O       0.5894   0.0963   0.3414     O
O       0.5894   0.9037   0.1586     O
C       0.6234   0.2155    0.515     C
C       0.6234   0.7845    0.985     C
C        0.662   0.1621   0.4116     C
C        0.662   0.8379   0.0884     C
H       0.6704   0.3209   0.6497     H
H       0.6704   0.6791   0.8503     H
H       0.6791   0.3296   0.1497     H
H       0.6791   0.6704   0.3503     H
N       0.7012   0.1808   0.0616     N
N       0.7012   0.8192   0.4384     N
C       0.7025   0.2822   0.5817     C
C       0.7025   0.7178   0.9183     C
C       0.7178   0.2975   0.0817     C
C       0.7178   0.7025   0.4183     C
H       0.7505   0.0645    0.945     H
H       0.7505   0.9355    0.555     H
C       0.7577   0.1462   0.9659     C
C       0.7577   0.8538   0.5341     C
C       0.7833   0.1729   0.3918     C
C       0.7833   0.8271   0.1082     C
C       0.7845   0.3766    0.015     C
C       0.7845   0.6234    0.485     C
H       0.7934   0.4568   0.0403     H
H       0.7934   0.5432   0.4597     H
H       0.8187   0.1323   0.3266     H
H       0.8187   0.8677   0.1734     H
N       0.8192   0.2988   0.5616     N
N       0.8192   0.7012   0.9384     N
C       0.8271   0.2167   0.8918     C
C       0.8271   0.7833   0.6082     C
C       0.8379    0.338   0.9116     C
C       0.8379    0.662   0.5884     C
C       0.8538   0.2423   0.4659     C
C       0.8538   0.7577   0.0341     C
H       0.8677   0.1813   0.8266     H
H       0.8677   0.8187   0.6734     H
O       0.9037   0.4106   0.8414     O
O       0.9037   0.5894   0.6586     O
Li      0.9184   0.4108   0.6636    Li
Li      0.9184   0.5892   0.8364    Li
H       0.9355   0.2495    0.445     H
H       0.9355   0.7505    0.055     H
