data_I
_chemical_name_common  '/home/zhangsd/repos/MofS-CGCNN/ML/data/TSD/clean_cifs/UZUNAF01_clean'
_cell_length_a  8.64100
_cell_length_b 13.15300
_cell_length_c 15.30180
_cell_angle_alpha 115.45400
_cell_angle_beta  94.96470
_cell_angle_gamma 90.00000
_space_group_name_H-M_alt      'P 1'


loop_
_space_group_symop_operation_xyz
  'x, y, z' 

loop_
_atom_site_label
_atom_site_fract_x
_atom_site_fract_y
_atom_site_fract_z
_atom_site_type_symbol
C       0.0021   0.6872   0.5958     C
H       0.0063   0.5415   0.6168     H
H       0.0111   0.6489   0.5266     H
O       0.0131  0.17517  0.50934     O
N       0.0376   0.5182   0.9692     N
Cu      0.0381  0.91487  0.42096    Cu
C       0.0572   0.1341    0.427     C
C       0.0635   0.3969   0.3696     C
H       0.0682   0.3593   0.2998     H
O       0.0741   0.0311   0.3754     O
H       0.0961    0.365   0.9032     H
H        0.098   0.1695   0.3134     H
C       0.1008   0.2127   0.3832     C
C       0.1033   0.4363   0.9046     C
H       0.1053   0.7141   0.6284     H
H       0.1307   0.6682   0.3538     H
N       0.1411  0.78022  0.30204     N
C       0.1698   0.6824   0.3052     C
H       0.1763   0.8641    0.227     H
O       0.1812  0.09451  0.63182     O
H       0.1823   0.6208    0.885     H
C       0.1895  0.45273  0.83326     C
C       0.1962   0.7967    0.231     C
H        0.207   0.2409   0.4074     H
C       0.2195   0.5566   0.8366     C
C       0.2245   0.4439   0.4188     C
H       0.2263   0.2897   0.7548     H
O        0.244  0.95359  0.49578     O
C       0.2455  0.36192  0.76024     C
C       0.2545  0.60168  0.23976     C
O        0.256  0.45781  0.50422     O
H       0.2737   0.5349   0.2452     H
C       0.2755   0.0251   0.5812     C
C       0.2805     0.72   0.1634     C
H        0.293   0.8335   0.5926     H
C       0.3038   0.5657    0.769     C
C       0.3105  0.61947  0.16674     C
H       0.3177   0.7358    0.115     H
O       0.3188  0.46269  0.36818     O
H       0.3237   0.6371    0.773     H
C       0.3302   0.3772   0.6948     C
N       0.3589  0.47818  0.69796     N
H       0.3693   0.3144   0.6462     H
H       0.3947   0.0857   0.3716     H
C       0.3967   0.5317   0.0954     C
C       0.3992   0.8295   0.6168     C
H        0.402   0.8561   0.6866     H
H       0.4039   0.4618   0.0968     H
O       0.4259   0.6557   0.6246     O
H       0.4318   0.0595   0.7002     H
C       0.4365   0.0273   0.6304     C
C       0.4428   0.7071    0.573     C
Cu      0.4619  0.49391  0.57904    Cu
N       0.4624    0.549   0.0308     N
O       0.4869  0.66583  0.49066     O
H       0.4889   0.1223   0.4734     H
H       0.4937   0.9247   0.3832     H
C       0.4979   0.0914   0.4042     C
C       0.5021   0.9086   0.5958     C
H       0.5063   0.0753   0.6168     H
H       0.5111   0.8777   0.5266     H
O       0.5131  0.33417  0.50934     O
N       0.5376    0.451   0.9692     N
Cu      0.5381  0.50609  0.42096    Cu
C       0.5572   0.2929    0.427     C
C       0.5635   0.9727   0.3696     C
H       0.5682   0.9405   0.2998     H
O       0.5741   0.3443   0.3754     O
H       0.5961   0.5382   0.9032     H
H        0.598   0.1439   0.3134     H
C       0.6008   0.1705   0.3832     C
C       0.6033   0.4683   0.9046     C
H       0.6053   0.9143   0.6284     H
H       0.6307   0.6856   0.3538     H
N       0.6411  0.52182  0.30204     N
C       0.6698   0.6228   0.3052     C
H       0.6763   0.3629    0.227     H
O       0.6812  0.53731  0.63182     O
H       0.6823   0.2642    0.885     H
C       0.6895  0.38053  0.83326     C
C       0.6962   0.4343    0.231     C
H        0.707   0.1665   0.4074     H
C       0.7195     0.28   0.8366     C
C       0.7245   0.9749   0.4188     C
H       0.7263   0.4651   0.7548     H
O        0.744  0.54219  0.49578     O
C       0.7455  0.39832  0.76024     C
C       0.7545  0.63808  0.23976     C
O        0.756  0.04641  0.50422     O
H       0.7737   0.7103   0.2452     H
C       0.7755   0.5561   0.5812     C
C       0.7805   0.4434   0.1634     C
H        0.793   0.7591   0.5926     H
C       0.8038   0.2033    0.769     C
C       0.8105  0.54727  0.16674     C
H       0.8177   0.3792    0.115     H
O       0.8188  0.90549  0.36818     O
H       0.8237   0.1359    0.773     H
C       0.8302   0.3176   0.6948     C
N       0.8589  0.21978  0.69796     N
H       0.8693   0.3318   0.6462     H
H       0.8947   0.2859   0.3716     H
C       0.8967   0.5637   0.0954     C
C       0.8992   0.7873   0.6168     C
H        0.902   0.8305   0.6866     H
H       0.9039    0.635   0.0968     H
O       0.9259   0.9689   0.6246     O
H       0.9318   0.6407   0.7002     H
C       0.9365   0.6031   0.6304     C
C       0.9428   0.8659    0.573     C
Cu      0.9619  0.08513  0.57904    Cu
N       0.9624   0.4818   0.0308     N
O       0.9869  0.82483  0.49066     O
H       0.9889   0.3511   0.4734     H
H       0.9937   0.4585   0.3832     H
C       0.9979   0.3128   0.4042     C
