data_I
_chemical_name_common  '/home/zhangsd/repos/MofS-CGCNN/ML/data/TSD/clean_cifs/UZUNAF_clean'
_cell_length_a  8.64620
_cell_length_b 13.15980
_cell_length_c 15.32180
_cell_angle_alpha 115.43300
_cell_angle_beta  94.90690
_cell_angle_gamma 90.00000
_space_group_name_H-M_alt      'P 1'


loop_
_space_group_symop_operation_xyz
  'x, y, z' 

loop_
_atom_site_label
_atom_site_fract_x
_atom_site_fract_y
_atom_site_fract_z
_atom_site_type_symbol
C       0.0025   0.9092   0.5946     C
H        0.005   0.0745   0.6152     H
H       0.0116   0.8782   0.5252     H
O       0.0151   0.3352   0.5104     O
N       0.0379   0.4521   0.9696     N
Cu     0.03811   0.5061  0.42102    Cu
C       0.0578   0.2932   0.4258     C
C       0.0642   0.9738   0.3712     C
H       0.0683   0.9418   0.3014     H
O       0.0736   0.3446    0.375     O
H       0.0961   0.5393   0.9026     H
H       0.0992   0.1437   0.3144     H
C       0.1009   0.1713   0.3842     C
C        0.103   0.4697   0.9044     C
H       0.1058   0.9153    0.627     H
H       0.1318   0.6855   0.3546     H
N       0.1409   0.5222    0.302     N
C       0.1699   0.6226   0.3056     C
H       0.1766   0.3636    0.228     H
O       0.1805  0.53743  0.63166     O
H       0.1829   0.2628   0.8848     H
C        0.189   0.3792   0.8328     C
C       0.1964   0.4348   0.2314     C
H       0.2069    0.168    0.409     H
C       0.2193   0.2789   0.8366     C
C        0.226   0.9748   0.4194     C
H       0.2285   0.4639   0.7544     H
O       0.2447  0.54182  0.49564     O
C       0.2466   0.3969   0.7594     C
C       0.2534   0.6375   0.2406     C
O       0.2553  0.04618  0.50436     O
H       0.2715   0.7095   0.2456     H
C        0.274   0.5554   0.5806     C
C       0.2807   0.4423   0.1634     C
H       0.2931    0.759    0.591     H
C       0.3036   0.2034   0.7686     C
C        0.311   0.5464   0.1672     C
H       0.3171    0.378   0.1152     H
O       0.3195  0.90577  0.36834     O
H       0.3234   0.1356    0.772     H
C       0.3301    0.317   0.6944     C
N       0.3591   0.2202    0.698     N
H       0.3682   0.3309   0.6454     H
H       0.3942   0.2883    0.373     H
C        0.397   0.5653   0.0956     C
C       0.3991   0.7871   0.6158     C
H       0.4008   0.8293   0.6856     H
H       0.4039   0.6367   0.0974     H
O       0.4264   0.9696    0.625     O
H       0.4317   0.6404   0.6986     H
C       0.4358   0.6026   0.6288     C
C       0.4422   0.8674   0.5742     C
Cu     0.46189  0.08508  0.57898    Cu
N       0.4621   0.4825   0.0304     N
O       0.4849   0.8248   0.4896     O
H       0.4884    0.353   0.4748     H
H        0.495   0.4593   0.3848     H
C       0.4975   0.3146   0.4054     C
C       0.5025   0.6854   0.5946     C
H        0.505   0.5407   0.6152     H
H       0.5116    0.647   0.5252     H
O       0.5151   0.1752   0.5104     O
N       0.5379   0.5175   0.9696     N
Cu     0.53811  0.91492  0.42102    Cu
C       0.5578   0.1326   0.4258     C
C       0.5642   0.3974   0.3712     C
H       0.5683   0.3596   0.3014     H
O       0.5736   0.0304    0.375     O
H       0.5961   0.3633   0.9026     H
H       0.5992   0.1707   0.3144     H
C       0.6009   0.2129   0.3842     C
C        0.603   0.4347   0.9044     C
H       0.6058   0.7117    0.627     H
H       0.6318   0.6691   0.3546     H
N       0.6409   0.7798    0.302     N
C       0.6699    0.683   0.3056     C
H       0.6766   0.8644    0.228     H
O       0.6805  0.09423  0.63166     O
H       0.6829    0.622   0.8848     H
C        0.689   0.4536   0.8328     C
C       0.6964   0.7966   0.2314     C
H       0.7069    0.241    0.409     H
C       0.7193   0.5577   0.8366     C
C        0.726   0.4446   0.4194     C
H       0.7285   0.2905   0.7544     H
O       0.7447  0.95382  0.49564     O
C       0.7466   0.3625   0.7594     C
C       0.7534   0.6031   0.2406     C
O       0.7553  0.45818  0.50436     O
H       0.7715   0.5361   0.2456     H
C        0.774   0.0252   0.5806     C
C       0.7807   0.7211   0.1634     C
H       0.7931    0.832    0.591     H
C       0.8036   0.5652   0.7686     C
C        0.811   0.6208   0.1672     C
H       0.8171   0.7372   0.1152     H
O       0.8195  0.46257  0.36834     O
H       0.8234   0.6364    0.772     H
C       0.8301   0.3774   0.6944     C
N       0.8591   0.4778    0.698     N
H       0.8682   0.3145   0.6454     H
H       0.8942   0.0847    0.373     H
C        0.897   0.5303   0.0956     C
C       0.8991   0.8287   0.6158     C
H       0.9008   0.8563   0.6856     H
H       0.9039   0.4607   0.0974     H
O       0.9264   0.6554    0.625     O
H       0.9317   0.0582   0.6986     H
C       0.9358   0.0262   0.6288     C
C       0.9422   0.7068   0.5742     C
Cu     0.96189   0.4939  0.57898    Cu
N       0.9621   0.5479   0.0304     N
O       0.9849   0.6648   0.4896     O
H       0.9884   0.1218   0.4748     H
H        0.995   0.9255   0.3848     H
C       0.9975   0.0908   0.4054     C
