data_I
_chemical_name_common  '/home/zhangsd/repos/MofS-CGCNN/ML/data/TSD/clean_cifs/VAGKOF_clean'
_cell_length_a  7.38200
_cell_length_b 24.64400
_cell_length_c 31.57800
_cell_angle_alpha 90.17000
_cell_angle_beta  90.00000
_cell_angle_gamma 90.00000
_space_group_name_H-M_alt      'P 1'


loop_
_space_group_symop_operation_xyz
  'x, y, z' 

loop_
_atom_site_label
_atom_site_fract_x
_atom_site_fract_y
_atom_site_fract_z
_atom_site_type_symbol
C      0.00519  0.41797  0.16785     C
C      0.00519  0.58203  0.33215     C
C      0.00551  0.47667  0.10254     C
C      0.00551  0.52333  0.39746     C
F      0.00838  0.03987  0.96533     F
F      0.00838  0.96013  0.53467     F
C      0.00861  0.22345  0.02778     C
C      0.00861  0.77655  0.47222     C
C      0.01067  0.45505  0.83794     C
C      0.01067  0.54495  0.66206     C
H      0.01258  0.36399  0.22093     H
H      0.01258  0.63601  0.27907     H
O      0.01562  0.15971  0.26239     O
O      0.01562  0.84029  0.23761     O
H      0.02115  0.01763    0.684     H
H      0.02115  0.98237    0.816     H
H      0.02295  0.20502    0.361     H
H      0.02295  0.79498    0.139     H
H      0.02924   0.3937  0.78963     H
H      0.02924   0.6063  0.71037     H
C      0.03064  0.01422  0.59674     C
C      0.03064  0.98578  0.90326     C
C      0.03767   0.2347   0.3863     C
C      0.03767   0.7653   0.1137     C
H      0.03864  0.20146  0.99869     H
H      0.03864  0.79854  0.50131     H
C      0.03995  0.01821  0.32618     C
C      0.03995  0.98179  0.17382     C
F      0.04241  0.45634  0.95226     F
F      0.04241  0.54366  0.54774     F
C      0.05165  0.41048   0.3153     C
C      0.05165  0.58952   0.1847     C
C       0.0574  0.31861  0.91917     C
C       0.0574  0.68139  0.58083     C
H       0.0579  0.05513  0.26473     H
H       0.0579  0.94487  0.23527     H
C      0.05866  0.30874  0.45277     C
C      0.05866  0.69126  0.04723     C
C        0.059  0.02547  0.37003     C
C        0.059  0.97453  0.12997     C
H      0.06146  0.33721  0.47913     H
H      0.06146  0.66279  0.02087     H
C      0.06277  0.28035  0.60183     C
C      0.06277  0.71965  0.89817     C
C      0.06785  0.37888  0.69448     C
C      0.06785  0.62112  0.80552     C
F      0.07082  0.08582  0.04862     F
F      0.07082  0.91418  0.45138     F
C      0.07125  0.28091  0.88606     C
C      0.07125  0.71909  0.61394     C
F      0.07694  0.39703  0.06056     F
F      0.07694  0.60297  0.43944     F
Ca     0.08266   0.2467  0.23136    Ca
Ca     0.08266   0.7533  0.26864    Ca
C      0.08587  0.05938  0.29841     C
C      0.08587  0.94062  0.20159     C
H      0.08826  0.30282  0.63086     H
H      0.08826  0.69718  0.86914     H
C      0.08985  0.47626  0.37186     C
C      0.08985  0.52374  0.12814     C
C      0.09142  0.43654  0.63245     C
C      0.09142  0.56346  0.86755     C
C      0.09867  0.25117  0.09789     C
C      0.09867  0.74883  0.40211     C
H      0.10544  0.12747   0.5947     H
H      0.10544  0.87253   0.9053     H
C      0.12504  0.05073  0.07941     C
C      0.12504  0.94927  0.42059     C
C      0.12565  0.49652  0.93017     C
C      0.12565  0.50348  0.56983     C
C       0.1262  0.01605  0.93794     C
C       0.1262  0.98395  0.56206     C
C      0.13217  0.22162  0.06084     C
C      0.13217  0.77838  0.43916     C
H      0.13971  0.47327  0.82929     H
H      0.13971  0.52673  0.67071     H
H      0.14021  0.43354  0.17455     H
H      0.14021  0.56646  0.32545     H
H      0.14166  0.35478  0.91898     H
H      0.14166  0.64522  0.58102     H
C      0.14967    0.443  0.07728     C
C      0.14967    0.557  0.42272     C
C      0.15272  0.25334  0.53146     C
C      0.15272  0.74666  0.96854     C
C      0.15509  0.15695  0.28684     C
C      0.15509  0.84305  0.21316     C
C      0.15824   0.0704   0.3844     C
C      0.15824   0.9296   0.1156     C
C      0.15852  0.22585  0.41926     C
C      0.15852  0.77415  0.08074     C
C      0.16241  0.10754  0.31365     C
C      0.16241  0.89246  0.18635     C
O       0.1648  0.31779  0.27364     O
O       0.1648  0.68221  0.22636     O
C      0.16714  0.26195  0.45335     C
C      0.16714  0.73805  0.04665     C
C      0.18024  0.04803   0.6187     C
C      0.18024  0.95197   0.8813     C
O      0.18626   0.2747  0.16788     O
O      0.18626   0.7253  0.33212     O
H      0.18836  0.07561  0.41784     H
H      0.18836  0.92439  0.08216     H
C      0.18893  0.28101  0.56919     C
C      0.18893  0.71899  0.93081     C
C      0.19284  0.10468  0.61586     C
C      0.19284  0.89532  0.88414     C
F       0.1931  0.46771  0.54091     F
F       0.1931  0.53229  0.95909     F
F      0.19549  0.08101  0.11167     F
F      0.19549  0.91899  0.38833     F
O      0.20562  0.27824   0.7293     O
O      0.20562  0.72176   0.7707     O
C      0.20809  0.28726  0.85221     C
C      0.20809  0.71274  0.64779     C
C      0.21323  0.11046  0.35611     C
C      0.21323  0.88954  0.14389     C
C      0.21682  0.38582  0.32547     C
C      0.21682  0.61418  0.17453     C
C      0.22434  0.25035  0.13442     C
C      0.22434  0.74965  0.36558     C
F      0.22595  0.47065  0.04452     F
F      0.22595  0.52935  0.45548     F
O      0.22727  0.25274  0.82358     O
O      0.22727  0.74726  0.67642     O
F      0.23395  0.01653  0.53686     F
F      0.23395  0.98347  0.96314     F
F      0.23423  0.05645   0.9226     F
F      0.23423  0.94355   0.5774     F
H      0.24138  0.18955  0.41882     H
H      0.24138  0.81045  0.08118     H
C      0.24255  0.35871  0.68737     C
C      0.24255  0.64129  0.81263     C
H      0.25514  0.19777    0.058     H
H      0.25514  0.80223    0.442     H
C      0.25537   0.4518  0.38206     C
C      0.25537   0.5482  0.11794     C
F      0.26169   0.1532  0.48531     F
F      0.26169   0.8468  0.01469     F
F      0.26385  0.02144  0.06284     F
F      0.26385  0.97856  0.43716     F
O      0.26534   0.1964  0.28994     O
O      0.26534   0.8036  0.21006     O
C      0.26785   0.4172  0.62598     C
C      0.26785   0.5828  0.87402     C
F      0.27002   0.4732  0.91017     F
F      0.27002   0.5268  0.58983     F
C      0.27283  0.33609  0.30119     C
C      0.27283  0.66391  0.19881     C
C      0.28145  0.25125  0.49318     C
C      0.28145  0.74875  0.00682     C
H      0.28684  0.14598   0.3672     H
H      0.28684  0.85402   0.1328     H
F      0.28819  0.42721  0.10312     F
F      0.28819  0.57279  0.39688     F
C      0.30872  0.02093  0.64374     C
C      0.30872  0.97907  0.85626     C
O      0.30904  0.33123  0.85575     O
O      0.30904  0.66877  0.64425     O
H      0.30959  0.02219  0.85253     H
H      0.30959  0.97781  0.64747     H
H      0.31365  0.30372  0.57358     H
H      0.31365  0.69628  0.92642     H
C       0.3151  0.13348  0.64117     C
C       0.3151  0.86652  0.85883     C
H      0.31825  0.17758  0.63922     H
H      0.31825  0.82242  0.86078     H
C      0.31828  0.31327  0.71341     C
C      0.31828  0.68673  0.78659     C
C      0.31841  0.40731    0.359     C
C      0.31841  0.59269    0.141     C
H      0.33709  0.46654  0.40831     H
H      0.33709  0.53346  0.09169     H
C      0.34379  0.37959   0.6537     C
C      0.34379  0.62041   0.8463     C
H      0.34869  0.43075  0.59929     H
H      0.34869  0.56925  0.90071     H
F      0.35843   0.3482  0.50405     F
F      0.35843   0.6518  0.99595     F
O      0.37303   0.2215   0.1296     O
O      0.37303   0.7785   0.3704     O
C      0.37891  0.19482  0.49308     C
C      0.37891  0.80518  0.00692     C
O      0.41124  0.10668  0.23447     O
O      0.41124  0.89332  0.26553     O
H      0.42173  0.32807  0.83554     H
H      0.42173  0.67193  0.66446     H
O      0.42496  0.31301  0.30937     O
O      0.42496  0.68699  0.19063     O
H      0.42671  0.21152  0.15928     H
H      0.42671  0.78848  0.34072     H
C      0.42724  0.10648  0.66993     C
C      0.42724  0.89352  0.83007     C
C      0.42863  0.04968  0.66922     C
C      0.42863  0.95032  0.83078     C
C      0.43031  0.29642  0.49498     C
C      0.43031  0.70358  0.00502     C
F      0.43943  0.28903  0.02457     F
F      0.43943  0.71097  0.47543     F
H      0.44649  0.38906  0.36825     H
H      0.44649  0.61094  0.13175     H
Ca     0.45308  0.23527  0.77065    Ca
Ca     0.45308  0.76473  0.72935    Ca
F      0.45454  0.18635  0.53136     F
F      0.45454  0.81365  0.96864     F
O      0.46818  0.18819  0.20501     O
O      0.46818  0.81181  0.29499     O
C      0.47247  0.13529  0.20493     C
C      0.47247  0.86471  0.29507     C
H      0.48014  0.02828  0.19051     H
H      0.48014  0.97172  0.30949     H
H      0.48125  0.36482  0.64865     H
H      0.48125  0.63518  0.85135     H
F      0.48411  0.30116  0.95707     F
F      0.48411  0.69884  0.54293     F
O       0.4861  0.30925  0.71886     O
O       0.4861  0.69075  0.78114     O
F      0.48654  0.19137  0.96359     F
F      0.48654  0.80863  0.53641     F
F      0.51346  0.19137  0.46359     F
F      0.51346  0.80863  0.03641     F
O       0.5139  0.30925  0.21886     O
O       0.5139  0.69075  0.28114     O
F      0.51589  0.30116  0.45707     F
F      0.51589  0.69884  0.04293     F
H      0.51875  0.36482  0.14865     H
H      0.51875  0.63518  0.35135     H
H      0.51986  0.02828  0.69051     H
H      0.51986  0.97172  0.80949     H
C      0.52753  0.13529  0.70493     C
C      0.52753  0.86471  0.79507     C
O      0.53182  0.18819  0.70501     O
O      0.53182  0.81181  0.79499     O
F      0.54546  0.18635  0.03136     F
F      0.54546  0.81365  0.46864     F
Ca     0.54692  0.23527  0.27065    Ca
Ca     0.54692  0.76473  0.22935    Ca
H      0.55351  0.38906  0.86825     H
H      0.55351  0.61094  0.63175     H
F      0.56057  0.28903  0.52457     F
F      0.56057  0.71097  0.97543     F
C      0.56969  0.29642  0.99498     C
C      0.56969  0.70358  0.50502     C
C      0.57137  0.04968  0.16922     C
C      0.57137  0.95032  0.33078     C
C      0.57276  0.10648  0.16993     C
C      0.57276  0.89352  0.33007     C
H      0.57329  0.21152  0.65928     H
H      0.57329  0.78848  0.84072     H
O      0.57504  0.31301  0.80937     O
O      0.57504  0.68699  0.69063     O
H      0.57827  0.32807  0.33554     H
H      0.57827  0.67193  0.16446     H
O      0.58876  0.10668  0.73447     O
O      0.58876  0.89332  0.76553     O
C      0.62109  0.19482  0.99308     C
C      0.62109  0.80518  0.50692     C
O      0.62697   0.2215   0.6296     O
O      0.62697   0.7785   0.8704     O
F      0.64157   0.3482  0.00405     F
F      0.64157   0.6518  0.49595     F
H      0.65131  0.43075  0.09929     H
H      0.65131  0.56925  0.40071     H
C      0.65621  0.37959   0.1537     C
C      0.65621  0.62041   0.3463     C
H      0.66291  0.46654  0.90831     H
H      0.66291  0.53346  0.59169     H
C      0.68159  0.40731    0.859     C
C      0.68159  0.59269    0.641     C
C      0.68172  0.31327  0.21341     C
C      0.68172  0.68673  0.28659     C
H      0.68175  0.17758  0.13922     H
H      0.68175  0.82242  0.36078     H
C       0.6849  0.13348  0.14117     C
C       0.6849  0.86652  0.35883     C
H      0.68635  0.30372  0.07358     H
H      0.68635  0.69628  0.42642     H
H      0.69041  0.02219  0.35253     H
H      0.69041  0.97781  0.14747     H
O      0.69096  0.33123  0.35575     O
O      0.69096  0.66877  0.14425     O
C      0.69128  0.02093  0.14374     C
C      0.69128  0.97907  0.35626     C
F      0.71181  0.42721  0.60312     F
F      0.71181  0.57279  0.89688     F
H      0.71316  0.14598   0.8672     H
H      0.71316  0.85402   0.6328     H
C      0.71855  0.25125  0.99318     C
C      0.71855  0.74875  0.50682     C
C      0.72717  0.33609  0.80119     C
C      0.72717  0.66391  0.69881     C
F      0.72998   0.4732  0.41017     F
F      0.72998   0.5268  0.08983     F
C      0.73215   0.4172  0.12598     C
C      0.73215   0.5828  0.37402     C
O      0.73466   0.1964  0.78994     O
O      0.73466   0.8036  0.71006     O
F      0.73615  0.02144  0.56284     F
F      0.73615  0.97856  0.93716     F
F      0.73831   0.1532  0.98531     F
F      0.73831   0.8468  0.51469     F
C      0.74463   0.4518  0.88206     C
C      0.74463   0.5482  0.61794     C
H      0.74486  0.19777    0.558     H
H      0.74486  0.80223    0.942     H
C      0.75745  0.35871  0.18737     C
C      0.75745  0.64129  0.31263     C
H      0.75862  0.18955  0.91882     H
H      0.75862  0.81045  0.58118     H
F      0.76577  0.05645   0.4226     F
F      0.76577  0.94355   0.0774     F
F      0.76605  0.01653  0.03686     F
F      0.76605  0.98347  0.46314     F
O      0.77273  0.25274  0.32358     O
O      0.77273  0.74726  0.17642     O
F      0.77405  0.47065  0.54452     F
F      0.77405  0.52935  0.95548     F
C      0.77566  0.25035  0.63442     C
C      0.77566  0.74965  0.86558     C
C      0.78318  0.38582  0.82547     C
C      0.78318  0.61418  0.67453     C
C      0.78677  0.11046  0.85611     C
C      0.78677  0.88954  0.64389     C
C      0.79191  0.28726  0.35221     C
C      0.79191  0.71274  0.14779     C
O      0.79438  0.27824   0.2293     O
O      0.79438  0.72176   0.2707     O
F      0.80451  0.08101  0.61167     F
F      0.80451  0.91899  0.88833     F
F       0.8069  0.46771  0.04091     F
F       0.8069  0.53229  0.45909     F
C      0.80716  0.10468  0.11586     C
C      0.80716  0.89532  0.38414     C
C      0.81107  0.28101  0.06919     C
C      0.81107  0.71899  0.43081     C
H      0.81164  0.07561  0.91784     H
H      0.81164  0.92439  0.58216     H
O      0.81374   0.2747  0.66788     O
O      0.81374   0.7253  0.83212     O
C      0.81976  0.04803   0.1187     C
C      0.81976  0.95197   0.3813     C
C      0.83286  0.26195  0.95335     C
C      0.83286  0.73805  0.54665     C
O       0.8352  0.31779  0.77364     O
O       0.8352  0.68221  0.72636     O
C      0.83759  0.10754  0.81365     C
C      0.83759  0.89246  0.68635     C
C      0.84148  0.22585  0.91926     C
C      0.84148  0.77415  0.58074     C
C      0.84176   0.0704   0.8844     C
C      0.84176   0.9296   0.6156     C
C      0.84491  0.15695  0.78684     C
C      0.84491  0.84305  0.71316     C
C      0.84728  0.25334  0.03146     C
C      0.84728  0.74666  0.46854     C
C      0.85033    0.443  0.57728     C
C      0.85033    0.557  0.92272     C
H      0.85834  0.35478  0.41898     H
H      0.85834  0.64522  0.08102     H
H      0.85979  0.43354  0.67455     H
H      0.85979  0.56646  0.82545     H
H      0.86029  0.47327  0.32929     H
H      0.86029  0.52673  0.17071     H
C      0.86783  0.22162  0.56084     C
C      0.86783  0.77838  0.93916     C
C       0.8738  0.01605  0.43794     C
C       0.8738  0.98395  0.06206     C
C      0.87435  0.49652  0.43017     C
C      0.87435  0.50348  0.06983     C
C      0.87496  0.05073  0.57941     C
C      0.87496  0.94927  0.92059     C
H      0.89456  0.12747   0.0947     H
H      0.89456  0.87253   0.4053     H
C      0.90133  0.25117  0.59789     C
C      0.90133  0.74883  0.90211     C
C      0.90858  0.43654  0.13245     C
C      0.90858  0.56346  0.36755     C
C      0.91015  0.47626  0.87186     C
C      0.91015  0.52374  0.62814     C
H      0.91174  0.30282  0.13086     H
H      0.91174  0.69718  0.36914     H
C      0.91413  0.05938  0.79841     C
C      0.91413  0.94062  0.70159     C
Ca     0.91734   0.2467  0.73136    Ca
Ca     0.91734   0.7533  0.76864    Ca
F      0.92306  0.39703  0.56056     F
F      0.92306  0.60297  0.93944     F
C      0.92875  0.28091  0.38606     C
C      0.92875  0.71909  0.11394     C
F      0.92918  0.08582  0.54862     F
F      0.92918  0.91418  0.95138     F
C      0.93215  0.37888  0.19448     C
C      0.93215  0.62112  0.30552     C
C      0.93723  0.28035  0.10183     C
C      0.93723  0.71965  0.39817     C
H      0.93854  0.33721  0.97913     H
H      0.93854  0.66279  0.52087     H
C        0.941  0.02547  0.87003     C
C        0.941  0.97453  0.62997     C
C      0.94134  0.30874  0.95277     C
C      0.94134  0.69126  0.54723     C
H       0.9421  0.05513  0.76473     H
H       0.9421  0.94487  0.73527     H
C       0.9426  0.31861  0.41917     C
C       0.9426  0.68139  0.08083     C
C      0.94835  0.41048   0.8153     C
C      0.94835  0.58952   0.6847     C
F      0.95759  0.45634  0.45226     F
F      0.95759  0.54366  0.04774     F
C      0.96005  0.01821  0.82618     C
C      0.96005  0.98179  0.67382     C
H      0.96136  0.20146  0.49869     H
H      0.96136  0.79854  0.00131     H
C      0.96233   0.2347   0.8863     C
C      0.96233   0.7653   0.6137     C
C      0.96936  0.01422  0.09674     C
C      0.96936  0.98578  0.40326     C
H      0.97076   0.3937  0.28963     H
H      0.97076   0.6063  0.21037     H
H      0.97705  0.20502    0.861     H
H      0.97705  0.79498    0.639     H
H      0.97885  0.01763    0.184     H
H      0.97885  0.98237    0.316     H
O      0.98438  0.15971  0.76239     O
O      0.98438  0.84029  0.73761     O
H      0.98742  0.36399  0.72093     H
H      0.98742  0.63601  0.77907     H
C      0.98933  0.45505  0.33794     C
C      0.98933  0.54495  0.16206     C
C      0.99139  0.22345  0.52778     C
C      0.99139  0.77655  0.97222     C
F      0.99162  0.03987  0.46533     F
F      0.99162  0.96013  0.03467     F
C      0.99449  0.47667  0.60254     C
C      0.99449  0.52333  0.89746     C
C      0.99481  0.41797  0.66785     C
C      0.99481  0.58203  0.83215     C
