data_I
_chemical_name_common  '/home/zhangsd/repos/MofS-CGCNN/ML/data/TSD/clean_cifs/VAGMEX_clean'
_cell_length_a 18.83300
_cell_length_b 22.78030
_cell_length_c 22.78030
_cell_angle_alpha 60.39170
_cell_angle_beta  65.58380
_cell_angle_gamma 65.58380
_space_group_name_H-M_alt      'P 1'


loop_
_space_group_symop_operation_xyz
  'x, y, z' 

loop_
_atom_site_label
_atom_site_fract_x
_atom_site_fract_y
_atom_site_fract_z
_atom_site_type_symbol
Zn     0.01443  0.53354  0.03354    Zn
O      0.07361  0.38945  0.01795     O
O      0.07361  0.51795  0.88945     O
O        0.098  0.44142  0.06662     O
O        0.098  0.56662  0.94142     O
C      0.11147  0.39083  0.05203     C
C      0.11147  0.55203  0.89083     C
H       0.1538   0.2716   0.0436     H
H       0.1538   0.5436   0.7716     H
C      0.17445  0.32688  0.07722     C
C      0.17445  0.57722  0.82688     C
C      0.18555  0.26995  0.06695     C
C      0.18555  0.56695  0.76995     C
H       0.2156   0.3634   0.1164     H
H       0.2156   0.6164   0.8634     H
C      0.22232  0.32458  0.10898     C
C      0.22232  0.60898  0.82458     C
C      0.24411  0.20889  0.09089     C
C      0.24411  0.59089  0.70889     C
H       0.2495   0.1695   0.0851     H
H       0.2495   0.5851   0.6695     H
H       0.2698    0.151    0.264     H
H       0.2698    0.764    0.651     H
C      0.28178  0.26392  0.13032     C
C      0.28178  0.63032  0.76392     C
C      0.29447  0.20563  0.12323     C
C      0.29447  0.62323  0.70563     C
H       0.3046   0.1164   0.3634     H
H       0.3046   0.8634   0.6164     H
H       0.3152    0.264    0.151     H
H       0.3152    0.651    0.764     H
C      0.32398  0.13032  0.26392     C
C      0.32398  0.76392  0.63032     C
C      0.34412  0.10898  0.32458     C
C      0.34412  0.82458  0.60898     C
N        0.356    0.144    0.144     N
N        0.356    0.644    0.644     N
C      0.37667  0.12323  0.20563     C
C      0.37667  0.70563  0.62323     C
H       0.3783    0.012   0.1778     H
H       0.3783   0.6778    0.512     H
O      0.39396  0.06662  0.44142     O
O      0.39396  0.94142  0.56662     O
C       0.3967   0.1033   0.1033     C
C       0.3967   0.6033   0.6033     C
C       0.4033   0.0334   0.1308     C
C       0.4033   0.6308   0.5334     C
Zn     0.41849  0.03354  0.53354    Zn
C      0.42145  0.07722  0.32688     C
C      0.42145  0.82688  0.57722     C
H       0.4319   0.1778    0.012     H
H       0.4319    0.512   0.6778     H
C       0.4325   0.1308   0.0334     C
C       0.4325   0.5334   0.6308     C
C      0.44567  0.05203  0.39083     C
C      0.44567  0.89083  0.55203     C
C       0.4473   0.5896   0.4922     C
C       0.4473   0.9922   0.0896     C
H       0.4541   0.6112    0.444     H
H       0.4541    0.944   0.1112     H
C      0.45611  0.09089  0.20889     C
C      0.45611  0.70889  0.59089     C
H        0.469   0.2284   0.4564     H
H        0.469   0.9564   0.7284     H
C       0.4709   0.0896   0.9922     C
C       0.4709   0.4922   0.5896     C
C      0.47755  0.06695  0.26995     C
C      0.47755  0.76995  0.56695     C
C       0.4788   0.0212   0.0212     C
C       0.4788   0.5212   0.5212     C
O      0.48101  0.11055  0.48205     O
O      0.48101  0.98205  0.61055     O
H       0.4907   0.1112    0.944     H
H       0.4907    0.444   0.6112     H
H       0.4959   0.0851   0.1695     H
H       0.4959   0.6695   0.5851     H
H       0.5041   0.3305   0.4149     H
H       0.5041   0.9149   0.8305     H
H       0.5093    0.556   0.3888     H
H       0.5093   0.8888    0.056     H
O      0.51899  0.01795  0.38945     O
O      0.51899  0.88945  0.51795     O
C       0.5212   0.4788   0.4788     C
C       0.5212   0.9788   0.9788     C
C      0.52245  0.23005  0.43305     C
C      0.52245  0.93305  0.73005     C
C       0.5291   0.5078   0.4104     C
C       0.5291   0.9104   0.0078     C
H        0.531   0.0436   0.2716     H
H        0.531   0.7716   0.5436     H
C      0.54389  0.29111  0.40911     C
C      0.54389  0.90911  0.79111     C
H       0.5459    0.056   0.8888     H
H       0.5459   0.3888    0.556     H
C       0.5527   0.0078   0.9104     C
C       0.5527   0.4104   0.5078     C
C      0.55433  0.10917  0.44797     C
C      0.55433  0.94797  0.60917     C
C       0.5675   0.4666   0.3692     C
C       0.5675   0.8692   0.9666     C
H       0.5681    0.488   0.3222     H
H       0.5681   0.8222    0.988     H
C      0.57855  0.17312  0.42278     C
C      0.57855  0.92278  0.67312     C
Zn     0.58151  0.96646  0.46646    Zn
C       0.5967   0.3692   0.4666     C
C       0.5967   0.9666   0.8692     C
C       0.6033   0.3967   0.3967     C
C       0.6033   0.8967   0.8967     C
O      0.60604  0.05858  0.43338     O
O      0.60604  0.93338  0.55858     O
H       0.6217   0.3222    0.488     H
H       0.6217    0.988   0.8222     H
C      0.62333  0.29437  0.37677     C
C      0.62333  0.87677  0.79437     C
N        0.644    0.356    0.356     N
N        0.644    0.856    0.856     N
C      0.65588  0.17542  0.39102     C
C      0.65588  0.89102  0.67542     C
C      0.67602  0.23608  0.36968     C
C      0.67602  0.86968  0.73608     C
H       0.6848    0.349    0.236     H
H       0.6848    0.736    0.849     H
H       0.6954   0.1366   0.3836     H
H       0.6954   0.8836   0.6366     H
C      0.70553  0.37677  0.29437     C
C      0.70553  0.79437  0.87677     C
C      0.71822  0.36968  0.23608     C
C      0.71822  0.73608  0.86968     C
H       0.7302    0.236    0.349     H
H       0.7302    0.849    0.736     H
H       0.7505   0.4149   0.3305     H
H       0.7505   0.8305   0.9149     H
C      0.75589  0.40911  0.29111     C
C      0.75589  0.79111  0.90911     C
C      0.77768  0.39102  0.17542     C
C      0.77768  0.67542  0.89102     C
H       0.7844   0.3836   0.1366     H
H       0.7844   0.6366   0.8836     H
C      0.81445  0.43305  0.23005     C
C      0.81445  0.73005  0.93305     C
C      0.82555  0.42278  0.17312     C
C      0.82555  0.67312  0.92278     C
H       0.8462   0.4564   0.2284     H
H       0.8462   0.7284   0.9564     H
C      0.88853  0.44797  0.10917     C
C      0.88853  0.60917  0.94797     C
O        0.902  0.43338  0.05858     O
O        0.902  0.55858  0.93338     O
O      0.92639  0.48205  0.11055     O
O      0.92639  0.61055  0.98205     O
Zn     0.98557  0.46646  0.96646    Zn
