data_I
_chemical_name_common  '/home/zhangsd/repos/MofS-CGCNN/ML/data/TSD/clean_cifs/VAPBEV_clean'
_cell_length_a 12.13900
_cell_length_b 21.57100
_cell_length_c 12.61100
_cell_angle_alpha 90.00000
_cell_angle_beta  90.35100
_cell_angle_gamma 90.00000
_space_group_name_H-M_alt      'P 1'


loop_
_space_group_symop_operation_xyz
  'x, y, z' 

loop_
_atom_site_label
_atom_site_fract_x
_atom_site_fract_y
_atom_site_fract_z
_atom_site_type_symbol
H       0.0079   0.6807   0.4687     H
H       0.0157    0.492   0.3386     H
C       0.0191   0.7116   0.6734     C
C       0.0212   0.0159   0.8105     C
H       0.0223   0.5222   0.1242     H
O       0.0258   0.5145   0.7782     O
C       0.0361   0.7216   0.4754     C
H        0.041    0.598   0.3258     H
H       0.0455   0.6685   0.6648     H
C       0.0462   0.9973   0.1635     C
C       0.0474   0.7481   0.5749     C
N       0.0561   0.5069   0.2815     N
N       0.0564   0.9005   0.2662     N
H       0.0565   0.9295   0.3207     H
H       0.0582   0.3316   0.7555     H
H       0.0583   0.7354   0.3182     H
H       0.0586   0.7299   0.7347     H
H       0.0593   0.5639   0.5201     H
C       0.0599   0.3772   0.7468     C
H       0.0655   0.0538   0.7985     H
C       0.0658   0.7543   0.3859     C
H       0.0726   0.9081   0.1057     H
H       0.0793   0.3003   0.2501     H
H       0.0801   0.1246   0.2354     H
H       0.0854   0.3931   0.3589     H
O       0.0863   0.0302   0.0871     O
C       0.0885    0.808   0.5832     C
O       0.0889   0.9144   0.7699     O
H       0.0918   0.3952   0.8125     H
C       0.0952   0.9321   0.1691     C
H       0.0976   0.8266    0.651     H
C       0.0983    0.961   0.8265     C
N       0.1011   0.2104   0.3035     N
C       0.1028   0.5693   0.3114     C
H       0.1056   0.1778   0.1504     H
H       0.1056   0.3734   0.5893     H
C       0.1065   0.8147   0.3932     C
C       0.1163   0.8406   0.4924     C
C       0.1257   0.1618   0.2215     C
H       0.1288   0.4372   0.1897     H
O       0.1301    0.187   0.7768     O
C       0.1338   0.3931    0.655     C
H       0.1353   0.4385   0.6442     H
C       0.1367   0.5654   0.5095     C
C       0.1376   0.8499   0.2964     C
H       0.1382   0.1997   0.3656     H
C       0.1428   0.2735   0.2685     C
H       0.1428   0.8819    0.499     H
H        0.144    0.586   0.2502     H
H        0.144   0.8206   0.2364     H
C       0.1472   0.4593   0.2563     C
C       0.1573   0.4134   0.3465     C
O       0.1638   0.9675   0.9044     O
H        0.168   0.3063   0.4212     H
H       0.1767   0.9347   0.1701     H
O       0.1777  0.12222   0.9054     O
H       0.1782   0.5624   0.6651     H
C       0.1787   0.5683   0.4073     C
H       0.1797   0.4351   0.4123     H
H       0.1883   0.2686   0.2042     H
H       0.1893   0.2848   0.6392     H
C       0.1982   0.1595   0.8306     C
C       0.2076   0.5646   0.5956     C
C       0.2106   0.3044   0.3546     C
H       0.2109   0.8689    0.308     H
H       0.2183    0.481   0.2463     H
N       0.2386   0.3678   0.3189     N
C       0.2434   0.1439   0.2223     C
N       0.2444   0.3705   0.6786     N
Eu     0.25692  0.04237  0.00388    Eu
C       0.2613   0.3055   0.6497     C
O        0.268   0.1021   0.1548     O
H       0.2787   0.2804    0.368     H
H       0.2836    0.482   0.7492     H
H       0.2842   0.2771   0.8055     H
C       0.2922     0.57   0.3936     C
H       0.2975   0.1944   0.6592     H
H       0.3029   0.3029   0.5826     H
H       0.3084   0.8411   0.6692     H
O       0.3094   0.1698   0.2821     O
H       0.3101    0.434   0.5806     H
H       0.3132     0.92   0.7813     H
C       0.3201   0.1657    0.809     C
C       0.3207    0.567   0.5825     C
H       0.3211   0.5718   0.3238     H
C       0.3255   0.2733   0.7383     C
C       0.3317   0.4122   0.6465     C
O       0.3429   0.9644   0.1006     O
N       0.3442    0.206   0.7144     N
H       0.3515    0.124   0.7968     H
C       0.3525    0.459   0.7349     C
C       0.3536   0.3862    0.349     C
H       0.3565   0.8493   0.4777     H
H       0.3567   0.4314   0.3627     H
H       0.3568   0.1835   0.8723     H
H       0.3605   0.5861   0.7377     H
C       0.3639   0.5692   0.4789     C
H       0.3738   0.4367   0.8005     H
H       0.3764   0.3643   0.4145     H
O       0.3773   0.0208   0.8665     O
C       0.3857   0.8288   0.6833     C
H       0.3862   0.8012    0.746     H
C       0.3937    0.921   0.7948     C
H       0.3975   0.2942    0.748     H
C       0.3988   0.5678    0.676     C
H       0.3997   0.3884   0.6325     H
C       0.4005   0.8132   0.4869     C
H       0.4074   0.3934   0.1969     H
H       0.4079   0.9006   0.8638     H
C       0.4089   0.9573   0.1791     C
H       0.4164    0.795   0.3306     H
O       0.4167   0.9102   0.2345     O
H       0.4225   0.3252   0.2456     H
H       0.4274   0.1721   0.4757     H
C       0.4283   0.7935   0.5893     C
C       0.4287   0.3701   0.2614     C
C       0.4319   0.9876   0.8004     C
H       0.4322   0.0495   0.2184     H
C       0.4359   0.7812   0.3998     C
H       0.4413     0.57   0.4681     H
N       0.4418   0.5043   0.7065     N
N       0.4518   0.8857   0.7083     N
H        0.453   0.9105    0.648     H
C       0.4612   0.1916   0.6829     C
H       0.4621   0.5949   0.6591     H
H       0.4675   0.1467   0.6679     H
C       0.4715    0.208   0.4857     C
H       0.4765   0.5241   0.8615     H
C       0.4805   0.0138   0.2026     C
H       0.4812   0.4883   0.6497     H
H        0.489   0.7012   0.2569     H
C       0.4908    0.741   0.6016     C
H       0.4914   0.2268    0.329     H
O        0.493   0.5059   0.2551     O
C       0.4982   0.2275   0.5866     C
C       0.5018   0.7275   0.4134     C
O        0.507   0.0059   0.7449     O
H       0.5086   0.7268    0.671     H
C       0.5092    0.241   0.3984     C
H        0.511   0.2012   0.7431     H
H       0.5188   0.9883   0.3503     H
C       0.5195   0.5138   0.7974     C
H       0.5235   0.0241   0.1385     H
C       0.5285    0.708   0.5143     C
H       0.5325   0.6467   0.3321     H
H       0.5379   0.0949   0.3409     H
C       0.5388   0.6916   0.3171     C
H        0.547   0.4105    0.352     H
N       0.5482   0.3857   0.2917     N
N       0.5582   0.0043   0.2935     N
H       0.5587     0.07   0.5319     H
C       0.5641   0.2812   0.6002     C
H       0.5678   0.5495   0.7816     H
C       0.5681   0.4876   0.1996     C
C       0.5713   0.8701   0.7386     C
C       0.5717   0.2935   0.4107     C
H       0.5726   0.6721   0.5243     H
H       0.5775   0.8252   0.7544     H
O       0.5833   0.4102   0.7655     O
H       0.5836    0.295   0.6694     H
C       0.5911   0.4573   0.8209     C
H       0.5921   0.4006   0.1362     H
H       0.5926   0.8934   0.8031     H
C       0.5995   0.3132   0.5131     C
H       0.6003   0.8884   0.3675     H
C       0.6012   0.0678    0.324     C
H       0.6025   0.7942    0.252     H
C       0.6063    0.421   0.2052     C
H       0.6138   0.3012    0.254     H
C       0.6143   0.3288   0.3167     C
O       0.6227   0.5208   0.1335     O
H       0.6236   0.8643   0.5855     H
H       0.6262   0.9367   0.1995     H
C       0.6361   0.0692   0.5211     C
H       0.6395   0.0861   0.2623     H
H       0.6432   0.6835   0.1277     H
H       0.6433   0.9314   0.6373     H
H       0.6435   0.3493   0.5223     H
C       0.6464   0.8862    0.651     C
C       0.6475    0.959   0.2651     C
H       0.6485    0.624   0.2032     H
N       0.6558    0.706   0.2856     N
O       0.6571   0.4644   0.8994     O
C       0.6683   0.9122   0.3535     C
C       0.6745   0.7733   0.2617     C
H       0.6789   0.0718   0.6762     H
C       0.6793    0.067   0.4175     C
C       0.6799   0.6657    0.191     C
H       0.6868     0.42   0.2187     H
H       0.6899    0.934   0.4194     H
O       0.6906   0.6698   0.7179     O
H       0.6916   0.3411   0.3308     H
H       0.6971   0.8029   0.4174     H
H       0.7025   0.6944   0.3408     H
C       0.7078     0.07   0.6064     C
H       0.7158   0.7771   0.1945     H
H       0.7164    0.982   0.2508     H
H       0.7213   0.7804    0.632     H
O        0.732   0.6021   0.8452     O
C       0.7387   0.8055   0.3503     C
Eu     0.74308  0.54237  0.99612    Eu
N       0.7556   0.8705   0.3214     N
C       0.7566   0.6439   0.7777     C
N       0.7614   0.8678   0.6811     N
H       0.7817    0.981   0.7537     H
H       0.7891   0.3689    0.692     H
C       0.7894   0.8044   0.6454     C
C       0.7924   0.0646   0.4044     C
C       0.8018   0.6595   0.1694     C
H       0.8107   0.7848   0.3608     H
H       0.8117   0.7686   0.7958     H
H       0.8203   0.9351   0.5877     H
C       0.8213   0.0683   0.5927     C
H       0.8218   0.0624   0.3349     H
O       0.8223  0.62222   0.0946     O
H       0.8233   0.4347   0.8299     H
H        0.832   0.8063   0.5788     H
O       0.8362   0.4675   0.0956     O
C       0.8427   0.9134   0.6535     C
C       0.8528   0.9593   0.7437     C
H        0.856    0.086   0.7498     H
H        0.856   0.3206   0.7636     H
H       0.8572   0.3819    0.501     H
C       0.8572   0.7735   0.7315     C
H       0.8618   0.6997   0.6344     H
C       0.8624   0.3499   0.7036     C
C       0.8633   0.0654   0.4905     C
H       0.8647   0.9385   0.3558     H
C       0.8662   0.8931    0.345     C
O       0.8699    0.687   0.2232     O
H       0.8712   0.9372   0.8103     H
C       0.8743   0.6618   0.7785     C
C       0.8837   0.3406   0.5076     C
C       0.8935   0.3147   0.6068     C
H       0.8944   0.6778   0.8496     H
H       0.8944   0.8734   0.4107     H
C       0.8972   0.0693   0.6886     C
N       0.8989   0.7104   0.6965     N
C       0.9017    0.461   0.1735     C
H       0.9024   0.3266    0.349     H
C       0.9048   0.4321   0.8309     C
H       0.9082   0.8952   0.1875     H
O       0.9111   0.4144   0.2301     O
C       0.9115    0.308   0.4168     C
O       0.9137   0.5302   0.9129     O
H       0.9146   0.8931   0.6411     H
H       0.9199   0.6246   0.7646     H
H       0.9207   0.8003   0.7499     H
H       0.9274   0.4081   0.8943     H
C       0.9342   0.2543   0.6141     C
H       0.9345   0.5538   0.2015     H
C       0.9401   0.8772   0.2532     C
H       0.9407   0.0639   0.4799     H
H       0.9414   0.2299   0.2653     H
H       0.9417   0.2354   0.6818     H
H       0.9418   0.8316   0.2445     H
H       0.9435   0.4295   0.6793     H
N       0.9436   0.4005   0.7338     N
N       0.9439   0.0069   0.7185     N
C       0.9526   0.2481   0.4251     C
C       0.9538   0.4973   0.8365     C
H       0.9545   0.1685   0.3352     H
H        0.959    0.098   0.6742     H
C       0.9639   0.2216   0.5246     C
O       0.9742   0.0145   0.2218     O
H       0.9777   0.0222   0.8758     H
C       0.9788   0.5159   0.1895     C
C       0.9809   0.2116   0.3266     C
H       0.9843    0.992   0.6614     H
H       0.9921   0.1807   0.5313     H
