data_I
_chemical_name_common  '/home/zhangsd/repos/MofS-CGCNN/ML/data/TSD/clean_cifs/VAPBIZ_clean'
_cell_length_a 12.18580
_cell_length_b 21.57730
_cell_length_c 12.55870
_cell_angle_alpha 90.00000
_cell_angle_beta  90.40600
_cell_angle_gamma 90.00000
_space_group_name_H-M_alt      'P 1'


loop_
_space_group_symop_operation_xyz
  'x, y, z' 

loop_
_atom_site_label
_atom_site_fract_x
_atom_site_fract_y
_atom_site_fract_z
_atom_site_type_symbol
H       0.0036   0.8186    0.471     H
H       0.0139   0.0066   0.3466     H
C       0.0143   0.7893    0.675     C
H       0.0167   0.9764   0.1312     H
O       0.0204   0.9828   0.7695     O
C        0.026   0.4834   0.8031     C
C       0.0334   0.7782   0.4796     C
H       0.0382   0.8327   0.6649     H
H       0.0447   0.8994   0.3231     H
C       0.0455   0.7532   0.5808     C
C       0.0494   0.5004   0.1681     C
N       0.0516   0.9923   0.2874     N
H       0.0531    0.167   0.7554     H
H       0.0539   0.7726   0.7378     H
C       0.0552   0.1216   0.7445     C
H       0.0577   0.7621   0.3212     H
H       0.0585   0.9338   0.5227     H
H       0.0592     0.57   0.3333     H
N       0.0606   0.5978   0.2769     N
C       0.0649   0.7442   0.3901     C
H       0.0702   0.4457   0.7899     H
H       0.0822   0.1991    0.248     H
H       0.0844   0.1023   0.8104     H
H        0.085   0.1068   0.3586     H
H       0.0864   0.5902   0.1137     H
H       0.0867   0.3738   0.2318     H
O       0.0889   0.4695   0.0909     O
C       0.0893   0.6949   0.5902     C
O       0.0946   0.5847   0.7653     O
H       0.0998   0.6775    0.659     H
H       0.1034   0.1267   0.5863     H
C       0.1035   0.5382   0.8209     C
C       0.1036   0.9303   0.3122     C
C       0.1037   0.5652   0.1778     C
N       0.1058   0.2888   0.3028     N
C       0.1062   0.6856   0.4007     C
H       0.1124   0.3198   0.1485     H
C       0.1183    0.661    0.502     C
H        0.126   0.0621   0.1898     H
O       0.1286   0.3126   0.7759     O
C       0.1308   0.1066   0.6522     C
C       0.1323   0.3366   0.2194     C
H       0.1327   0.0613   0.6402     H
C       0.1356   0.9328   0.5123     C
C       0.1402   0.6502   0.3029     C
H        0.143   0.2993   0.3651     H
H       0.1438    0.679   0.2416     H
C       0.1456   0.0403   0.2566     C
C       0.1459   0.2256   0.2666     C
H       0.1469   0.6204   0.5107     H
H       0.1471   0.9169   0.2501     H
C       0.1561   0.0858   0.3465     C
O       0.1653   0.5327   0.9025     O
H       0.1696   0.1942   0.4201     H
H       0.1771   0.9343   0.6695     H
C       0.1775   0.9309   0.4098     C
H       0.1778   0.0641   0.4128     H
O       0.1782   0.3773   0.9066     O
H       0.1844   0.5606    0.183     H
H       0.1883   0.2152   0.6392     H
H       0.1915   0.2304   0.2022     H
C       0.1975   0.3406    0.831     C
C       0.2062   0.9333   0.5996     C
C       0.2121   0.1953   0.3532     C
H       0.2145   0.6327   0.3145     H
H        0.216   0.0183    0.246     H
N       0.2386   0.1307   0.3179     N
N       0.2413   0.1292   0.6776     N
C       0.2498   0.3552   0.2187     C
Eu     0.25718  0.45812   0.0034    Eu
C       0.2596   0.1941   0.6503     C
O       0.2723    0.399   0.1556     O
H       0.2801   0.2222   0.8062     H
H       0.2805   0.2189   0.3663     H
H        0.281   0.0175   0.7501     H
C       0.2901   0.9286   0.3945     C
H       0.2978   0.3048   0.6598     H
H       0.3018   0.1969   0.5834     H
H       0.3084   0.6574   0.6674     H
H       0.3088   0.0654   0.5805     H
O       0.3127     0.33    0.282     O
H       0.3151   0.5765   0.7771     H
C       0.3169   0.3333   0.8102     C
H       0.3192   0.9261   0.3246     H
C       0.3213   0.9323   0.5848     C
C       0.3225   0.2255   0.7395     C
C       0.3293   0.0875   0.6467     C
N       0.3438   0.2931   0.7157     N
O       0.3445   0.5363    0.098     O
H       0.3491   0.3749   0.7988     H
C       0.3495   0.0408   0.7365     C
H       0.3523   0.3153   0.8743     H
C        0.353   0.1124   0.3492     C
H       0.3551   0.9152   0.7404     H
H        0.356   0.0673   0.3632     H
C       0.3596   0.9299   0.4819     C
H       0.3598    0.648   0.4761     H
H       0.3696   0.0633   0.8024     H
H       0.3748   0.1344   0.4152     H
O       0.3754   0.4776   0.8637     O
C       0.3851   0.6699    0.682     C
H       0.3855   0.6972   0.7454     H
H       0.3934    0.204   0.7505     H
C        0.395   0.5756    0.792     C
C       0.3954   0.9323   0.6788     C
H       0.3971   0.1115   0.6333     H
C       0.4025   0.6845   0.4853     C
H        0.408   0.5959   0.8616     H
H       0.4095   0.1056   0.1967     H
C       0.4107   0.5433   0.1767     C
H       0.4193   0.7038    0.327     H
O       0.4195   0.5907   0.2316     O
H       0.4257   0.1734   0.2469     H
H       0.4264   0.3267   0.4758     H
C       0.4292    0.705   0.5878     C
C         0.43   0.1285   0.2622     C
H       0.4317   0.4518   0.2158     H
C       0.4319   0.5109   0.7977     C
H       0.4366   0.9291   0.4706     H
C       0.4382   0.7175   0.3967     C
N       0.4401   0.9957   0.7088     N
N       0.4554   0.6117    0.705     N
C       0.4571   0.3076   0.6847     C
H       0.4579   0.9043   0.6644     H
H       0.4581   0.5875   0.6437     H
H       0.4621   0.3523   0.6683     H
C        0.471   0.2911   0.4864     C
H       0.4776   0.9766    0.865     H
H       0.4784   0.0114    0.651     H
C       0.4805   0.4872   0.1997     C
C       0.4887   0.7575   0.6011     C
O       0.4909   0.9925   0.2575     O
H       0.4936   0.7992   0.2539     H
H       0.4965   0.2721   0.3289     H
C       0.4978    0.271   0.5892     C
C       0.5022    0.771   0.4108     C
H       0.5035   0.7721   0.6711     H
H       0.5064   0.2992   0.7461     H
O       0.5091   0.4925   0.7425     O
C       0.5113   0.2575   0.3989     C
C       0.5195   0.9872   0.8003     C
H       0.5216   0.5114    0.349     H
H       0.5224   0.4766    0.135     H
C        0.529   0.7911   0.5136     C
H       0.5379   0.8523   0.3317     H
H       0.5419   0.0875   0.3563     H
H       0.5421   0.4043   0.3356     H
C       0.5429   0.8076   0.3153     C
N       0.5446   0.1117    0.295     N
N       0.5599   0.4957   0.2912     N
C       0.5618   0.2175   0.6033     C
H       0.5634   0.4291   0.5294     H
C       0.5681   0.0109   0.2023     C
H       0.5683   0.9518   0.7842     H
C         0.57   0.6285   0.7378     C
C       0.5708    0.205   0.4122     C
H       0.5736   0.8267   0.5242     H
H       0.5743   0.6734   0.7531     H
O       0.5805   0.0907   0.7684     O
H       0.5807   0.2038    0.673     H
C       0.5893   0.0433   0.8233     C
H       0.5905   0.6056   0.8033     H
H        0.592   0.0959   0.1384     H
C       0.5975   0.1845   0.5147     C
H       0.6029   0.6115   0.3667     H
C       0.6046   0.4323   0.3212     C
C        0.605   0.0756    0.208     C
H       0.6066    0.704   0.2495     H
H       0.6145   0.1972   0.2546     H
C       0.6149   0.1699    0.318     C
O       0.6246   0.9776   0.1363     O
H       0.6252   0.6344   0.5848     H
H       0.6304   0.5633   0.1976     H
H       0.6402    0.148   0.5239     H
C       0.6404   0.4299   0.5181     C
H        0.644   0.5673   0.6368     H
H       0.6449   0.4152   0.2596     H
C        0.647   0.6124   0.6508     C
H       0.6477   0.8153   0.1257     H
C       0.6505   0.5408   0.2635     C
H       0.6509   0.8749   0.2012     H
O       0.6555   0.0363    0.902     O
N       0.6562   0.7931   0.2843     N
C       0.6707   0.5875   0.3533     C
C       0.6775   0.7255   0.2605     C
C       0.6787   0.4323   0.4152     C
H       0.6808   0.4261   0.6754     H
C       0.6831   0.8333   0.1898     C
H       0.6849   0.0765   0.2229     H
O       0.6873     0.83    0.718     O
H       0.6912   0.5654   0.4195     H
H       0.6916   0.1574   0.3326     H
H       0.6982   0.6969   0.4166     H
H       0.7022   0.8048   0.3402     H
C       0.7099   0.4286   0.6055     C
H        0.719   0.5175   0.2499     H
H       0.7195   0.7189   0.6337     H
H       0.7199   0.7222   0.1938     H
O       0.7277    0.899   0.8444     O
C       0.7404   0.6941   0.3497     C
Eu     0.74282  0.95812   0.9966    Eu
C       0.7502   0.8552   0.7813     C
N       0.7587   0.6292   0.3224     N
N       0.7614   0.6307   0.6821     N
H        0.784   0.5183    0.754     H
H       0.7855   0.1327   0.6855     H
C       0.7879   0.6953   0.6468     C
C       0.7938   0.4333   0.4004     C
C       0.8025   0.8406    0.169     C
H       0.8085   0.7304   0.7978     H
H       0.8117   0.7152   0.3608     H
H       0.8156   0.0606    0.817     H
O       0.8218   0.8773   0.0934     O
H       0.8222   0.5641   0.5872     H
C       0.8225   0.4309   0.5902     C
H       0.8229   0.4343   0.3305     H
H       0.8304   0.6942   0.5799     H
O       0.8347   0.0327   0.0975     O
C       0.8439   0.5858   0.6535     C
H       0.8529   0.4169   0.7499     H
H       0.8531   0.1204   0.4893     H
C       0.8541   0.7256   0.7334     C
C       0.8544   0.5403   0.7434     C
H       0.8562    0.179   0.7584     H
H        0.857   0.7993   0.6349     H
C       0.8598   0.1502   0.6971     C
C       0.8644   0.4328   0.4877     C
H       0.8673   0.5613   0.3598     H
C       0.8677   0.8366   0.7806     C
C       0.8692   0.6066   0.3478     C
O       0.8714   0.8126   0.2241     O
H        0.874   0.5621   0.8102     H
C       0.8817    0.161    0.498     C
H       0.8876   0.8198   0.8515     H
C       0.8938   0.1856   0.5993     C
N       0.8942   0.7888   0.6972     N
C       0.8963   0.0652   0.8222     C
C       0.8964   0.4303   0.6878     C
C       0.8965   0.0382   0.1791     C
H       0.8966   0.6267   0.4137     H
H       0.9002   0.1775    0.341     H
O       0.9054   0.0847   0.2347     O
C       0.9107   0.1949   0.4098     C
O       0.9111   0.9695   0.9091     O
H       0.9133   0.8738   0.7682     H
H       0.9136   0.0902   0.8863     H
H        0.915   0.6068   0.6414     H
H       0.9156   0.6023   0.1896     H
H       0.9178   0.6991    0.752     H
H       0.9298   0.9457   0.2101     H
C       0.9351   0.2442   0.6099     C
N       0.9394   0.0978   0.7231     N
H       0.9408     0.07   0.6667     H
H       0.9415   0.4338   0.4773     H
H       0.9423   0.2621   0.6788     H
C       0.9448   0.6216   0.2555     C
H       0.9461   0.2726   0.2622     H
H       0.9469    0.667   0.2446     H
N       0.9484   0.4923   0.7126     N
C       0.9506   0.0004   0.8319     C
C       0.9545   0.2532   0.4192     C
H       0.9553   0.3994   0.6769     H
H       0.9618   0.3327   0.3351     H
C       0.9666   0.2782   0.5204     C
C        0.974   0.9834   0.1969     C
O       0.9796   0.4828   0.2305     O
H       0.9833   0.4764   0.8688     H
C       0.9857   0.2893    0.325     C
H       0.9861   0.5066   0.6534     H
H       0.9964   0.3186    0.529     H
