data_I
_chemical_name_common  '/home/zhangsd/repos/MofS-CGCNN/ML/data/TSD/clean_cifs/VASFAZ_clean'
_cell_length_a  6.09900
_cell_length_b 10.50100
_cell_length_c 13.68800
_cell_angle_alpha 72.60700
_cell_angle_beta  88.78900
_cell_angle_gamma 88.98000
_space_group_name_H-M_alt      'P 1'


loop_
_space_group_symop_operation_xyz
  'x, y, z' 

loop_
_atom_site_label
_atom_site_fract_x
_atom_site_fract_y
_atom_site_fract_z
_atom_site_type_symbol
O       0.0015   0.3211   0.9778     O
O       0.0624   0.6976   0.8584     O
N       0.0786   0.8881   0.5751     N
N       0.0898   0.5727   0.5587     N
C       0.1089   0.0517   0.4116     C
C       0.1092    0.657   0.9519     C
C       0.1166    0.471   0.4257     C
O       0.1554   0.3589   0.3011     O
C       0.1867   0.9397   0.4864     C
H       0.1894   0.0853   0.3511     H
C       0.2054   0.5442   0.4844     C
C       0.2475   0.4326   0.3433     C
Ce      0.2514  0.66102  0.70931    Ce
H       0.2971   0.5319   0.1312     H
C       0.3174   0.5738   0.9777     C
H        0.349   0.5738   0.4714     H
C       0.3826   0.5177   0.0783     C
C       0.3993   0.8687   0.4731     C
N       0.4344   0.5563   0.8995     N
O        0.439   0.4774   0.3251     O
O       0.4542   0.7716   0.5471     O
O       0.4974   0.0894   0.6097     O
O       0.5026   0.9106   0.3903     O
O       0.5458   0.2284   0.4529     O
O        0.561   0.5226   0.6749     O
N       0.5656   0.4437   0.1005     N
C       0.6007   0.1313   0.5269     C
C       0.6174   0.4823   0.9217     C
H        0.651   0.4262   0.5286     H
C       0.6826   0.4262   0.0223     C
H       0.7029   0.4681   0.8688     H
Ce      0.7486  0.33898  0.29069    Ce
C       0.7525   0.5674   0.6567     C
C       0.7946   0.4558   0.5156     C
H       0.8106   0.9147   0.6489     H
C       0.8133   0.0603   0.5136     C
O       0.8446   0.6411   0.6989     O
C       0.8834    0.529   0.5743     C
C       0.8908    0.343   0.0481     C
C       0.8911   0.9483   0.5884     C
N       0.9102   0.4273   0.4413     N
N       0.9214   0.1119   0.4249     N
O       0.9376   0.3024   0.1416     O
O       0.9985   0.6789   0.0222     O
