data_I
_chemical_name_common  '/home/zhangsd/repos/MofS-CGCNN/ML/data/TSD/clean_cifs/VAYDOQ_clean'
_cell_length_a  7.52030
_cell_length_b 13.55200
_cell_length_c 15.62300
_cell_angle_alpha 90.00000
_cell_angle_beta  90.00000
_cell_angle_gamma 90.00000
_space_group_name_H-M_alt      'P 1'


loop_
_space_group_symop_operation_xyz
  'x, y, z' 

loop_
_atom_site_label
_atom_site_fract_x
_atom_site_fract_y
_atom_site_fract_z
_atom_site_type_symbol
O      0.00428   0.1817  0.53564     O
O      0.00428   0.1817  0.96436     O
H       0.0138   0.9003     0.75     H
Li      0.0221   0.1755  0.08893    Li
Li      0.0221   0.1755  0.41107    Li
O      0.02835  0.03376  0.09667     O
O      0.02835  0.03376  0.40333     O
C       0.0303   0.0356     0.25     C
H       0.0318   0.5864   0.5646     H
H       0.0318   0.5864   0.9354     H
C       0.0619  0.98969  0.17076     C
C       0.0619  0.98969  0.32924     C
C       0.1313  0.89201  0.17312     C
C       0.1313  0.89201  0.32688     C
O       0.1337  0.57169  0.57818     O
O       0.1337  0.57169  0.92182     O
H       0.1622   0.5219   0.5517     H
H       0.1622   0.5219   0.9483     H
Li      0.1628   0.0182   0.5171    Li
Li      0.1628   0.0182   0.9829    Li
C       0.1657  0.84511     0.25     C
S        0.168   0.8297  0.07763     S
S        0.168   0.8297  0.42237     S
H        0.212   0.7815     0.25     H
O      0.21291  0.38948   0.0244     O
O      0.21291  0.38948   0.4756     O
O      0.24536  0.73446   0.1007     O
O      0.24536  0.73446   0.3993     O
O      0.25464  0.23446   0.1007     O
O      0.25464  0.23446   0.3993     O
O      0.28709  0.88948   0.0244     O
O      0.28709  0.88948   0.4756     O
H        0.288   0.2815     0.25     H
S        0.332   0.3297  0.07763     S
S        0.332   0.3297  0.42237     S
C       0.3343  0.34511     0.25     C
Li      0.3372   0.5182   0.5171    Li
Li      0.3372   0.5182   0.9829    Li
H       0.3378   0.0219   0.5517     H
H       0.3378   0.0219   0.9483     H
O       0.3663  0.07169  0.57818     O
O       0.3663  0.07169  0.92182     O
C       0.3687  0.39201  0.17312     C
C       0.3687  0.39201  0.32688     C
C       0.4381  0.48969  0.17076     C
C       0.4381  0.48969  0.32924     C
H       0.4682   0.0864   0.5646     H
H       0.4682   0.0864   0.9354     H
C       0.4697   0.5356     0.25     C
O      0.47165  0.53376  0.09667     O
O      0.47165  0.53376  0.40333     O
Li      0.4779   0.6755  0.08893    Li
Li      0.4779   0.6755  0.41107    Li
H       0.4862   0.4003     0.75     H
O      0.49572   0.6817  0.53564     O
O      0.49572   0.6817  0.96436     O
O      0.50428   0.3183  0.03564     O
O      0.50428   0.3183  0.46436     O
H       0.5138   0.5997     0.25     H
Li      0.5221   0.3245  0.58893    Li
Li      0.5221   0.3245  0.91107    Li
O      0.52835  0.46624  0.59667     O
O      0.52835  0.46624  0.90333     O
C       0.5303   0.4644     0.75     C
H       0.5318   0.9136   0.0646     H
H       0.5318   0.9136   0.4354     H
C       0.5619  0.51031  0.67076     C
C       0.5619  0.51031  0.82924     C
C       0.6313  0.60799  0.67312     C
C       0.6313  0.60799  0.82688     C
O       0.6337  0.92831  0.07818     O
O       0.6337  0.92831  0.42182     O
H       0.6622   0.9781   0.0517     H
H       0.6622   0.9781   0.4483     H
Li      0.6628   0.4818   0.0171    Li
Li      0.6628   0.4818   0.4829    Li
C       0.6657  0.65489     0.75     C
S        0.668   0.6703  0.57763     S
S        0.668   0.6703  0.92237     S
H        0.712   0.7185     0.75     H
O      0.71291  0.11052   0.5244     O
O      0.71291  0.11052   0.9756     O
O      0.74536  0.76554   0.6007     O
O      0.74536  0.76554   0.8993     O
O      0.75464  0.26554   0.6007     O
O      0.75464  0.26554   0.8993     O
O      0.78709  0.61052   0.5244     O
O      0.78709  0.61052   0.9756     O
H        0.788   0.2185     0.75     H
S        0.832   0.1703  0.57763     S
S        0.832   0.1703  0.92237     S
C       0.8343  0.15489     0.75     C
Li      0.8372   0.9818   0.0171    Li
Li      0.8372   0.9818   0.4829    Li
H       0.8378   0.4781   0.0517     H
H       0.8378   0.4781   0.4483     H
O       0.8663  0.42831  0.07818     O
O       0.8663  0.42831  0.42182     O
C       0.8687  0.10799  0.67312     C
C       0.8687  0.10799  0.82688     C
C       0.9381  0.01031  0.67076     C
C       0.9381  0.01031  0.82924     C
H       0.9682   0.4136   0.0646     H
H       0.9682   0.4136   0.4354     H
C       0.9697   0.9644     0.75     C
O      0.97165  0.96624  0.59667     O
O      0.97165  0.96624  0.90333     O
Li      0.9779   0.8245  0.58893    Li
Li      0.9779   0.8245  0.91107    Li
H       0.9862   0.0997     0.25     H
O      0.99572   0.8183  0.03564     O
O      0.99572   0.8183  0.46436     O
