data_I
_chemical_name_common  '/home/zhangsd/repos/MofS-CGCNN/ML/data/TSD/clean_cifs/VAYWEZ_clean'
_cell_length_a 13.11900
_cell_length_b 22.80900
_cell_length_c 11.84000
_cell_angle_alpha 90.00000
_cell_angle_beta  91.94600
_cell_angle_gamma 90.00000
_space_group_name_H-M_alt      'P 1'


loop_
_space_group_symop_operation_xyz
  'x, y, z' 

loop_
_atom_site_label
_atom_site_fract_x
_atom_site_fract_y
_atom_site_fract_z
_atom_site_type_symbol
N       0.0094   0.1698   0.5068     N
N       0.0094   0.3302   0.0068     N
H       0.0362    0.085   0.5429     H
H       0.0362    0.415   0.0429     H
H       0.0488   0.2435   0.4286     H
H       0.0488   0.2565   0.9286     H
C       0.0575    0.119   0.5071     C
C       0.0575    0.381   0.0071     C
C       0.0665   0.2048   0.4449     C
C       0.0665   0.2952   0.9449     C
Ag     0.11671  0.70169  0.89026    Ag
Ag     0.11671  0.79831  0.39026    Ag
H       0.1257   0.7007    0.615     H
H       0.1257   0.7993    0.115     H
N       0.1416   0.1241   0.4479     N
N       0.1416   0.3759   0.9479     N
N       0.1495   0.1804   0.4088     N
N       0.1495   0.3196   0.9088     N
C       0.1695   0.7304   0.6397     C
C       0.1695   0.7696   0.1397     C
H       0.1908   0.0416   0.4398     H
H       0.1908   0.4584   0.9398     H
N       0.1961   0.7379   0.7476     N
N       0.1961   0.7621   0.2476     N
N       0.2096    0.732   0.0702     N
N       0.2096    0.768   0.5702     N
C       0.2208   0.0804    0.438     C
C       0.2208   0.4196    0.938     C
Ag     0.24028   0.2133  0.27507    Ag
Ag     0.24028   0.2867  0.77507    Ag
H       0.2534   0.0851   0.3663     H
H       0.2534   0.4149   0.8663     H
C       0.2543   0.7143   0.2449     C
C       0.2543   0.7857   0.7449     C
N       0.2625   0.6959   0.1394     N
N       0.2625   0.8041   0.6394     N
H       0.2675   0.0991   0.6031     H
H       0.2675   0.4009   0.1031     H
H       0.2845   0.6319   0.0299     H
H       0.2845   0.8681   0.5299     H
H       0.2848   0.6963    0.308     H
H       0.2848   0.8037    0.808     H
H       0.2873   0.2018   0.0062     H
H       0.2873   0.2982   0.5062     H
C       0.3009   0.0866   0.5354     C
C       0.3009   0.4134   0.0354     C
H       0.3073   0.5004   0.0683     H
H       0.3073   0.9996   0.5683     H
C       0.3203   0.6477   0.0961     C
C       0.3203   0.8523   0.5961     C
H       0.3249    0.617   0.1527     H
H       0.3249    0.883   0.6527     H
H        0.335   0.0144   0.7923     H
H        0.335   0.4856   0.2923     H
C       0.3412   0.2229   0.0392     C
C       0.3412   0.2771   0.5392     C
N       0.3441   0.2372   0.1486     N
N       0.3441   0.2628   0.6486     N
H       0.3497   0.1167   0.5162     H
H       0.3497   0.3833   0.0162     H
C       0.3551   0.0314    0.558     C
C       0.3551   0.4686    0.058     C
H       0.3788   0.5567   0.7172     H
H       0.3788   0.9433   0.2172     H
H       0.3814   0.7389   0.9827     H
H       0.3814   0.7611   0.4827     H
C       0.3977   0.0266   0.7664     C
C       0.3977   0.4734   0.2664     C
H       0.3986   0.0216   0.4962     H
H       0.3986   0.4784   0.9962     H
H       0.3995   0.6863    0.901     H
H       0.3995   0.8137    0.401     H
N       0.4166    0.042    0.663     N
N       0.4166    0.458    0.163     N
N       0.4193   0.2405   0.9807     N
N       0.4193   0.2595   0.4807     N
C       0.4274   0.7068   0.9669     C
C       0.4274   0.7932   0.4669     C
C       0.4283   0.6658   0.0642     C
C       0.4283   0.8342   0.5642     C
C       0.4301   0.2342   0.6595     C
C       0.4301   0.2658   0.1595     C
C       0.4465   0.5496   0.7388     C
C       0.4465   0.9504   0.2388     C
H       0.4558   0.2182   0.7269     H
H       0.4558   0.2818   0.2269     H
H       0.4624   0.6844   0.1287     H
H       0.4624   0.8156   0.6287     H
H       0.4668   0.6311   0.0455     H
H       0.4668   0.8689   0.5455     H
N       0.4759   0.2311   0.5611     N
N       0.4759   0.2689   0.0611     N
N       0.4823   0.0313   0.8272     N
N       0.4823   0.4687   0.3272     N
N       0.4871   0.5563   0.8402     N
N       0.4871   0.9437   0.3402     N
Ag         0.5      0.0      0.0    Ag
Ag         0.5      0.5      0.5    Ag
N       0.5129   0.0563   0.6598     N
N       0.5129   0.4437   0.1598     N
N       0.5177   0.5313   0.6728     N
N       0.5177   0.9687   0.1728     N
N       0.5241   0.7311   0.9389     N
N       0.5241   0.7689   0.4389     N
H       0.5332   0.1311   0.4545     H
H       0.5332   0.3689   0.9545     H
H       0.5376   0.1844   0.3713     H
H       0.5376   0.3156   0.8713     H
H       0.5442   0.7182   0.7731     H
H       0.5442   0.7818   0.2731     H
C       0.5535   0.0496   0.7612     C
C       0.5535   0.4504   0.2612     C
C       0.5699   0.7342   0.8405     C
C       0.5699   0.7658   0.3405     C
C       0.5717   0.1658   0.4358     C
C       0.5717   0.3342   0.9358     C
C       0.5726   0.2068   0.5331     C
C       0.5726   0.2932   0.0331     C
N       0.5807   0.7405   0.5193     N
N       0.5807   0.7595   0.0193     N
N       0.5834    0.542    0.837     N
N       0.5834    0.958    0.337     N
H       0.6005   0.1863    0.599     H
H       0.6005   0.3137    0.099     H
H       0.6014   0.5216   0.0038     H
H       0.6014   0.9784   0.5038     H
C       0.6023   0.5266   0.7336     C
C       0.6023   0.9734   0.2336     C
H       0.6186   0.2389   0.5173     H
H       0.6186   0.2611   0.0173     H
H       0.6212   0.0567   0.7828     H
H       0.6212   0.4433   0.2828     H
C       0.6449   0.5314    0.942     C
C       0.6449   0.9686    0.442     C
H       0.6503   0.6167   0.9838     H
H       0.6503   0.8833   0.4838     H
N       0.6559   0.7372   0.3514     N
N       0.6559   0.7628   0.8514     N
C       0.6588   0.7229   0.4608     C
C       0.6588   0.7771   0.9608     C
H        0.665   0.5144   0.7077     H
H        0.665   0.9856   0.2077     H
H       0.6751    0.117   0.3473     H
H       0.6751    0.383   0.8473     H
C       0.6797   0.1477   0.4039     C
C       0.6797   0.3523   0.9039     C
H       0.6927   0.0004   0.4317     H
H       0.6927   0.4996   0.9317     H
C       0.6991   0.5866   0.9646     C
C       0.6991   0.9134   0.4646     C
H       0.7127   0.7018   0.4938     H
H       0.7127   0.7982   0.9938     H
H       0.7152   0.1963    0.192     H
H       0.7152   0.3037    0.692     H
H       0.7155   0.1319   0.4701     H
H       0.7155   0.3681   0.9701     H
H       0.7325   0.5991   0.8969     H
H       0.7325   0.9009   0.3969     H
N       0.7375   0.1959   0.3606     N
N       0.7375   0.3041   0.8606     N
C       0.7457   0.2143   0.2551     C
C       0.7457   0.2857   0.7551     C
H       0.7466   0.5851   0.1337     H
H       0.7466   0.9149   0.6337     H
Ag     0.75972   0.7133  0.22493    Ag
Ag     0.75972   0.7867  0.72493    Ag
C       0.7792   0.5804    0.062     C
C       0.7792   0.9196    0.562     C
N       0.7904    0.232   0.4298     N
N       0.7904    0.268   0.9298     N
N       0.8039   0.2379   0.7524     N
N       0.8039   0.2621   0.2524     N
H       0.8092   0.5416   0.0602     H
H       0.8092   0.9584   0.5602     H
C       0.8305   0.2304   0.8603     C
C       0.8305   0.2696   0.3603     C
N       0.8505   0.6804   0.0912     N
N       0.8505   0.8196   0.5912     N
N       0.8584   0.6241   0.0521     N
N       0.8584   0.8759   0.5521     N
H       0.8743   0.2007    0.885     H
H       0.8743   0.2993    0.385     H
Ag     0.88329  0.20169  0.60974    Ag
Ag     0.88329  0.29831  0.10974    Ag
C       0.9335   0.7048   0.0551     C
C       0.9335   0.7952   0.5551     C
C       0.9425    0.619   0.9929     C
C       0.9425    0.881   0.4929     C
H       0.9512   0.7435   0.0714     H
H       0.9512   0.7565   0.5714     H
H       0.9638    0.585   0.9571     H
H       0.9638    0.915   0.4571     H
N       0.9906   0.6698   0.9932     N
N       0.9906   0.8302   0.4932     N
