data_I
_chemical_name_common  '/home/zhangsd/repos/MofS-CGCNN/ML/data/TSD/clean_cifs/VEDGAO_clean'
_cell_length_a 11.26900
_cell_length_b 13.38200
_cell_length_c 25.59200
_cell_angle_alpha 90.00000
_cell_angle_beta  90.00000
_cell_angle_gamma 90.00000
_space_group_name_H-M_alt      'P 1'


loop_
_space_group_symop_operation_xyz
  'x, y, z' 

loop_
_atom_site_label
_atom_site_fract_x
_atom_site_fract_y
_atom_site_fract_z
_atom_site_type_symbol
H       0.0034    0.186   0.1678     H
C       0.0142    0.034  0.16009     C
C        0.017    0.764  0.69783     C
H       0.0218   0.3852   0.3416     H
C       0.0225  0.13447  0.67211     C
C       0.0271   0.2123  0.71512     C
C       0.0304   0.6957  0.73831     C
H       0.0311   0.6139   0.5033     H
O      0.03282  0.06269   0.5259     O
C       0.0419   0.6266  0.33642     C
H       0.0439   0.6471   0.0595     H
O      0.04476  0.56183  0.81889     O
N      0.04818  0.34664  0.79716     N
C       0.0531   0.1104   0.9951     C
O      0.05366  0.76764  0.56125     O
H       0.0556   0.7514   0.6655     H
C       0.0564   0.2598   0.9344     C
C       0.0569   0.4498  0.34143     C
H       0.0697   0.9943   0.0449     H
C       0.0748  0.57516   0.9613     C
H       0.0788   0.6382   0.7338     H
Co      0.0829  0.44008  0.86345    Co
O      0.08461  0.15008  0.63236     O
C       0.0932  0.29894  0.70903     C
C       0.1005   0.3645  0.75099     C
O      0.10105  0.92669  0.61307     O
C       0.1077   0.6801  0.04249     C
H       0.1082   0.8713   0.5876     H
C       0.1139   0.0395  0.02387     C
C       0.1165   0.1769  0.96368     C
O      0.12286  0.31428  0.90667     O
H       0.1229   0.9138   0.4905     H
O      0.13003  0.53362   0.9253     O
H       0.1324   0.3131    0.677     H
C       0.1417   0.6526  0.99291     C
H       0.1444   0.4245   0.7468     H
H       0.1468   0.7729   0.1022     H
C       0.1476   0.0284  0.15433     C
H       0.1483   0.1876    0.482     H
H       0.1493   0.9091   0.6441     H
C       0.1653   0.6311  0.33925     C
C       0.1682   0.7569  0.06728     C
Co     0.17142  0.05968  0.57886    Co
C        0.179   0.4596  0.34273     C
O      0.18534  0.95151  0.13086     O
H       0.2027   0.6947   0.3386     H
C       0.2068   0.9068    0.492     C
O      0.20809  0.09881  0.17133     O
H       0.2123   0.7915     0.44     H
C       0.2133   0.2209    0.498     C
H       0.2265    0.401   0.3436     H
N      0.23277  0.03176  0.02337     N
N      0.23297  0.54963  0.34279     N
C       0.2345   0.7048  0.97112     C
H       0.2382   0.3117   0.4371     H
C        0.241   0.1663  0.96164     C
N       0.2458  0.19088  0.54497     N
N       0.2542  0.80912  0.04497     N
C        0.259   0.8337  0.46164     C
H       0.2618   0.6883   0.9371     H
C       0.2655   0.2952  0.47112     C
N      0.26703  0.45037  0.84279     N
N      0.26723  0.96824  0.52337     N
H       0.2735    0.599   0.8436     H
C       0.2867   0.7791    0.998     C
H       0.2877   0.2085     0.94     H
O      0.29191  0.90119  0.67133     O
C       0.2932   0.0932    0.992     C
H       0.2973   0.3053   0.8386     H
O      0.31466  0.04849  0.63086     O
C        0.321   0.5404  0.84273     C
Co     0.32858  0.94032  0.07886    Co
C       0.3318   0.2431  0.56728     C
C       0.3347   0.3689  0.83925     C
H       0.3507   0.0909   0.1441     H
H       0.3517   0.8124    0.982     H
C       0.3524   0.9716  0.65433     C
H       0.3532   0.2271   0.6022     H
H       0.3556   0.5755   0.2468     H
C       0.3583   0.3474  0.49291     C
H       0.3676   0.6869    0.177     H
O      0.36997  0.46638   0.4253     O
H       0.3771   0.0862   0.9905     H
O      0.37714  0.68572  0.40667     O
C       0.3835   0.8231  0.46368     C
C       0.3861   0.9605  0.52387     C
H       0.3918   0.1287   0.0876     H
C       0.3923   0.3199  0.54249     C
O      0.39895  0.07331  0.11307     O
C       0.3995   0.6355  0.25099     C
C       0.4068  0.70106  0.20903     C
O      0.41539  0.84992  0.13236     O
Co      0.4171  0.55992  0.36345    Co
H       0.4212   0.3618   0.2338     H
C       0.4252  0.42484   0.4613     C
H       0.4303   0.0057   0.5449     H
C       0.4431   0.5502  0.84143     C
C       0.4436   0.7402   0.4344     C
H       0.4444   0.2486   0.1655     H
O      0.44634  0.23236  0.06125     O
C       0.4469   0.8896   0.4951     C
N      0.45182  0.65336  0.29716     N
O      0.45524  0.43817  0.31889     O
H       0.4561   0.3529   0.5595     H
C       0.4581   0.3734  0.83642     C
O      0.46718  0.93731   0.0259     O
H       0.4689   0.3861   0.0033     H
C       0.4696   0.3043  0.23831     C
C       0.4729   0.7877  0.21512     C
C       0.4775  0.86553  0.17211     C
H       0.4782   0.6148   0.8416     H
C        0.483    0.236  0.19783     C
C       0.4858    0.966  0.66009     C
H       0.4966    0.814   0.6678     H
H       0.5034    0.314   0.8322     H
C       0.5142    0.466  0.83991     C
C        0.517    0.736  0.30217     C
H       0.5218   0.1148   0.6584     H
C       0.5225  0.36553  0.32789     C
C       0.5271   0.2877  0.28488     C
C       0.5304   0.8043  0.26169     C
H       0.5311   0.8861   0.4967     H
O      0.53282  0.43731   0.4741     O
C       0.5419   0.8734  0.66358     C
H       0.5439   0.8529   0.9405     H
O      0.54476  0.93817  0.18111     O
N      0.54818  0.15336  0.20284     N
C       0.5531   0.3896   0.0049     C
O      0.55366  0.73236  0.43875     O
H       0.5556   0.7486   0.3345     H
C       0.5564   0.2402   0.0656     C
C       0.5569   0.0502  0.65857     C
H       0.5697   0.5057   0.9551     H
C       0.5748  0.92484   0.0387     C
H       0.5788   0.8618   0.2662     H
Co      0.5829  0.05992  0.13655    Co
O      0.58461  0.34992  0.36764     O
C       0.5932  0.20106  0.29097     C
C       0.6005   0.1355  0.24901     C
O      0.60105  0.57331  0.38693     O
C       0.6077   0.8199  0.95751     C
H       0.6082   0.6287   0.4124     H
C       0.6139   0.4605  0.97613     C
C       0.6165   0.3231  0.03632     C
O      0.62286  0.18572  0.09333     O
H       0.6229   0.5862   0.5095     H
O      0.63003  0.96638   0.0747     O
H       0.6324   0.1869    0.323     H
C       0.6417   0.8474  0.00709     C
H       0.6444   0.0755   0.2532     H
H       0.6468   0.7271   0.8978     H
C       0.6476   0.4716  0.84567     C
H       0.6483   0.3124    0.518     H
H       0.6493   0.5909   0.3559     H
C       0.6653   0.8689  0.66075     C
C       0.6682   0.7431  0.93272     C
Co     0.67142  0.44032  0.42114    Co
C        0.679   0.0404  0.65727     C
O      0.68534  0.54849  0.86914     O
H       0.7027   0.8053   0.6614     H
C       0.7068   0.5932    0.508     C
O      0.70809  0.40119  0.82867     O
H       0.7123   0.7085     0.56     H
C       0.7133   0.2791    0.502     C
H       0.7265    0.099   0.6564     H
N      0.73277  0.46824  0.97663     N
N      0.73297  0.95037  0.65721     N
C       0.7345   0.7952  0.02888     C
H       0.7382   0.1883   0.5629     H
C        0.741   0.3337  0.03836     C
N       0.7458  0.30912  0.45503     N
N       0.7542  0.69088  0.95503     N
C        0.759   0.6663  0.53836     C
H       0.7618   0.8117   0.0629     H
C       0.7655   0.2048  0.52888     C
N      0.76703  0.04963  0.15721     N
N      0.76723  0.53176  0.47663     N
H       0.7735    0.901   0.1564     H
C       0.7867   0.7209    0.002     C
H       0.7877   0.2915     0.06     H
O      0.79191  0.59881  0.32867     O
C       0.7932   0.4068    0.008     C
H       0.7973   0.1947   0.1614     H
O      0.81466  0.45151  0.36914     O
C        0.821   0.9596  0.15727     C
Co     0.82858  0.55968  0.92114    Co
C       0.8318   0.2569  0.43272     C
C       0.8347   0.1311  0.16075     C
H       0.8507   0.4091   0.8559     H
H       0.8517   0.6876    0.018     H
C       0.8524   0.5284  0.34567     C
H       0.8532   0.2729   0.3978     H
H       0.8556   0.9245   0.7532     H
C       0.8583   0.1526  0.50709     C
H       0.8676   0.8131    0.823     H
O      0.86997  0.03362   0.5747     O
H       0.8771   0.4138   0.0095     H
O      0.87714  0.81428  0.59333     O
C       0.8835   0.6769  0.53632     C
C       0.8861   0.5395  0.47613     C
H       0.8918   0.3713   0.9124     H
C       0.8923   0.1801  0.45751     C
O      0.89895  0.42669  0.88693     O
C       0.8995   0.8645  0.74901     C
C       0.9068  0.79894  0.79097     C
O      0.91539  0.65008  0.86764     O
Co      0.9171  0.94008  0.63655    Co
H       0.9212   0.1382   0.7662     H
C       0.9252  0.07516   0.5387     C
H       0.9303   0.4943   0.4551     H
C       0.9431   0.9498  0.15857     C
C       0.9436   0.7598   0.5656     C
H       0.9444   0.2514   0.8345     H
O      0.94634  0.26764  0.93875     O
C       0.9469   0.6104   0.5049     C
N      0.95182  0.84664  0.70284     N
O      0.95524  0.06183  0.68111     O
H       0.9561   0.1471   0.4405     H
C       0.9581   0.1266  0.16358     C
O      0.96718  0.56269   0.9741     O
H       0.9689   0.1139   0.9967     H
C       0.9696   0.1957  0.76169     C
C       0.9729   0.7123  0.78488     C
C       0.9775  0.63447  0.82789     C
H       0.9782   0.8852   0.1584     H
C        0.983    0.264  0.80217     C
C       0.9858    0.534  0.33991     C
H       0.9966    0.686   0.3322     H
