data_I
_chemical_name_common  '/home/zhangsd/repos/MofS-CGCNN/ML/data/TSD/clean_cifs/VEHJID01_clean'
_cell_length_a 12.95950
_cell_length_b 14.73410
_cell_length_c 15.35710
_cell_angle_alpha 90.00000
_cell_angle_beta  90.00000
_cell_angle_gamma 90.00000
_space_group_name_H-M_alt      'P 1'


loop_
_space_group_symop_operation_xyz
  'x, y, z' 

loop_
_atom_site_label
_atom_site_fract_x
_atom_site_fract_y
_atom_site_fract_z
_atom_site_type_symbol
Zn     0.01788  0.97247    0.547    Zn
C       0.0351   0.3098   0.8617     C
H       0.0377   0.1815   0.7385     H
O       0.0421   0.8177   0.6875     O
O       0.0575    0.046   0.6464     O
O       0.0616   0.3665   0.9198     O
C       0.0881   0.1691   0.7799     C
C       0.1022   0.2277   0.8521     C
O       0.1301   0.9635    0.462     O
C       0.1342   0.0304   0.6945     C
C         0.15   0.0932   0.7715     C
O       0.1684   0.8358   0.5323     O
C       0.1761   0.2076   0.9137     C
C       0.1825   0.8914   0.4727     C
H       0.1854   0.2462    0.961     H
O       0.1957   0.9684   0.6841     O
Zn     0.20186  0.82856  0.66545    Zn
C       0.2224   0.0727   0.8326     C
H       0.2377   0.9793   0.3261     H
C        0.238   0.1291   0.9057     C
C        0.262   0.8709   0.4057     C
H       0.2623   0.0207   0.8261     H
C       0.2776   0.9273   0.3326     C
Zn     0.29814  0.17144  0.16545    Zn
O       0.3043   0.0316   0.1841     O
H       0.3146   0.7538    0.461     H
C       0.3175   0.1086   0.9727     C
C       0.3239   0.7924   0.4137     C
O       0.3316   0.1642   0.0323     O
C         0.35   0.9068   0.2715     C
C       0.3658   0.9696   0.1945     C
O       0.3699   0.0365    0.962     O
C       0.3978   0.7723   0.3521     C
C       0.4119   0.8309   0.2799     C
O       0.4384   0.6335   0.4198     O
O       0.4425    0.954   0.1464     O
O       0.4579   0.1823   0.1875     O
H       0.4623   0.8185   0.2385     H
C       0.4649   0.6902   0.3617     C
Zn     0.48212  0.02753    0.047    Zn
Zn     0.51788  0.52753    0.453    Zn
C       0.5351   0.1902   0.1383     C
H       0.5377   0.3185   0.2615     H
O       0.5421   0.6823   0.3125     O
O       0.5575    0.454   0.3536     O
O       0.5616   0.1335   0.0802     O
C       0.5881   0.3309   0.2201     C
C       0.6022   0.2723   0.1479     C
O       0.6301   0.5365    0.538     O
C       0.6342   0.4696   0.3055     C
C         0.65   0.4068   0.2285     C
O       0.6684   0.6642   0.4677     O
C       0.6761   0.2924   0.0863     C
C       0.6825   0.6086   0.5273     C
H       0.6854   0.2538    0.039     H
O       0.6957   0.5316   0.3159     O
Zn     0.70186  0.67144  0.33455    Zn
C       0.7224   0.4273   0.1674     C
H       0.7377   0.5207   0.6739     H
C        0.738   0.3709   0.0943     C
C        0.762   0.6291   0.5943     C
H       0.7623   0.4793   0.1739     H
C       0.7776   0.5727   0.6674     C
Zn     0.79814  0.32856  0.83455    Zn
O       0.8043   0.4684   0.8159     O
H       0.8146   0.7462    0.539     H
C       0.8175   0.3914   0.0273     C
C       0.8239   0.7076   0.5863     C
O       0.8316   0.3358   0.9677     O
C         0.85   0.5932   0.7285     C
C       0.8658   0.5304   0.8055     C
O       0.8699   0.4635    0.038     O
C       0.8978   0.7277   0.6479     C
C       0.9119   0.6691   0.7201     C
O       0.9384   0.8665   0.5802     O
O       0.9425    0.546   0.8536     O
O       0.9579   0.3177   0.8125     O
H       0.9623   0.6815   0.7615     H
C       0.9649   0.8098   0.6383     C
Zn     0.98212  0.47247    0.953    Zn
