data_I
_chemical_name_common  '/home/zhangsd/repos/MofS-CGCNN/ML/data/TSD/clean_cifs/VEHJUP_clean'
_cell_length_a 20.61550
_cell_length_b 20.61550
_cell_length_c 20.61550
_cell_angle_alpha 90.00000
_cell_angle_beta  90.00000
_cell_angle_gamma 90.00000
_space_group_name_H-M_alt      'P 1'


loop_
_space_group_symop_operation_xyz
  'x, y, z' 

loop_
_atom_site_label
_atom_site_fract_x
_atom_site_fract_y
_atom_site_fract_z
_atom_site_type_symbol
Zn         0.0      0.0  0.42776    Zn
Zn         0.0      0.0  0.57224    Zn
Zn         0.0  0.42776      0.0    Zn
Zn         0.0  0.57224      0.0    Zn
O       0.0689   0.0689   0.4458     O
O       0.0689   0.0689   0.5542     O
O       0.0689   0.4458   0.0689     O
O       0.0689   0.4458   0.9311     O
O       0.0689   0.5542   0.0689     O
O       0.0689   0.5542   0.9311     O
O       0.0689   0.9311   0.4458     O
O       0.0689   0.9311   0.5542     O
C       0.0894   0.0894      0.5     C
C       0.0894      0.5   0.0894     C
C       0.0894      0.5   0.9106     C
C       0.0894   0.9106      0.5     C
C         0.14     0.14      0.5     C
C         0.14      0.5     0.14     C
C         0.14      0.5     0.86     C
C         0.14     0.86      0.5     C
H       0.1481   0.1481   0.4022     H
H       0.1481   0.1481   0.5978     H
H       0.1481   0.4022   0.1481     H
H       0.1481   0.4022   0.8519     H
H       0.1481   0.5978   0.1481     H
H       0.1481   0.5978   0.8519     H
H       0.1481   0.8519   0.4022     H
H       0.1481   0.8519   0.5978     H
C       0.1638   0.1638   0.4415     C
C       0.1638   0.1638   0.5585     C
C       0.1638   0.4415   0.1638     C
C       0.1638   0.4415   0.8362     C
C       0.1638   0.5585   0.1638     C
C       0.1638   0.5585   0.8362     C
C       0.1638   0.8362   0.4415     C
C       0.1638   0.8362   0.5585     C
C       0.2103   0.2103   0.4427     C
C       0.2103   0.2103   0.5573     C
C       0.2103   0.4427   0.2103     C
C       0.2103   0.4427   0.7897     C
C       0.2103   0.5573   0.2103     C
C       0.2103   0.5573   0.7897     C
C       0.2103   0.7897   0.4427     C
C       0.2103   0.7897   0.5573     C
O       0.2157   0.2157   0.3279     O
O       0.2157   0.2157   0.6721     O
O       0.2157   0.3279   0.2157     O
O       0.2157   0.3279   0.7843     O
O       0.2157   0.6721   0.2157     O
O       0.2157   0.6721   0.7843     O
O       0.2157   0.7843   0.3279     O
O       0.2157   0.7843   0.6721     O
C       0.2339   0.2339      0.5     C
C       0.2339      0.5   0.2339     C
C       0.2339      0.5   0.7661     C
C       0.2339   0.7661      0.5     C
Zn     0.23888  0.23888  0.23888    Zn
Zn     0.23888  0.23888  0.76112    Zn
Zn     0.23888  0.76112  0.23888    Zn
Zn     0.23888  0.76112  0.76112    Zn
C       0.2394   0.2394   0.3801     C
C       0.2394   0.2394   0.6199     C
C       0.2394   0.3801   0.2394     C
C       0.2394   0.3801   0.7606     C
C       0.2394   0.6199   0.2394     C
C       0.2394   0.6199   0.7606     C
C       0.2394   0.7606   0.3801     C
C       0.2394   0.7606   0.6199     C
H       0.2658   0.2658      0.5     H
H       0.2658      0.5   0.2658     H
H       0.2658      0.5   0.7342     H
H       0.2658   0.7342      0.5     H
O       0.2832   0.2832   0.3868     O
O       0.2832   0.2832   0.6132     O
O       0.2832   0.3868   0.2832     O
O       0.2832   0.3868   0.7168     O
O       0.2832   0.6132   0.2832     O
O       0.2832   0.6132   0.7168     O
O       0.2832   0.7168   0.3868     O
O       0.2832   0.7168   0.6132     O
O       0.3279   0.2157   0.2157     O
O       0.3279   0.2157   0.7843     O
O       0.3279   0.7843   0.2157     O
O       0.3279   0.7843   0.7843     O
Zn     0.33549  0.33549  0.33549    Zn
Zn     0.33549  0.33549  0.66451    Zn
Zn     0.33549  0.66451  0.33549    Zn
Zn     0.33549  0.66451  0.66451    Zn
C       0.3801   0.2394   0.2394     C
C       0.3801   0.2394   0.7606     C
C       0.3801   0.7606   0.2394     C
C       0.3801   0.7606   0.7606     C
O       0.3868   0.2832   0.2832     O
O       0.3868   0.2832   0.7168     O
O       0.3868   0.7168   0.2832     O
O       0.3868   0.7168   0.7168     O
H       0.4022   0.1481   0.1481     H
H       0.4022   0.1481   0.8519     H
H       0.4022   0.8519   0.1481     H
H       0.4022   0.8519   0.8519     H
Zn     0.42776      0.0      0.0    Zn
C       0.4415   0.1638   0.1638     C
C       0.4415   0.1638   0.8362     C
C       0.4415   0.8362   0.1638     C
C       0.4415   0.8362   0.8362     C
C       0.4427   0.2103   0.2103     C
C       0.4427   0.2103   0.7897     C
C       0.4427   0.7897   0.2103     C
C       0.4427   0.7897   0.7897     C
O       0.4458   0.0689   0.0689     O
O       0.4458   0.0689   0.9311     O
O       0.4458   0.9311   0.0689     O
O       0.4458   0.9311   0.9311     O
C          0.5   0.0894   0.0894     C
C          0.5   0.0894   0.9106     C
C          0.5     0.14     0.14     C
C          0.5     0.14     0.86     C
C          0.5   0.2339   0.2339     C
C          0.5   0.2339   0.7661     C
H          0.5   0.2658   0.2658     H
H          0.5   0.2658   0.7342     H
H          0.5   0.7342   0.2658     H
H          0.5   0.7342   0.7342     H
C          0.5   0.7661   0.2339     C
C          0.5   0.7661   0.7661     C
C          0.5     0.86     0.14     C
C          0.5     0.86     0.86     C
C          0.5   0.9106   0.0894     C
C          0.5   0.9106   0.9106     C
O       0.5542   0.0689   0.0689     O
O       0.5542   0.0689   0.9311     O
O       0.5542   0.9311   0.0689     O
O       0.5542   0.9311   0.9311     O
C       0.5573   0.2103   0.2103     C
C       0.5573   0.2103   0.7897     C
C       0.5573   0.7897   0.2103     C
C       0.5573   0.7897   0.7897     C
C       0.5585   0.1638   0.1638     C
C       0.5585   0.1638   0.8362     C
C       0.5585   0.8362   0.1638     C
C       0.5585   0.8362   0.8362     C
Zn     0.57224      0.0      0.0    Zn
H       0.5978   0.1481   0.1481     H
H       0.5978   0.1481   0.8519     H
H       0.5978   0.8519   0.1481     H
H       0.5978   0.8519   0.8519     H
O       0.6132   0.2832   0.2832     O
O       0.6132   0.2832   0.7168     O
O       0.6132   0.7168   0.2832     O
O       0.6132   0.7168   0.7168     O
C       0.6199   0.2394   0.2394     C
C       0.6199   0.2394   0.7606     C
C       0.6199   0.7606   0.2394     C
C       0.6199   0.7606   0.7606     C
Zn     0.66451  0.33549  0.33549    Zn
Zn     0.66451  0.33549  0.66451    Zn
Zn     0.66451  0.66451  0.33549    Zn
Zn     0.66451  0.66451  0.66451    Zn
O       0.6721   0.2157   0.2157     O
O       0.6721   0.2157   0.7843     O
O       0.6721   0.7843   0.2157     O
O       0.6721   0.7843   0.7843     O
O       0.7168   0.2832   0.3868     O
O       0.7168   0.2832   0.6132     O
O       0.7168   0.3868   0.2832     O
O       0.7168   0.3868   0.7168     O
O       0.7168   0.6132   0.2832     O
O       0.7168   0.6132   0.7168     O
O       0.7168   0.7168   0.3868     O
O       0.7168   0.7168   0.6132     O
H       0.7342   0.2658      0.5     H
H       0.7342      0.5   0.2658     H
H       0.7342      0.5   0.7342     H
H       0.7342   0.7342      0.5     H
C       0.7606   0.2394   0.3801     C
C       0.7606   0.2394   0.6199     C
C       0.7606   0.3801   0.2394     C
C       0.7606   0.3801   0.7606     C
C       0.7606   0.6199   0.2394     C
C       0.7606   0.6199   0.7606     C
C       0.7606   0.7606   0.3801     C
C       0.7606   0.7606   0.6199     C
Zn     0.76112  0.23888  0.23888    Zn
Zn     0.76112  0.23888  0.76112    Zn
Zn     0.76112  0.76112  0.23888    Zn
Zn     0.76112  0.76112  0.76112    Zn
C       0.7661   0.2339      0.5     C
C       0.7661      0.5   0.2339     C
C       0.7661      0.5   0.7661     C
C       0.7661   0.7661      0.5     C
O       0.7843   0.2157   0.3279     O
O       0.7843   0.2157   0.6721     O
O       0.7843   0.3279   0.2157     O
O       0.7843   0.3279   0.7843     O
O       0.7843   0.6721   0.2157     O
O       0.7843   0.6721   0.7843     O
O       0.7843   0.7843   0.3279     O
O       0.7843   0.7843   0.6721     O
C       0.7897   0.2103   0.4427     C
C       0.7897   0.2103   0.5573     C
C       0.7897   0.4427   0.2103     C
C       0.7897   0.4427   0.7897     C
C       0.7897   0.5573   0.2103     C
C       0.7897   0.5573   0.7897     C
C       0.7897   0.7897   0.4427     C
C       0.7897   0.7897   0.5573     C
C       0.8362   0.1638   0.4415     C
C       0.8362   0.1638   0.5585     C
C       0.8362   0.4415   0.1638     C
C       0.8362   0.4415   0.8362     C
C       0.8362   0.5585   0.1638     C
C       0.8362   0.5585   0.8362     C
C       0.8362   0.8362   0.4415     C
C       0.8362   0.8362   0.5585     C
H       0.8519   0.1481   0.4022     H
H       0.8519   0.1481   0.5978     H
H       0.8519   0.4022   0.1481     H
H       0.8519   0.4022   0.8519     H
H       0.8519   0.5978   0.1481     H
H       0.8519   0.5978   0.8519     H
H       0.8519   0.8519   0.4022     H
H       0.8519   0.8519   0.5978     H
C         0.86     0.14      0.5     C
C         0.86      0.5     0.14     C
C         0.86      0.5     0.86     C
C         0.86     0.86      0.5     C
C       0.9106   0.0894      0.5     C
C       0.9106      0.5   0.0894     C
C       0.9106      0.5   0.9106     C
C       0.9106   0.9106      0.5     C
O       0.9311   0.0689   0.4458     O
O       0.9311   0.0689   0.5542     O
O       0.9311   0.4458   0.0689     O
O       0.9311   0.4458   0.9311     O
O       0.9311   0.5542   0.0689     O
O       0.9311   0.5542   0.9311     O
O       0.9311   0.9311   0.4458     O
O       0.9311   0.9311   0.5542     O
