data_I
_chemical_name_common  '/home/zhangsd/repos/MofS-CGCNN/ML/data/TSD/clean_cifs/VEJHEZ_clean'
_cell_length_a 37.26510
_cell_length_b 37.26510
_cell_length_c 37.26510
_cell_angle_alpha 109.47100
_cell_angle_beta  109.47100
_cell_angle_gamma 109.47100
_space_group_name_H-M_alt      'P 1'


loop_
_space_group_symop_operation_xyz
  'x, y, z' 

loop_
_atom_site_label
_atom_site_fract_x
_atom_site_fract_y
_atom_site_fract_z
_atom_site_type_symbol
O       0.0018    0.449   0.2316     O
C        0.002   0.1031   0.3397     C
Zn     0.00226  0.35507  0.01219    Zn
H        0.003   0.1057   0.3947     H
C        0.003   0.5668   0.8058     C
O       0.0033    0.292   0.0611     O
C       0.0033   0.3941   0.1778     C
C       0.0044    0.327   0.0774     C
C       0.0046   0.1221   0.3799     C
O       0.0046   0.3507   0.0611     O
O       0.0047   0.9567   0.7156     O
C       0.0051   0.3819   0.1392     C
H       0.0052   0.3992   0.1254     H
C       0.0053   0.1273   0.3186     C
H       0.0053   0.3799   0.2258     H
Zn     0.00534  0.25998  0.01126    Zn
H       0.0055    0.117   0.2917     H
C       0.0059   0.3708   0.1991     C
Zn     0.00592  0.01126  0.75128    Zn
C        0.007   0.3437   0.1215     C
C       0.0071   0.9434   0.6815     C
C        0.008   0.1673   0.3391     C
C       0.0082   0.3086   0.2056     C
Zn     0.00881     0.25  0.25881    Zn
C       0.0089   0.1615   0.3994     C
C        0.009   0.1849   0.3767     C
C       0.0092   0.3195   0.1427     C
C       0.0094   0.3339   0.1819     C
C       0.0096   0.1927   0.3149     C
H       0.0098   0.2123   0.3881     H
Zn     0.00993  0.01219  0.65712    Zn
H       0.0104   0.2935   0.1303     H
O       0.0108   0.1581   0.4621     O
Zn     0.01126  0.25128  0.50592    Zn
Zn     0.01219  0.15712  0.50993    Zn
C       0.0131   0.1816   0.4437     C
O       0.0138    0.965   0.6624     O
O       0.0141   0.5551    0.834     O
O       0.0174   0.2186   0.4582     O
C        0.031   0.7221   0.8041     C
C       0.0311   0.8199    0.719     C
O        0.035   0.8376   0.4862     O
N       0.0371   0.7998   0.7435     N
N       0.0379     0.75   0.7879     N
O       0.0379   0.9892   0.3419     O
O        0.041   0.4859   0.8199     O
O       0.0418   0.9826   0.2814     O
O       0.0433   0.7844   0.4953     O
O        0.048   0.7589   0.0433     O
C       0.0483   0.3182   0.2359     C
O       0.0487   0.3527   0.0108     O
O       0.0488   0.6974    0.035     O
C       0.0496   0.2206   0.3208     C
O        0.051   0.5528   0.2826     O
O       0.0528   0.5018   0.7702     O
O       0.0551    0.541   0.2211     O
N       0.0561     0.25   0.3061     N
N       0.0563   0.2998   0.2627     N
C       0.0563   0.9869   0.3184     C
O       0.0565   0.0611   0.7104     O
C       0.0566   0.8185   0.4929     C
O       0.0578   0.0611   0.7691     O
O       0.0592   0.2988   0.0174     O
O       0.0611   0.2104   0.5565     O
O       0.0611   0.2691   0.5578     O
C       0.0637   0.7381   0.0566     C
C       0.0638    0.497   0.8028     C
C       0.0668   0.5638    0.261     C
C       0.0694   0.3315   0.0131     C
C        0.073   0.0774   0.7504     C
C       0.0741   0.8531   0.7292     C
C       0.0766    0.733   0.8408     C
C       0.0774   0.2504    0.573     C
H        0.079   0.8719   0.7173     H
H       0.0809   0.7186   0.8573     H
C        0.082   0.7779   0.8089     C
C       0.0823   0.8182   0.7699     C
C         0.09   0.3508   0.2444     C
C       0.0919    0.231   0.3547     C
H       0.0938   0.3672   0.2298     H
H       0.0966   0.2152   0.3694     H
C       0.1002   0.2794    0.329     C
C       0.1006   0.9911   0.3385     C
H       0.1008    0.606   0.2262     H
C       0.1009   0.3199   0.2888     C
C       0.1011   0.7634   0.1031     C
H       0.1027    0.711   0.1057     H
C        0.103   0.8086   0.8004     C
C       0.1031   0.8397    0.502     C
H       0.1053    0.997   0.3943     H
H       0.1057   0.8947    0.503     H
C       0.1059   0.6092   0.2837     C
H        0.106   0.5052   0.8798     H
C       0.1064   0.8508   0.7608     C
C       0.1078    0.767   0.8436     C
H       0.1083   0.3973    0.003     H
C       0.1092   0.5033   0.8255     C
C       0.1095   0.3474   0.0089     C
H       0.1115   0.8253    0.117     H
H       0.1119   0.9902   0.2877     H
C       0.1145   0.1215   0.7778     C
H        0.117   0.7917   0.5055     H
C       0.1175   0.7422   0.1221     C
C       0.1181   0.6232   0.2573     C
H       0.1186   0.8458   0.2152     H
H       0.1199   0.1303   0.8368     H
H       0.1201   0.6254   0.3459     H
C       0.1201   0.9954   0.3779     C
H       0.1202   0.1254   0.7262     H
C       0.1215   0.2778   0.6145     C
H       0.1217   0.2975   0.0098     H
C        0.122   0.8087   0.1273     C
C       0.1221   0.8799   0.5046     C
C       0.1222   0.3073   0.3169     C
C       0.1232   0.5051   0.8659     C
C       0.1233    0.991   0.3151     C
C       0.1237    0.269   0.3609     C
C       0.1239   0.3531    0.279     C
C       0.1247   0.3825   0.0046     C
H       0.1254   0.2262   0.6202     H
H       0.1254   0.5053   0.7795     H
C       0.1273   0.8186   0.5053     C
H       0.1281   0.7827    0.421     H
C       0.1292   0.6351   0.3283     C
H       0.1303   0.3368   0.6199     H
H       0.1306   0.9034   0.2848     H
C       0.1323   0.3241    0.009     C
H       0.1328   0.7266   0.3626     H
C       0.1335   0.1427   0.8232     C
C       0.1341   0.1392   0.7573     C
C       0.1351   0.5059   0.8068     C
H        0.136   0.2298   0.8626     H
H       0.1374   0.8672   0.7734     H
H       0.1377   0.4191   0.7764     H
H       0.1383   0.2929    0.921     H
H       0.1387   0.7814   0.8623     H
C       0.1391   0.8763    0.231     C
C       0.1392   0.2573   0.6341     C
C       0.1427   0.3232   0.6335     C
H       0.1427   0.3613   0.7236     H
Zn     0.14493  0.64719  0.15712    Zn
C       0.1453   0.9081    0.269     C
C       0.1469   0.7708   0.4259     C
Zn     0.14719  0.50226  0.99007    Zn
O       0.1473    0.696   0.1581     O
O       0.1486   0.4512   0.9862     O
C       0.1492   0.7392   0.3936     C
O       0.1493   0.6539   0.2104     O
C        0.152   0.8339   0.8245     C
C       0.1526   0.7621   0.1615     C
O       0.1539   0.5046   0.9435     O
H       0.1541   0.8799   0.8746     H
H       0.1542   0.2848   0.3814     H
C       0.1544   0.2444   0.8936     C
H       0.1546   0.3719   0.2929     H
C       0.1551    0.279   0.9259     C
C       0.1563   0.6633   0.2778     C
C       0.1564   0.4234   0.7642     C
Zn     0.15712  0.00993  0.51219    Zn
O       0.1581   0.9621   0.5108     O
C       0.1592   0.3922   0.7358     C
C       0.1593   0.8282   0.1673     C
C       0.1603    0.998   0.3969     C
C       0.1609    0.992   0.3327     C
C       0.1615   0.8994   0.5089     C
C       0.1623   0.3989    0.002     C
O       0.1624   0.0138    0.465     O
H       0.1632   0.7935   0.7831     H
C       0.1633    0.507   0.8855     C
O        0.166   0.2211   0.6801     O
C       0.1661   0.6755    0.348     C
Zn     0.16614  0.16614  0.66614    Zn
C       0.1673   0.8391    0.508     C
C       0.1685   0.7379   0.1816     C
C       0.1689   0.3407    0.008     C
C        0.171   0.8998   0.2206     C
C       0.1717   0.8708   0.8649     C
C       0.1718   0.3327   0.3407     C
C       0.1725   0.1819    0.848     C
C        0.173   0.6774   0.2504     C
C       0.1744   0.4363   0.9929     C
C       0.1745   0.1778   0.7837     C
H       0.1747    0.383   0.3885     H
C       0.1755   0.5094   0.8275     C
H       0.1758   0.2877   0.2975     H
C       0.1759   0.8082   0.1849     C
C       0.1768   0.8195   0.8103     C
C       0.1774   0.5044    0.927     C
C       0.1778   0.2837   0.6745     C
C       0.1792   0.9504   0.2794     C
O       0.1801    0.166   0.7211     O
C       0.1801    0.781   0.4689     C
C       0.1805   0.6897   0.3232     C
C       0.1814   0.9947   0.3727     C
C       0.1815   0.0071   0.4434     C
C       0.1816   0.9437   0.5131     C
C       0.1818   0.7301   0.4177     C
C       0.1819    0.348   0.6725     C
C       0.1831   0.8778   0.1927     C
C       0.1849   0.8767    0.509     C
C       0.1851   0.9904   0.3073     C
C       0.1867    0.378   0.0053     C
C       0.1876   0.2359   0.9177     C
C       0.1879   0.2888   0.9689     C
C       0.1897   0.5092   0.8665     C
C       0.1911    0.469   0.7731     C
C       0.1913   0.3727    0.378     C
C       0.1914   0.6996    0.397     C
C       0.1918   0.3151   0.3241     C
C       0.1927   0.8149   0.5096     C
C       0.1932   0.1991   0.8283     C
N       0.1939   0.9439     0.25     N
C       0.1942    0.261   0.6972     C
C       0.1947   0.3169   0.0096     C
C       0.1959    0.418   0.7269     C
O        0.196   0.5487   0.0379     O
C       0.1972   0.1942    0.761     C
C       0.1974   0.2056    0.897     C
O       0.1974   0.6486   0.1624     O
C       0.1991   0.3283   0.6932     C
C       0.1996   0.5082   0.8026     C
N       0.2002   0.7565   0.4629     N
O       0.2012   0.7604   0.2186     O
H       0.2025   0.8242   0.2123     H
C       0.2056    0.397   0.6974     C
N       0.2064   0.2627   0.9629     N
H       0.2065   0.7169   0.3368     H
H       0.2071   0.8454   0.1281     H
O        0.208   0.7113   0.2691     O
H       0.2083   0.9945    0.383     H
O       0.2104   0.0565   0.5611     O
O       0.2109    0.452   0.9953     O
H        0.211   0.6083   0.1053     H
C       0.2112   0.8991   0.1801     C
O       0.2113   0.5033   0.9422     O
N       0.2121   0.4621     0.75     N
H       0.2123   0.8881   0.5098     H
H       0.2138   0.3885   0.0055     H
H       0.2152   0.8694   0.5966     H
O       0.2156   0.0047   0.4567     O
C       0.2163   0.8941   0.8908     C
H       0.2169   0.5104   0.8801     H
H       0.2173    0.079   0.3719     H
O       0.2174    0.949   0.9472     O
H       0.2186   0.6377   0.3613     H
O       0.2186   0.9582   0.5174     O
C        0.219   0.0311   0.3199     C
H       0.2205   0.2258   0.8459     H
C       0.2206   0.8208   0.5496     C
C        0.221   0.8761   0.1469     C
O       0.2211   0.1801    0.666     O
C       0.2221   0.6911    0.418     C
C       0.2222   0.8437   0.8367     C
H       0.2236   0.1427   0.8613     H
H       0.2258   0.3459   0.7205     H
H       0.2262   0.1202   0.6254     H
H       0.2266   0.5938    0.864     H
C       0.2269   0.1959    0.918     C
H       0.2272   0.3814   0.0966     H
C       0.2288    0.329   0.0496     C
C       0.2292   0.0741   0.3531     C
O       0.2298   0.2316   0.7826     O
H       0.2298   0.3626    0.636     H
C       0.2301   0.5483   0.8124     C
O       0.2309    0.792   0.7887     O
C        0.231   0.8547   0.5919     C
O       0.2316   0.2826   0.7298     O
C        0.233   0.6564   0.3922     C
C       0.2358   0.1592   0.8922     C
C       0.2359   0.4177   0.6876     C
C       0.2366   0.3969   0.3989     C
C       0.2372   0.3609   0.0919     C
N       0.2373   0.9437   0.2002     N
C       0.2379   0.3385   0.3474     C
C       0.2379   0.5694   0.0563     C
Zn     0.23798      0.0      0.0    Zn
C       0.2381   0.6744   0.1815     C
C        0.239   0.9332   0.9362     C
C       0.2392     0.59   0.8456     C
O       0.2396   0.2814   0.2988     O
Zn     0.24002  0.74536  0.25128    Zn
O       0.2411   0.4567    0.452     O
Zn     0.24119  0.99119     0.25    Zn
C       0.2422   0.6247   0.1201     C
C       0.2427   0.8819   0.8768     C
N       0.2435   0.0371   0.2998     N
C       0.2444   0.3936   0.6544     C
Zn     0.24536  0.50534  0.99408    Zn
Zn     0.24872  0.75998  0.75464    Zn
C       0.2496    0.827   0.8226     C
N         0.25   0.2121   0.9621     N
Zn        0.25  0.25881  0.00881    Zn
N         0.25   0.3061   0.0561     N
N         0.25   0.7121   0.4621     N
Zn        0.25  0.75881  0.50881    Zn
N         0.25   0.8061   0.5561     N
C       0.2504    0.073   0.5774     C
Zn     0.25128  0.00592  0.51126    Zn
Zn     0.25464  0.24872  0.25998    Zn
C       0.2556     0.91   0.1492     C
N       0.2565   0.5563   0.7936     N
C       0.2573   0.1341   0.6392     C
C       0.2578   0.3779   0.3825     C
Zn     0.25881  0.50881     0.75    Zn
O       0.2589   0.7109   0.2156     O
Zn     0.25998  0.51126  0.50534    Zn
O       0.2604   0.5592   0.0418     O
C       0.2608   0.1064   0.3508     C
C        0.261   0.1972   0.6942     C
C       0.2619   0.4434   0.4363     C
Zn     0.26202  0.26202  0.76202    Zn
C       0.2621   0.3184   0.3315     C
C       0.2621   0.6095   0.1006     C
N       0.2627   0.4629   0.7064     N
C       0.2628   0.3547   0.1237     C
C       0.2634   0.6623   0.1603     C
C       0.2641   0.9517   0.1818     C
C       0.2642   0.1564   0.9234     C
C        0.267   0.6592   0.4234     C
O       0.2684   0.9982    0.051     O
C        0.269   0.8609   0.6237     C
O       0.2691   0.0578   0.5611     O
C       0.2699   0.0823   0.3182     C
O       0.2702   0.0528   0.0018     O
H       0.2702   0.9062   0.1328     H
C       0.2708   0.6239   0.8449     C
C       0.2712   0.3208   0.1002     C
H       0.2728   0.3694   0.1542     H
C       0.2731   0.1911    0.969     C
H       0.2734   0.1374   0.3672     H
H       0.2738   0.8992    0.894     H
H       0.2742   0.9947   0.1201     H
H       0.2764   0.1377   0.9191     H
C       0.2778   0.1145   0.6215     C
C       0.2779   0.6959    0.469     C
O       0.2789   0.9449    0.959     O
C        0.279   0.4259   0.6551     C
C       0.2794    0.829   0.6002     C
H       0.2795   0.1254   0.0053     H
C        0.281   0.6009   0.8121     C
H       0.2814   0.6427   0.4191     H
O       0.2814   0.7988   0.7396     O
O       0.2826   0.2298   0.7316     O
H       0.2827   0.6546   0.8617     H
H       0.2831   0.1632   0.2935     H
C       0.2837   0.1745   0.6778     C
O       0.2844   0.7411   0.7891     O
H       0.2848   0.8814   0.6542     H
H       0.2862   0.2917   0.1747     H
H       0.2877   0.7975   0.6758     H
N       0.2879   0.0379     0.25     N
O       0.2887   0.2309    0.292     O
C       0.2888   0.4689   0.6879     C
H        0.289   0.3943   0.3973     H
O       0.2891   0.2844   0.2411     O
O       0.2896   0.8507   0.8461     O
H       0.2917   0.6747   0.7862     H
O        0.292   0.5611   0.5033     O
H       0.2929    0.421   0.6383     H
H       0.2935   0.6303   0.5104     H
N       0.2936   0.2565   0.0563     N
C       0.2944   0.9918   0.1914     C
H       0.2975   0.5098   0.6217     H
O       0.2988   0.5174   0.5592     O
N       0.2998   0.7627   0.5563     N
C       0.3004    0.103   0.3086     C
C       0.3009   0.9941   0.1292     C
C       0.3026   0.1996   0.0082     C
O       0.3026    0.465   0.4512     O
C       0.3028   0.0638    0.997     C
O        0.304   0.3419   0.3527     O
C       0.3041    0.031   0.2221     C
C       0.3053   0.3149   0.1222     C
C       0.3058    0.003   0.0668     C
N       0.3061   0.5561     0.75     N
C       0.3068   0.1351   0.0059     C
C       0.3073   0.8169   0.6222     C
C       0.3082   0.6323   0.1233     C
C       0.3086   0.7056   0.5082     C
C       0.3087   0.6867   0.1814     C
C       0.3089    0.082   0.2779     C
C       0.3103   0.1768   0.3195     C
C       0.3121    0.281   0.1009     C
C       0.3124   0.2301   0.0483     C
C       0.3133   0.3186   0.1913     C
C       0.3149   0.6222   0.8053     C
C       0.3151   0.8241   0.6918     C
C       0.3169   0.5096   0.6947     C
C       0.3181   0.9906   0.1661     C
C       0.3182   0.7359   0.5483     C
C       0.3184   0.8315   0.7621     C
C       0.3185   0.7619   0.8256     C
C       0.3186   0.6913   0.8133     C
C       0.3195   0.6427   0.5092     C
O       0.3199    0.041   0.9859     O
C       0.3199   0.7888   0.6009     C
C       0.3208   0.6002   0.7712     C
C       0.3222   0.9967   0.1059     C
C       0.3226   0.2496    0.327     C
C       0.3232   0.1335   0.6427     C
C       0.3241    0.509   0.6323     C
H       0.3242   0.6217   0.1119     H
C       0.3245    0.152   0.3339     C
H       0.3253   0.7138   0.2083     H
C       0.3255   0.1092   0.0033     C
C       0.3256   0.3185   0.2619     C
C        0.327   0.5774   0.5044     C
C       0.3275   0.1755   0.0094     C
C       0.3282   0.6689   0.1609     C
C       0.3283   0.1932   0.6991     C
C        0.329   0.5496   0.7288     C
C       0.3311   0.3391   0.1718     C
C       0.3315   0.5131   0.5694     C
C       0.3327   0.8407   0.6718     C
Zn     0.33386      0.0     -0.0    Zn
C       0.3339   0.6819   0.5094     C
O        0.334   0.0141   0.0551     O
C       0.3367   0.2222   0.3437     C
H       0.3368   0.1199   0.6303     H
O       0.3376   0.8026   0.8514     O
C       0.3377   0.3397   0.2366     C
C       0.3385   0.8474   0.7379     C
C       0.3391   0.6718   0.8311     C
C       0.3397   0.7366   0.8377     C
C       0.3407    0.508   0.6689     C
C       0.3408   0.0766    0.233     C
O       0.3419   0.8527    0.804     O
Zn     0.34288  0.85507  0.85281    Zn
C       0.3436   0.1078    0.267     C
C       0.3437   0.6215    0.507     C
C       0.3449   0.2708   0.1239     C
H       0.3454   0.6383   0.2173     H
C       0.3456   0.2392     0.09     C
H       0.3458   0.7272   0.1306     H
H       0.3459   0.2205   0.7258     H
O       0.3461   0.2896   0.3507     O
C       0.3474   0.5089   0.6095     C
C        0.348   0.1725   0.6819     C
O       0.3507   0.5611   0.5046     O
C       0.3508   0.7444     0.59     C
O       0.3514   0.3376   0.3026     O
O       0.3527   0.5108   0.5487     O
Zn     0.35281  0.34288  0.35507    Zn
C       0.3531    0.779   0.6239     C
C       0.3547   0.6237   0.7628     C
Zn     0.35507  0.51219  0.50226    Zn
H       0.3573   0.0809   0.2186     H
C       0.3573   0.9908   0.1805     C
C       0.3608   0.9949   0.1181     C
C       0.3609   0.5919   0.7372     C
H       0.3613   0.2236   0.6427     H
H       0.3617   0.2827   0.1546     H
H       0.3623   0.1387   0.2814     H
H       0.3626    0.136   0.7298     H
H        0.364   0.2266   0.0938     H
C       0.3649   0.1717   0.3708     C
C       0.3659   0.1232   0.0051     C
C       0.3665   0.1897   0.0092     C
H       0.3672   0.7298   0.5938     H
C       0.3677   0.3767   0.1918     C
H       0.3694   0.6542   0.7728     H
H       0.3697   0.9896   0.2065     H
C       0.3708   0.6991   0.5059     C
H       0.3719   0.7929   0.6546     H
C       0.3727    0.878   0.6913     C
H       0.3746   0.1541   0.3799     H
H       0.3746   0.9948   0.1008     H
C       0.3753   0.3799   0.2578     C
C       0.3761   0.6551   0.2292     C
C       0.3763   0.7372   0.1453     C
C       0.3767   0.6918   0.8677     C
C       0.3768   0.2427   0.3819     C
C       0.3778   0.6947   0.1851     C
C       0.3779   0.8825   0.7578     C
C        0.378   0.5053   0.6867     C
H       0.3783   0.3881   0.1758     H
C       0.3785    0.993   0.1563     C
H       0.3798    0.106   0.0052     H
H       0.3799   0.7258   0.5053     H
C       0.3799   0.7578   0.8753     C
H       0.3801   0.2169   0.0104     H
H       0.3814   0.5966   0.7272     H
C       0.3819   0.6392   0.5051     C
C       0.3825   0.5046   0.6247     C
H        0.383   0.8885   0.6747     H
C       0.3855   0.1633    0.007     C
H       0.3881   0.6758   0.8783     H
H       0.3885   0.5055   0.7138     H
C       0.3905   0.3994   0.2379     C
C       0.3908   0.2163   0.3941     C
H       0.3917   0.3947    0.289     H
C       0.3922   0.2358   0.6592     C
C       0.3936   0.1544   0.7444     C
H        0.394   0.2738   0.3992     H
C       0.3941   0.6778   0.5033     C
H       0.3943   0.8973    0.789     H
H       0.3947    0.789   0.8917     H
C       0.3969   0.8989   0.7366     C
C        0.397   0.1974   0.7056     C
H       0.3973    0.503   0.6083     H
C       0.3989    0.502   0.6623     C
C       0.3991   0.6879    0.219     C
H       0.3992   0.6254   0.5052     H
C       0.3994   0.7379   0.8905     C
C       0.3998   0.7288   0.1792     C
H       0.4034   0.7728   0.1186     H
H       0.4062    0.636   0.2734     H
C       0.4081   0.7628   0.1391     C
C         0.41   0.6544   0.2608     C
C       0.4177   0.1876   0.7359     C
C        0.418   0.2269   0.6959     C
H       0.4191   0.2764   0.6377     H
H        0.421   0.1383   0.7929     H
C       0.4226   0.9956    0.173     C
C       0.4234   0.2642   0.6564     C
C       0.4259   0.1551    0.779     C
C        0.427   0.1774   0.0044     C
C       0.4306   0.4437   0.2621     C
C       0.4332   0.6942    0.497     C
C       0.4362    0.239   0.4332     C
C       0.4363   0.4929   0.6744     C
O       0.4389   0.9954   0.1493     O
O       0.4389   0.9967    0.208     O
O       0.4408   0.4582   0.2396     O
O       0.4422   0.2113   0.0033     O
C       0.4434   0.9363   0.7619     C
O       0.4435   0.1539   0.0046     O
N       0.4437   0.7064   0.2435     N
C       0.4437   0.7621   0.9306     C
N       0.4439     0.75   0.1939     N
O       0.4449    0.666   0.4859     O
O       0.4472   0.2174    0.449     O
O        0.449   0.7316   0.5018     O
C       0.4504   0.7712    0.171     C
O       0.4512   0.4862   0.6486     O
O       0.4513   0.4621    0.304     O
C       0.4517   0.6876   0.2699     C
O        0.452   0.4953   0.7109     O
O       0.4567    0.952   0.7411     O
O       0.4582   0.7396   0.9408     O
O        0.459   0.2789   0.4449     O
N       0.4621     0.25   0.7121     N
O       0.4621    0.804   0.9513     O
N       0.4629   0.2064   0.7627     N
O        0.465   0.9512   0.8026     O
C       0.4689   0.1879   0.7888     C
C        0.469   0.2731   0.6911     C
O       0.4826   0.9408   0.2012     O
O       0.4859   0.3199    0.541     O
O       0.4862   0.1486   0.9512     O
C       0.4869   0.9306   0.1685     C
Zn     0.48781  0.99774  0.14493    Zn
Zn     0.48874  0.99466  0.24002    Zn
O       0.4892   0.9513   0.1473     O
H       0.4896   0.6199   0.2831     H
Zn     0.49007  0.14719  0.00226    Zn
H       0.4902   0.8783   0.2025     H
C       0.4904   0.8053   0.1831     C
C       0.4906   0.6725   0.3245     C
C       0.4908   0.6335   0.3103     C
C        0.491   0.8677   0.1759     C
C       0.4911   0.8905   0.1526     C
Zn     0.49119     0.75  0.24119    Zn
C       0.4918   0.6974   0.3004     C
C        0.492   0.8311   0.1593     C
C       0.4929   0.1744   0.9363     C
C        0.493   0.6145   0.3367     C
Zn     0.49408  0.24536  0.00534    Zn
C       0.4941   0.6932   0.3649     C
H       0.4945   0.7862   0.1115     H
Zn     0.49466  0.50592  0.25464    Zn
H       0.4947   0.7205   0.3746     H
C       0.4947   0.8133    0.122     C
H       0.4948   0.6202    0.394     H
C       0.4949   0.6341   0.3768     C
O       0.4953   0.2109    0.952     O
O       0.4954   0.5565   0.3461     O
C       0.4954   0.8753   0.1175     C
C       0.4956    0.573   0.3226     C
O       0.4967   0.5578   0.2887     O
C       0.4967   0.6745   0.3908     C
C        0.497   0.3028   0.5638     C
H        0.497   0.8917   0.1027     H
Zn     0.49774  0.50993  0.35281    Zn
C        0.498   0.8377   0.1011     C
O       0.4982   0.7298   0.4472     O
Zn         0.5  0.23798      0.5    Zn
Zn         0.5  0.33386      0.5    Zn
Zn         0.5  0.66614      0.5    Zn
Zn         0.5  0.76202      0.5    Zn
O       0.5018   0.2702   0.5528     O
C        0.502   0.1623   0.8989     C
Zn     0.50226  0.49007  0.64719    Zn
H        0.503   0.1083   0.8973     H
C        0.503   0.6972   0.4362     C
C       0.5033   0.3255   0.6092     C
O       0.5033   0.4422   0.7113     O
C       0.5044    0.427   0.6774     C
C       0.5046   0.1247   0.8825     C
O       0.5046   0.4435   0.6539     O
O       0.5047   0.7891    0.048     O
C       0.5051   0.3659   0.6232     C
H       0.5052   0.3798    0.606     H
C       0.5053   0.1867    0.878     C
H       0.5053   0.2795   0.6254     H
Zn     0.50534  0.49408  0.74536    Zn
H       0.5055   0.2138   0.8885     H
C       0.5059   0.3068   0.6351     C
Zn     0.50592  0.75464  0.99466    Zn
C        0.507   0.3855   0.6633     C
C       0.5071   0.8256   0.0637     C
C        0.508   0.1689   0.8407     C
C       0.5082   0.3026   0.6996     C
Zn     0.50881     0.25  0.75881    Zn
C       0.5089   0.1095   0.8474     C
C        0.509   0.1323   0.8241     C
C       0.5092   0.3665   0.6897     C
C       0.5094   0.3275   0.6755     C
C       0.5096   0.1947   0.8169     C
H       0.5098   0.1217   0.7975     H
Zn     0.50993  0.85281  0.99774    Zn
H       0.5104   0.3801   0.7169     H
O       0.5108   0.0487   0.8527     O
Zn     0.51126  0.00534  0.75998    Zn
Zn     0.51219  0.00226  0.85507    Zn
C       0.5131   0.0694   0.8315     C
O       0.5138   0.8514   0.0488     O
O       0.5141   0.6801    0.459     O
O       0.5174   0.0592   0.7988     O
C        0.531   0.7269   0.3089     C
C       0.5311   0.8121   0.2112     C
O        0.535   0.0488   0.1974     O
N       0.5371   0.7936   0.2373     N
O       0.5379    0.196   0.0487     O
N       0.5379     0.75   0.2879     N
O        0.541   0.7211   0.5551     O
O       0.5418   0.2604   0.0592     O
O       0.5433    0.048   0.2589     O
O        0.548   0.5047   0.2891     O
C       0.5483   0.3124   0.7301     C
O       0.5487   0.5379    0.696     O
O       0.5488   0.5138   0.3514     O
C       0.5496   0.2288    0.829     C
O        0.551   0.2684   0.4982     O
O       0.5528   0.7826    0.551     O
O       0.5551    0.334   0.5141     O
N       0.5561     0.25   0.8061     N
C       0.5563   0.2379   0.0694     C
N       0.5563   0.2936   0.7565     N
O       0.5565   0.8461   0.9954     O
C       0.5566   0.0637   0.2381     C
O       0.5578   0.7887   0.9967     O
O       0.5592   0.5418   0.7604     O
O       0.5611   0.0033    0.792     O
O       0.5611   0.0046   0.8507     O
C       0.5637   0.5071   0.3256     C
C       0.5638    0.761   0.5668     C
C       0.5668   0.3058    0.503     C
C       0.5694   0.5563   0.7379     C
C        0.573   0.8226   0.9956     C
C       0.5741   0.8449    0.221     C
C       0.5766   0.7358   0.3436     C
C       0.5774   0.0044    0.827     C
H        0.579   0.8617   0.2071     H
H       0.5809   0.7236   0.3623     H
C        0.582   0.7731   0.3041     C
C       0.5823   0.8124   0.2641     C
C         0.59   0.3456   0.7392     C
C       0.5919   0.2372   0.8609     C
H       0.5938    0.364   0.7266     H
H       0.5966   0.2272   0.8814     H
C       0.6002   0.2712   0.8208     C
C       0.6006   0.2621   0.1095     C
H       0.6008   0.3746   0.4948     H
C       0.6009   0.3121    0.781     C
C       0.6011    0.498   0.3377     C
H       0.6027    0.497   0.3917     H
C        0.603   0.8026   0.2944     C
C       0.6031   0.1011   0.2634     C
H       0.6053    0.211   0.1083     H
H       0.6057   0.1027    0.211     H
C       0.6059   0.3222   0.4967     C
H        0.606   0.7262   0.6008     H
C       0.6064   0.8456   0.2556     C
C       0.6078   0.7642   0.3408     C
H       0.6083   0.6053    0.711     H
C       0.6092   0.7837   0.6059     C
C       0.6095   0.6006   0.7621     C
H       0.6115   0.4945   0.2862     H
H       0.6119   0.3242   0.1217     H
C       0.6145   0.8367    0.993     C
H        0.617   0.1115   0.3253     H
C       0.6175   0.4954   0.3753     C
C       0.6181   0.3608   0.4949     C
H       0.6186   0.4034   0.2728     H
H       0.6199   0.7831   0.9896     H
C       0.6201   0.2422   0.1247     C
H       0.6201   0.2742   0.4947     H
H       0.6202    0.894   0.9948     H
C       0.6215    0.007   0.8437     C
H       0.6217   0.6119   0.8242     H
C        0.622   0.4947   0.3133     C
C       0.6221   0.1175   0.2422     C
C       0.6222   0.3053   0.8149     C
C       0.6232   0.7573   0.6181     C
C       0.6233   0.3082   0.1323     C
C       0.6237   0.2628   0.8547     C
C       0.6239   0.3449   0.7708     C
C       0.6247   0.6201   0.7422     C
H       0.6254   0.0052   0.8992     H
H       0.6254   0.8459   0.6201     H
C       0.6273    0.122   0.3087     C
H       0.6281   0.2071   0.3454     H
C       0.6292   0.3009   0.4941     C
H       0.6303   0.0104   0.7935     H
H       0.6306   0.3458   0.2272     H
C       0.6323   0.6233   0.8082     C
H       0.6328   0.2702   0.4062     H
C       0.6335   0.8103   0.9908     C
C       0.6341   0.8768   0.9949     C
C       0.6351   0.8283   0.6292     C
H        0.636   0.7734   0.9062     H
H       0.6374    0.864   0.2702     H
H       0.6377   0.8613   0.7186     H
H       0.6383   0.7173   0.8454     H
H       0.6387   0.7764   0.3573     H
C       0.6391   0.4081   0.2628     C
C       0.6392   0.0051   0.8819     C
C       0.6427   0.0092   0.8195     C
H       0.6427   0.9191   0.7814     H
Zn     0.64493  0.48781  0.49774    Zn
C       0.6453   0.3763   0.2372     C
C       0.6469    0.221   0.3761     C
Zn     0.64719  0.65712  0.64493    Zn
O       0.6473   0.4892   0.4513     O
O       0.6486   0.6624   0.6974     O
C       0.6492   0.2556     0.41     C
O       0.6493   0.4389   0.4954     O
C        0.652   0.8275   0.3181     C
C       0.6526   0.4911   0.3905     C
O       0.6539   0.7104   0.6493     O
H       0.6541   0.7795   0.2742     H
H       0.6542   0.2728   0.8694     H
C       0.6544   0.7608     0.91     C
H       0.6546   0.3617   0.7827     H
C       0.6551   0.7292   0.8761     C
C       0.6563   0.3785    0.493     C
C       0.6564   0.8922    0.733     C
Zn     0.65712  0.14493  0.14719    Zn
O       0.6581   0.1473    0.196     O
C       0.6592   0.9234    0.767     C
C       0.6593    0.492   0.3311     C
C       0.6603   0.2634   0.1623     C
C       0.6609   0.3282   0.1689     C
C       0.6615   0.1526   0.2621     C
C       0.6623   0.6603   0.7634     C
O       0.6624   0.1974   0.1486     O
H       0.6632   0.8801   0.3697     H
C       0.6633   0.7778   0.6563     C
O        0.666   0.9859   0.9449     O
C       0.6661   0.3181   0.4906     C
Zn     0.66614      0.0     -0.0    Zn
C       0.6673   0.1593   0.3282     C
C       0.6685   0.4869   0.4306     C
C       0.6689   0.6609   0.8282     C
C        0.671   0.4504   0.2712     C
C       0.6717   0.8068   0.3009     C
C       0.6718   0.3311   0.8391     C
C       0.6725   0.8245   0.9906     C
C        0.673   0.4226   0.4956     C
C       0.6744   0.6815   0.7381     C
C       0.6745   0.8908   0.9967     C
H       0.6747   0.2862   0.7917     H
C       0.6755    0.848   0.6661     C
H       0.6758   0.3783   0.8881     H
C       0.6759    0.491   0.3677     C
C       0.6768   0.8665   0.3573     C
C       0.6774   0.7504    0.673     C
C       0.6778   0.0033   0.8941     C
C       0.6792   0.3998   0.2288     C
C       0.6801   0.2112   0.3991     C
O       0.6801    0.959   0.0141     O
C       0.6805   0.3573   0.4908     C
C       0.6814   0.3087   0.1867     C
C       0.6815   0.2381   0.1744     C
C       0.6816   0.1685   0.2379     C
C       0.6818   0.2641   0.4517     C
C       0.6819   0.0094   0.8339     C
C       0.6831   0.4904   0.3053     C
C       0.6849   0.1759   0.3082     C
C       0.6851   0.3778   0.1947     C
C       0.6867   0.6814   0.8087     C
C       0.6876   0.7699   0.9517     C
C       0.6879    0.719   0.8991     C
C       0.6897   0.8232   0.6805     C
C       0.6911    0.918   0.7221     C
C       0.6913   0.3133   0.8186     C
C       0.6914   0.2944   0.4918     C
C       0.6918   0.3677   0.8767     C
C       0.6927   0.1831   0.3778     C
C       0.6932   0.8649   0.9941     C
N       0.6939   0.4439     0.25     N
C       0.6942    0.997   0.9332     C
C       0.6947   0.6851   0.8778     C
C       0.6959    0.969   0.7779     C
O        0.696   0.6581   0.6473     O
C       0.6972   0.9362    0.003     C
O       0.6974    0.535   0.5488     O
C       0.6974   0.8004   0.9918     C
C       0.6991   0.0059   0.8708     C
C       0.6996    0.897   0.6914     C
N       0.7002   0.2373   0.4437     N
O       0.7012   0.4826   0.4408     O
H       0.7025   0.4902   0.3783     H
C       0.7056   0.0082   0.8086     C
N       0.7064   0.7435   0.9437     N
H       0.7065   0.3697   0.4896     H
H       0.7071    0.579   0.3617     H
O        0.708   0.4389   0.4967     O
H       0.7083   0.3253   0.2138     H
O       0.7104   0.1493   0.1539     O
O       0.7109   0.7156   0.7589     O
H        0.711   0.6057   0.6027     H
C       0.7112   0.5311   0.3121     C
O       0.7113   0.7691    0.708     O
N       0.7121   0.9621     0.75     N
H       0.7123   0.2025   0.3242     H
H       0.7138   0.7083   0.8253     H
H       0.7152   0.1186   0.3458     H
O       0.7156   0.2589   0.2109     O
C       0.7163   0.8255   0.3222     C
H       0.7169   0.8368   0.7065     H
H       0.7173   0.3454   0.1383     H
O       0.7174   0.7702   0.2684     O
O       0.7186   0.2012   0.2604     O
H       0.7186   0.3573   0.5809     H
C        0.719   0.3991   0.1879     C
H       0.7205   0.8746   0.9947     H
C       0.7206    0.171   0.3998     C
C        0.721   0.5741   0.3449     C
O       0.7211   0.0551    0.041     O
C       0.7221   0.3041    0.531     C
C       0.7222   0.8855   0.3785     C
H       0.7236   0.8623   0.0809     H
H       0.7258   0.0053   0.8799     H
H       0.7262   0.1008    0.106     H
H       0.7266   0.8626   0.6328     H
C       0.7269   0.8089    0.031     C
H       0.7272   0.6306   0.8458     H
C       0.7288   0.6792   0.8998     C
C       0.7292   0.3761   0.1551     C
H       0.7298   0.0938   0.8672     H
O       0.7298   0.9472   0.9982     O
C       0.7301   0.9177   0.6818     C
O       0.7309   0.9422   0.4389     O
C        0.731   0.1391   0.3763     C
O       0.7316   0.0018    0.949     O
C        0.733   0.3408   0.5766     C
C       0.7358   0.8436   0.0766     C
C       0.7359   0.0483   0.8182     C
C       0.7366   0.3377   0.8397     C
C       0.7372   0.6453   0.8763     C
N       0.7373   0.5371   0.2936     N
C       0.7379   0.3905   0.8994     C
C       0.7379   0.6816   0.6685     C
Zn     0.73798  0.73798  0.23798    Zn
C       0.7381   0.5566   0.5637     C
C        0.739   0.8028   0.3058     C
C       0.7392   0.8936   0.6492     C
O       0.7396   0.4408   0.9582     O
Zn     0.74002  0.48874  0.49466    Zn
O       0.7411   0.2891   0.7844     O
Zn     0.74119  0.49119     0.25    Zn
C       0.7422   0.6221   0.6175     C
C       0.7427   0.8659   0.3608     C
N       0.7435   0.4437   0.2064     N
C       0.7444     0.09   0.8508     C
Zn     0.74536  0.75128  0.74002    Zn
Zn     0.74872  0.99408  0.48874    Zn
C       0.7496    0.927   0.4226     C
N         0.75   0.1939   0.4439     N
Zn        0.75  0.24119  0.49119    Zn
N         0.75   0.2879   0.5379     N
N         0.75   0.6939   0.9439     N
Zn        0.75  0.74119  0.99119    Zn
N         0.75   0.7879   0.0379     N
C       0.7504    0.173   0.1774     C
Zn     0.75128  0.24002  0.24536    Zn
Zn     0.75464  0.49466  0.00592    Zn
C       0.7556   0.6064   0.3456     C
N       0.7565   0.9629   0.7002     N
C       0.7573   0.1181   0.1232     C
C       0.7578   0.3753   0.8799     C
Zn     0.75881  0.00881     0.75    Zn
O       0.7589   0.5433    0.548     O
Zn     0.75998  0.25464  0.74872    Zn
O       0.7604   0.7186   0.7012     O
C       0.7608     0.41   0.1544     C
C        0.761   0.0668   0.0638     C
C       0.7619   0.3256   0.8185     C
Zn     0.76202      0.0      0.0    Zn
C       0.7621   0.4306   0.9437     C
C       0.7621   0.6615   0.6526     C
N       0.7627   0.0563   0.7998     N
C       0.7628   0.6391   0.9081     C
C       0.7634   0.6031   0.6011     C
C       0.7641   0.5823   0.3124     C
C       0.7642   0.8408   0.1078     C
C        0.767   0.3436   0.6078     C
O       0.7684   0.7174   0.2702     O
C        0.769   0.1453   0.4081     C
O       0.7691    0.208   0.2113     O
C       0.7699   0.4517   0.1876     C
H       0.7702   0.6374    0.364     H
O       0.7702   0.7684   0.2174     O
C       0.7708   0.9259   0.6469     C
C       0.7712    0.671   0.9504     C
H       0.7728   0.6186   0.9034     H
C       0.7731   0.8041    0.082     C
H       0.7734   0.4062    0.136     H
H       0.7738   0.8798   0.3746     H
H       0.7742   0.6541   0.2795     H
H       0.7764   0.8573   0.1387     H
C       0.7778   0.1563   0.1633     C
C       0.7779   0.3089    0.582     C
O       0.7789   0.8199    0.334     O
C        0.779   0.1239   0.8531     C
C       0.7794   0.1792   0.4504     C
H       0.7795   0.7742   0.1541     H
C        0.781   0.9689   0.6801     C
O       0.7814   0.0418   0.4826     O
H       0.7814   0.3623   0.6387     H
O       0.7826    0.051   0.0528     O
H       0.7827    0.921   0.6281     H
H       0.7831   0.4896   0.1199     H
C       0.7837   0.1059   0.1092     C
O       0.7844   0.9953   0.5433     O
H       0.7848   0.1306   0.4034     H
H       0.7862   0.6115   0.9945     H
H       0.7877   0.1119   0.4902     H
N       0.7879   0.5379     0.25     N
O       0.7887   0.4967   0.0578     O
C       0.7888   0.1009   0.8199     C
H        0.789   0.3917   0.8947     H
O       0.7891    0.548   0.0047     O
O       0.7896   0.9435   0.4389     O
H       0.7917   0.0055    0.617     H
O        0.792   0.2887   0.7309     O
H       0.7929   0.1546   0.8719     H
H       0.7935   0.2831   0.6632     H
N       0.7936   0.7373   0.0371     N
C       0.7944    0.603   0.3026     C
H       0.7975   0.1758   0.7877     H
O       0.7988   0.2396   0.7814     O
N       0.7998   0.2435   0.5371     N
C       0.8004   0.4918   0.1974     C
C       0.8009   0.6717   0.3068     C
O       0.8026   0.3514   0.8376     O
C       0.8026   0.7944    0.103     C
C       0.8028   0.8058    0.239     C
O        0.804   0.4513   0.9621     O
C       0.8041    0.582   0.2731     C
C       0.8053   0.6831   0.9904     C
C       0.8058    0.739   0.3028     C
N       0.8061   0.0561     0.75     N
C       0.8068   0.8009   0.1717     C
C       0.8073   0.1851   0.4904     C
C       0.8082   0.6849   0.6759     C
C       0.8086   0.3004    0.603     C
C       0.8087   0.6273    0.622     C
C       0.8089    0.531   0.2269     C
C       0.8103   0.4908   0.1335     C
C       0.8121   0.7112   0.0311     C
C       0.8124   0.7641   0.0823     C
C       0.8133    0.622   0.9947     C
C       0.8149   0.0096   0.6927     C
C       0.8151   0.1233    0.491     C
C       0.8169   0.1222   0.8073     C
C       0.8181    0.652   0.3275     C
C       0.8182   0.2699   0.5823     C
C       0.8184   0.0563   0.4869     C
C       0.8185   0.9929   0.5566     C
C       0.8186   0.0053   0.6273     C
C       0.8195   0.3103   0.6768     C
C       0.8199    0.219   0.5311     C
O       0.8199    0.834   0.2789     O
C       0.8208   0.0496   0.7206     C
C       0.8222   0.7163   0.3255     C
C       0.8226   0.4956    0.073     C
C       0.8232   0.1805   0.1897     C
C       0.8241   0.1918   0.8151     C
H       0.8242   0.7123   0.7025     H
C       0.8245   0.4906   0.1725     C
H       0.8253    0.617   0.6115     H
C       0.8255   0.8222   0.2163     C
C       0.8256   0.5637   0.0071     C
C        0.827   0.3226   0.7496     C
C       0.8275   0.8181    0.152     C
C       0.8282   0.6673   0.6593     C
C       0.8283   0.1292   0.1351     C
C        0.829   0.1002   0.7794     C
C       0.8311   0.6593    0.992     C
C       0.8315   0.2621   0.8184     C
C       0.8327   0.1609    0.492     C
Zn     0.83386  0.83386  0.33386    Zn
C       0.8339   0.3245    0.652     C
O        0.834   0.7789   0.3199     O
C       0.8367    0.493   0.1145     C
H       0.8368   0.2065   0.2169     H
O       0.8376   0.9862    0.535     O
C       0.8377   0.6011    0.998     C
C       0.8385   0.1006   0.4911     C
C       0.8391    0.008   0.6673     C
C       0.8397    0.002   0.6031     C
C       0.8407   0.1718   0.8327     C
C       0.8408   0.6078   0.2642     C
O       0.8419   0.0379   0.4892     O
Zn     0.84288  0.99007  0.48781    Zn
C       0.8436   0.5766   0.2358     C
C       0.8437   0.3367   0.7222     C
C       0.8449    0.721   0.0741     C
H       0.8454   0.6281   0.7071     H
C       0.8456   0.7556   0.1064     C
H       0.8458   0.7152   0.6186     H
H       0.8459   0.1201   0.1254     H
O       0.8461   0.4954   0.0565     O
C       0.8474   0.2379   0.8385     C
C        0.848   0.1661   0.1755     C
O       0.8507   0.3461   0.7896     O
C       0.8508   0.2608   0.6064     C
O       0.8514   0.5488   0.0138     O
O       0.8527    0.304   0.8419     O
Zn     0.85281  0.49774  0.00993    Zn
C       0.8531   0.2292   0.5741     C
C       0.8547   0.0919    0.731     C
Zn     0.85507  0.35281  0.84288    Zn
H       0.8573   0.6387   0.2764     H
C       0.8573   0.6768   0.3665     C
C       0.8608   0.7427   0.3659     C
C       0.8609   0.1237    0.769     C
H       0.8613   0.2186   0.1377     H
H       0.8617   0.7071    0.079     H
H       0.8623   0.5809   0.2236     H
H       0.8626   0.1328   0.2266     H
H        0.864   0.7702   0.1374     H
C       0.8649   0.4941   0.1932     C
C       0.8659   0.8608   0.2427     C
C       0.8665   0.8573   0.1768     C
H       0.8672   0.2734   0.6374     H
C       0.8677   0.6759    0.991     C
H       0.8694   0.0966   0.7152     H
H       0.8697   0.6632   0.3801     H
C       0.8708   0.3649   0.6717     C
H       0.8719   0.2173    0.579     H
C       0.8727   0.1814   0.4947     C
H       0.8746   0.4947   0.2205     H
H       0.8746   0.7738   0.3798     H
C       0.8753   0.6175   0.9954     C
C       0.8761   0.6469    0.721     C
C       0.8763    0.731   0.6391     C
C       0.8767    0.009   0.6849     C
C       0.8768   0.4949   0.1341     C
C       0.8778   0.6927   0.6831     C
C       0.8779   0.1201   0.4954     C
C        0.878   0.1913   0.8727     C
H       0.8783   0.7025   0.9902     H
C       0.8785   0.7222   0.3855     C
H       0.8798   0.8746   0.2738     H
C       0.8799   0.0046   0.6221     C
H       0.8799   0.3746   0.6541     H
H       0.8801   0.8697   0.1632     H
H       0.8814   0.1542   0.7848     H
C       0.8819   0.3768   0.7427     C
C       0.8825   0.2578   0.8779     C
H        0.883   0.2083   0.4945     H
C       0.8855   0.8785   0.2222     C
H       0.8881   0.0098   0.7123     H
H       0.8885   0.1747    0.883     H
C       0.8905   0.6526   0.9911     C
C       0.8908   0.4967   0.1745     C
H       0.8917   0.6027    0.997     H
C       0.8922    0.233   0.1564     C
C       0.8936   0.1492   0.2392     C
H        0.894   0.4948   0.1202     H
C       0.8941   0.3908   0.7163     C
H       0.8943   0.1053    0.497     H
H       0.8947    0.003   0.6057     H
C       0.8969   0.1603    0.498     C
C        0.897   0.1914   0.1996     C
H       0.8973    0.289   0.8943     H
C       0.8989   0.2366   0.8969     C
C       0.8991   0.6801   0.7112     C
H       0.8992    0.394   0.7738     H
C       0.8994   0.0089   0.6615     C
C       0.8998   0.7206    0.671     C
H       0.9034   0.7848   0.6306     H
H       0.9062   0.6328   0.7702     H
C       0.9081    0.769   0.6453     C
C         0.91   0.6492   0.7556     C
C       0.9177   0.1818   0.2301     C
C        0.918   0.2221   0.1911     C
H       0.9191   0.2814   0.1427     H
H        0.921   0.1281   0.2827     H
C       0.9226   0.7496    0.427     C
C       0.9234    0.267   0.1592     C
C       0.9259   0.1469   0.2708     C
C        0.927   0.9226   0.2496     C
C       0.9306   0.6685   0.9869     C
C       0.9332   0.4362    0.739     C
C       0.9362    0.503   0.1972     C
C       0.9363   0.2619   0.9434     C
O       0.9389   0.7309   0.4422     O
O       0.9389   0.7896   0.4435     O
O       0.9408   0.7012   0.9826     O
O       0.9422   0.9389   0.2309     O
C       0.9434   0.1815   0.5071     C
O       0.9435   0.9389   0.2896     O
C       0.9437   0.0131   0.6816     C
N       0.9437   0.7002   0.7373     N
N       0.9439     0.75   0.6939     N
O       0.9449    0.459   0.7789     O
O       0.9472   0.4982   0.2298     O
O        0.949   0.4472   0.7174     O
C       0.9504   0.7794   0.6792     C
O       0.9512   0.3026    0.965     O
O       0.9513   0.6473   0.9892     O
C       0.9517   0.6818   0.7641     C
O        0.952   0.2411   0.9567     O
O       0.9567   0.2156   0.5047     O
O       0.9582   0.0174   0.7186     O
O        0.959   0.5141   0.1801     O
O       0.9621   0.0108   0.6581     O
N       0.9621     0.25   0.2121     N
N       0.9629   0.2002   0.2565     N
O        0.965   0.1624   0.5138     O
C       0.9689   0.1801    0.281     C
C        0.969   0.2779   0.1959     C
O       0.9826   0.7814   0.5418     O
O       0.9859   0.4449    0.166     O
O       0.9862    0.035   0.3376     O
C       0.9869   0.8184   0.5563     C
Zn     0.98781  0.84288  0.49007    Zn
Zn     0.98874  0.74872  0.49408    Zn
O       0.9892   0.8419   0.5379     O
H       0.9896   0.7065   0.8697     H
Zn     0.99007  0.98781  0.34288    Zn
H       0.9902   0.7877   0.6119     H
C       0.9904   0.8073   0.6851     C
C       0.9906   0.6661   0.8181     C
C       0.9908   0.6805   0.8573     C
C        0.991   0.8151   0.6233     C
C       0.9911   0.8385   0.6006     C
Zn     0.99119     0.75  0.74119    Zn
C       0.9918   0.6914   0.7944     C
C        0.992   0.8327   0.6609     C
C       0.9929   0.0566   0.3185     C
C        0.993   0.6563   0.8785     C
Zn     0.99408  0.98874  0.24872    Zn
C       0.9941   0.6292   0.8009     C
H       0.9945    0.883   0.7083     H
Zn     0.99466  0.74002  0.98874    Zn
H       0.9947   0.6201   0.7742     H
C       0.9947   0.8727   0.6814     C
H       0.9948   0.6008   0.8746     H
C       0.9949   0.6181   0.8608     C
O       0.9953   0.0433   0.2844     O
O       0.9954   0.6493   0.9389     O
C       0.9954   0.8779   0.6201     C
C       0.9956    0.673   0.9226     C
C       0.9967   0.6059   0.8222     C
O       0.9967    0.708   0.9389     O
C        0.997   0.4332   0.1942     C
H        0.997   0.8943   0.6053     H
Zn     0.99774  0.64493  0.98781    Zn
C        0.998   0.8969   0.6603     C
O       0.9982    0.551   0.7684     O
Zn         1.0      0.5  0.16614    Zn
Zn         1.0      0.5  0.26202    Zn
Zn         1.0      0.5  0.73798    Zn
Zn         1.0      0.5  0.83386    Zn
