data_I
_chemical_name_common  '/home/zhangsd/repos/MofS-CGCNN/ML/data/TSD/clean_cifs/VEJHID_clean'
_cell_length_a 22.52100
_cell_length_b 22.52100
_cell_length_c 22.52100
_cell_angle_alpha 90.00000
_cell_angle_beta  90.00000
_cell_angle_gamma 90.00000
_space_group_name_H-M_alt      'P 1'


loop_
_space_group_symop_operation_xyz
  'x, y, z' 

loop_
_atom_site_label
_atom_site_fract_x
_atom_site_fract_y
_atom_site_fract_z
_atom_site_type_symbol
Cd         0.0      0.0    0.462    Cd
Cd         0.0      0.0    0.538    Cd
N          0.0   0.0957      0.5     N
Cd         0.0    0.462      0.0    Cd
N          0.0      0.5   0.0957     N
N          0.0      0.5   0.9043     N
Cd         0.0    0.538      0.0    Cd
N          0.0   0.9043      0.5     N
C       0.0301   0.1927      0.5     C
C       0.0301      0.5   0.1927     C
C       0.0301      0.5   0.8073     C
C       0.0301   0.8073      0.5     C
C       0.0509   0.1309      0.5     C
C       0.0509      0.5   0.1309     C
C       0.0509      0.5   0.8691     C
C       0.0509   0.8691      0.5     C
H       0.0542   0.2262      0.5     H
H       0.0542      0.5   0.2262     H
H       0.0542      0.5   0.7738     H
H       0.0542   0.7738      0.5     H
N       0.0957      0.0      0.5     N
N       0.0957      0.5      0.0     N
C       0.1091   0.1091      0.5     C
C       0.1091      0.5   0.1091     C
C       0.1091      0.5   0.8909     C
C       0.1091   0.8909      0.5     C
C       0.1309   0.0509      0.5     C
C       0.1309      0.5   0.0509     C
C       0.1309      0.5   0.9491     C
C       0.1309   0.9491      0.5     C
C        0.156    0.156      0.5     C
C        0.156      0.5    0.156     C
C        0.156      0.5    0.844     C
C        0.156    0.844      0.5     C
H       0.1632   0.1632   0.4111     H
H       0.1632   0.1632   0.5889     H
H       0.1632   0.4111   0.1632     H
H       0.1632   0.4111   0.8368     H
H       0.1632   0.5889   0.1632     H
H       0.1632   0.5889   0.8368     H
H       0.1632   0.8368   0.4111     H
H       0.1632   0.8368   0.5889     H
C       0.1777   0.1777   0.4469     C
C       0.1777   0.1777   0.5531     C
C       0.1777   0.4469   0.1777     C
C       0.1777   0.4469   0.8223     C
C       0.1777   0.5531   0.1777     C
C       0.1777   0.5531   0.8223     C
C       0.1777   0.8223   0.4469     C
C       0.1777   0.8223   0.5531     C
C       0.1927   0.0301      0.5     C
C       0.1927      0.5   0.0301     C
C       0.1927      0.5   0.9699     C
C       0.1927   0.9699      0.5     C
C       0.2216   0.2216    0.447     C
C       0.2216   0.2216    0.553     C
C       0.2216    0.447   0.2216     C
C       0.2216    0.447   0.7784     C
C       0.2216    0.553   0.2216     C
C       0.2216    0.553   0.7784     C
C       0.2216   0.7784    0.447     C
C       0.2216   0.7784    0.553     C
O       0.2251   0.2251   0.3446     O
O       0.2251   0.2251   0.6554     O
O       0.2251   0.3446   0.2251     O
O       0.2251   0.3446   0.7749     O
O       0.2251   0.6554   0.2251     O
O       0.2251   0.6554   0.7749     O
O       0.2251   0.7749   0.3446     O
O       0.2251   0.7749   0.6554     O
H       0.2262   0.0542      0.5     H
H       0.2262      0.5   0.0542     H
H       0.2262      0.5   0.9458     H
H       0.2262   0.9458      0.5     H
C       0.2427   0.2427      0.5     C
C       0.2427      0.5   0.2427     C
C       0.2427      0.5   0.7573     C
C       0.2427   0.7573      0.5     C
C       0.2445   0.2445   0.3894     C
C       0.2445   0.2445   0.6106     C
C       0.2445   0.3894   0.2445     C
C       0.2445   0.3894   0.7555     C
C       0.2445   0.6106   0.2445     C
C       0.2445   0.6106   0.7555     C
C       0.2445   0.7555   0.3894     C
C       0.2445   0.7555   0.6106     C
H       0.2719   0.2719      0.5     H
H       0.2719      0.5   0.2719     H
H       0.2719      0.5   0.7281     H
H       0.2719   0.7281      0.5     H
O       0.2829   0.2829   0.3924     O
O       0.2829   0.2829   0.6076     O
O       0.2829   0.3924   0.2829     O
O       0.2829   0.3924   0.7171     O
O       0.2829   0.6076   0.2829     O
O       0.2829   0.6076   0.7171     O
O       0.2829   0.7171   0.3924     O
O       0.2829   0.7171   0.6076     O
Cd     0.28534  0.28534  0.28534    Cd
Cd     0.28534  0.28534  0.71466    Cd
Cd     0.28534  0.71466  0.28534    Cd
Cd     0.28534  0.71466  0.71466    Cd
O       0.3446   0.2251   0.2251     O
O       0.3446   0.2251   0.7749     O
O       0.3446   0.7749   0.2251     O
O       0.3446   0.7749   0.7749     O
C       0.3894   0.2445   0.2445     C
C       0.3894   0.2445   0.7555     C
C       0.3894   0.7555   0.2445     C
C       0.3894   0.7555   0.7555     C
O       0.3924   0.2829   0.2829     O
O       0.3924   0.2829   0.7171     O
O       0.3924   0.7171   0.2829     O
O       0.3924   0.7171   0.7171     O
H       0.4111   0.1632   0.1632     H
H       0.4111   0.1632   0.8368     H
H       0.4111   0.8368   0.1632     H
H       0.4111   0.8368   0.8368     H
C       0.4469   0.1777   0.1777     C
C       0.4469   0.1777   0.8223     C
C       0.4469   0.8223   0.1777     C
C       0.4469   0.8223   0.8223     C
C        0.447   0.2216   0.2216     C
C        0.447   0.2216   0.7784     C
C        0.447   0.7784   0.2216     C
C        0.447   0.7784   0.7784     C
Cd       0.462      0.0      0.0    Cd
N          0.5      0.0   0.0957     N
N          0.5      0.0   0.9043     N
C          0.5   0.0301   0.1927     C
C          0.5   0.0301   0.8073     C
C          0.5   0.0509   0.1309     C
C          0.5   0.0509   0.8691     C
H          0.5   0.0542   0.2262     H
H          0.5   0.0542   0.7738     H
N          0.5   0.0957      0.0     N
C          0.5   0.1091   0.1091     C
C          0.5   0.1091   0.8909     C
C          0.5   0.1309   0.0509     C
C          0.5   0.1309   0.9491     C
C          0.5    0.156    0.156     C
C          0.5    0.156    0.844     C
C          0.5   0.1927   0.0301     C
C          0.5   0.1927   0.9699     C
H          0.5   0.2262   0.0542     H
H          0.5   0.2262   0.9458     H
C          0.5   0.2427   0.2427     C
C          0.5   0.2427   0.7573     C
H          0.5   0.2719   0.2719     H
H          0.5   0.2719   0.7281     H
H          0.5   0.7281   0.2719     H
H          0.5   0.7281   0.7281     H
C          0.5   0.7573   0.2427     C
C          0.5   0.7573   0.7573     C
H          0.5   0.7738   0.0542     H
H          0.5   0.7738   0.9458     H
C          0.5   0.8073   0.0301     C
C          0.5   0.8073   0.9699     C
C          0.5    0.844    0.156     C
C          0.5    0.844    0.844     C
C          0.5   0.8691   0.0509     C
C          0.5   0.8691   0.9491     C
C          0.5   0.8909   0.1091     C
C          0.5   0.8909   0.8909     C
N          0.5   0.9043      0.0     N
H          0.5   0.9458   0.2262     H
H          0.5   0.9458   0.7738     H
C          0.5   0.9491   0.1309     C
C          0.5   0.9491   0.8691     C
C          0.5   0.9699   0.1927     C
C          0.5   0.9699   0.8073     C
Cd       0.538      0.0      0.0    Cd
C        0.553   0.2216   0.2216     C
C        0.553   0.2216   0.7784     C
C        0.553   0.7784   0.2216     C
C        0.553   0.7784   0.7784     C
C       0.5531   0.1777   0.1777     C
C       0.5531   0.1777   0.8223     C
C       0.5531   0.8223   0.1777     C
C       0.5531   0.8223   0.8223     C
H       0.5889   0.1632   0.1632     H
H       0.5889   0.1632   0.8368     H
H       0.5889   0.8368   0.1632     H
H       0.5889   0.8368   0.8368     H
O       0.6076   0.2829   0.2829     O
O       0.6076   0.2829   0.7171     O
O       0.6076   0.7171   0.2829     O
O       0.6076   0.7171   0.7171     O
C       0.6106   0.2445   0.2445     C
C       0.6106   0.2445   0.7555     C
C       0.6106   0.7555   0.2445     C
C       0.6106   0.7555   0.7555     C
O       0.6554   0.2251   0.2251     O
O       0.6554   0.2251   0.7749     O
O       0.6554   0.7749   0.2251     O
O       0.6554   0.7749   0.7749     O
Cd     0.71466  0.28534  0.28534    Cd
Cd     0.71466  0.28534  0.71466    Cd
Cd     0.71466  0.71466  0.28534    Cd
Cd     0.71466  0.71466  0.71466    Cd
O       0.7171   0.2829   0.3924     O
O       0.7171   0.2829   0.6076     O
O       0.7171   0.3924   0.2829     O
O       0.7171   0.3924   0.7171     O
O       0.7171   0.6076   0.2829     O
O       0.7171   0.6076   0.7171     O
O       0.7171   0.7171   0.3924     O
O       0.7171   0.7171   0.6076     O
H       0.7281   0.2719      0.5     H
H       0.7281      0.5   0.2719     H
H       0.7281      0.5   0.7281     H
H       0.7281   0.7281      0.5     H
C       0.7555   0.2445   0.3894     C
C       0.7555   0.2445   0.6106     C
C       0.7555   0.3894   0.2445     C
C       0.7555   0.3894   0.7555     C
C       0.7555   0.6106   0.2445     C
C       0.7555   0.6106   0.7555     C
C       0.7555   0.7555   0.3894     C
C       0.7555   0.7555   0.6106     C
C       0.7573   0.2427      0.5     C
C       0.7573      0.5   0.2427     C
C       0.7573      0.5   0.7573     C
C       0.7573   0.7573      0.5     C
H       0.7738   0.0542      0.5     H
H       0.7738      0.5   0.0542     H
H       0.7738      0.5   0.9458     H
H       0.7738   0.9458      0.5     H
O       0.7749   0.2251   0.3446     O
O       0.7749   0.2251   0.6554     O
O       0.7749   0.3446   0.2251     O
O       0.7749   0.3446   0.7749     O
O       0.7749   0.6554   0.2251     O
O       0.7749   0.6554   0.7749     O
O       0.7749   0.7749   0.3446     O
O       0.7749   0.7749   0.6554     O
C       0.7784   0.2216    0.447     C
C       0.7784   0.2216    0.553     C
C       0.7784    0.447   0.2216     C
C       0.7784    0.447   0.7784     C
C       0.7784    0.553   0.2216     C
C       0.7784    0.553   0.7784     C
C       0.7784   0.7784    0.447     C
C       0.7784   0.7784    0.553     C
C       0.8073   0.0301      0.5     C
C       0.8073      0.5   0.0301     C
C       0.8073      0.5   0.9699     C
C       0.8073   0.9699      0.5     C
C       0.8223   0.1777   0.4469     C
C       0.8223   0.1777   0.5531     C
C       0.8223   0.4469   0.1777     C
C       0.8223   0.4469   0.8223     C
C       0.8223   0.5531   0.1777     C
C       0.8223   0.5531   0.8223     C
C       0.8223   0.8223   0.4469     C
C       0.8223   0.8223   0.5531     C
H       0.8368   0.1632   0.4111     H
H       0.8368   0.1632   0.5889     H
H       0.8368   0.4111   0.1632     H
H       0.8368   0.4111   0.8368     H
H       0.8368   0.5889   0.1632     H
H       0.8368   0.5889   0.8368     H
H       0.8368   0.8368   0.4111     H
H       0.8368   0.8368   0.5889     H
C        0.844    0.156      0.5     C
C        0.844      0.5    0.156     C
C        0.844      0.5    0.844     C
C        0.844    0.844      0.5     C
C       0.8691   0.0509      0.5     C
C       0.8691      0.5   0.0509     C
C       0.8691      0.5   0.9491     C
C       0.8691   0.9491      0.5     C
C       0.8909   0.1091      0.5     C
C       0.8909      0.5   0.1091     C
C       0.8909      0.5   0.8909     C
C       0.8909   0.8909      0.5     C
N       0.9043      0.0      0.5     N
N       0.9043      0.5      0.0     N
H       0.9458   0.2262      0.5     H
H       0.9458      0.5   0.2262     H
H       0.9458      0.5   0.7738     H
H       0.9458   0.7738      0.5     H
C       0.9491   0.1309      0.5     C
C       0.9491      0.5   0.1309     C
C       0.9491      0.5   0.8691     C
C       0.9491   0.8691      0.5     C
C       0.9699   0.1927      0.5     C
C       0.9699      0.5   0.1927     C
C       0.9699      0.5   0.8073     C
C       0.9699   0.8073      0.5     C
