data_I
_chemical_name_common  '/home/zhangsd/repos/MofS-CGCNN/ML/data/TSD/clean_cifs/VEMDAT_clean'
_cell_length_a 13.53960
_cell_length_b 30.43800
_cell_length_c 15.72170
_cell_angle_alpha 90.00000
_cell_angle_beta  110.53500
_cell_angle_gamma 90.00000
_space_group_name_H-M_alt      'P 1'


loop_
_space_group_symop_operation_xyz
  'x, y, z' 

loop_
_atom_site_label
_atom_site_fract_x
_atom_site_fract_y
_atom_site_fract_z
_atom_site_type_symbol
C        0.005  0.58747   0.2953     C
C        0.005  0.91253   0.7953     C
C       0.0142  0.53536   0.8964     C
C       0.0142  0.96464   0.3964     C
H       0.0206    0.055   0.0183     H
H       0.0206    0.445   0.5183     H
H       0.0241   0.0308   0.3955     H
H       0.0241   0.4692   0.8955     H
C       0.0379  0.57285   0.3844     C
C       0.0379  0.92715   0.8844     C
C       0.0395  0.06368   0.0786     C
C       0.0395  0.43632   0.5786     C
H       0.0448   0.6002   0.9201     H
H       0.0448   0.8998   0.4201     H
H       0.0542   0.5952    0.269     H
H       0.0542   0.9048    0.769     H
C       0.0629   0.0052   0.4158     C
C       0.0629   0.4948   0.9158     C
C       0.0751  0.57233   0.9301     C
C       0.0751  0.92767   0.4301     C
C       0.1006  0.03878   0.6573     C
C       0.1006  0.46122   0.1573     C
C       0.1021  0.09052   0.2543     C
C       0.1021  0.40948   0.7543     C
H       0.1102   0.5139   0.2377     H
H       0.1102   0.9861   0.7377     H
H       0.1232   0.1001   0.3143     H
H       0.1232   0.3999   0.8143     H
H       0.1339   0.5192    0.522     H
H       0.1339   0.9808    0.022     H
H       0.1341   0.0932   0.5973     H
H       0.1341   0.4068   0.0973     H
C       0.1445  0.06759   0.1323     C
C       0.1445  0.43241   0.6323     C
C       0.1489   0.0091    0.726     C
C       0.1489   0.4909    0.226     C
O       0.1515   0.1982   0.4295     O
O       0.1515   0.3018   0.9295     O
C       0.1517  0.56695   0.4395     C
C       0.1517  0.93305   0.9395     C
C       0.1631  0.07254   0.6427     C
C       0.1631  0.42746   0.1427     C
O       0.1649   0.6856   0.2802     O
O       0.1649   0.8144   0.7802     O
C       0.1694  0.00755   0.4654     C
C       0.1694  0.49245   0.9654     C
O       0.1716   0.2054   0.5738     O
O       0.1716   0.2946   0.0738     O
N       0.1762  0.08028   0.2195     N
N       0.1762  0.41972   0.7195     N
C       0.1816  0.56727    0.979     C
C       0.1816  0.93273    0.479     C
C       0.1837   0.5365   0.5095     C
C       0.1837   0.9635   0.0095     C
O       0.1862   0.6686   0.1421     O
O       0.1862   0.8314   0.6421     O
H       0.1954   0.0611    0.107     H
H       0.1954   0.4389    0.607     H
H       0.2012   0.0351   0.4772     H
H       0.2012   0.4649   0.9772     H
H       0.2132   0.6115   0.3752     H
H       0.2132   0.8885   0.8752     H
S      0.21429  0.21569  0.51121     S
S      0.21429  0.28431  0.01121     S
H       0.2221   0.5923   0.0001     H
H       0.2221   0.9077   0.5001     H
S      0.22681  0.69025  0.22576     S
S      0.22681  0.80975  0.72576     S
O        0.229   0.2439    0.051     O
O        0.229   0.2561    0.551     O
N        0.229   0.5282   0.9973     N
N        0.229   0.9718   0.4973     N
H       0.2297   0.1678   0.2309     H
H       0.2297   0.3322   0.7309     H
C       0.2305  0.59116   0.4224     C
C       0.2305  0.90884   0.9224     C
O       0.2402   0.2402   0.9788     O
O       0.2402   0.2598   0.4788     O
O       0.2498   0.7347    0.213     O
O       0.2498   0.7653    0.713     O
C        0.255   0.0137   0.7774     C
C        0.255   0.4863   0.2774     C
H        0.258    0.242   0.2493     H
H        0.258    0.258   0.7493     H
C       0.2691  0.07464    0.697     C
C       0.2691  0.42536    0.197     C
H       0.2786   0.1305   0.4789     H
H       0.2786   0.3695   0.9789     H
H       0.2862   0.5068   0.3227     H
H       0.2862   0.9932   0.8227     H
H       0.2892   0.1983   0.8513     H
H       0.2892   0.3017   0.3513     H
C       0.2895  0.53177   0.5607     C
C       0.2895  0.96823   0.0607     C
C       0.2966  0.17771   0.2658     C
C       0.2966  0.32229   0.7658     C
H        0.309   0.5111   0.6072     H
H        0.309   0.9889   0.1072     H
H       0.3102   0.0968   0.6857     H
H       0.3102   0.4032   0.1857     H
C       0.3128  0.22243   0.2767     C
C       0.3128  0.27757   0.7767     C
N        0.315  0.04646   0.7646     N
N        0.315  0.45354   0.2646     N
H       0.3179   0.6071   0.2221     H
H       0.3179   0.8929   0.7221     H
H       0.3197   0.1243   0.8693     H
H       0.3197   0.3757   0.3693     H
Zn     0.33333  0.08294  0.29189    Zn
Zn     0.33333  0.41706  0.79189    Zn
C       0.3346   0.5844   0.4769     C
C       0.3346   0.9156   0.9769     C
C       0.3361  0.18722   0.5463     C
C       0.3361  0.31278   0.0463     C
C       0.3402  0.14436   0.5152     C
C       0.3402  0.35564   0.0152     C
C       0.3502  0.66572   0.2873     C
C       0.3502  0.83428   0.7873     C
O       0.3512  0.06022  0.41082     O
O       0.3512  0.43978  0.91082     O
C       0.3531   0.1867   0.8521     C
C       0.3531   0.3133   0.3521     C
N        0.365  0.55574   0.5461     N
N        0.365  0.94426   0.0461     N
C       0.3699  0.62281   0.2665     C
C       0.3699  0.87719   0.7665     C
C       0.3716  0.14214   0.8615     C
C       0.3716  0.35786   0.3615     C
N       0.3721  0.14792   0.3029     N
N       0.3721  0.35208   0.8029     N
Zn     0.38628  0.52324  0.06956    Zn
Zn     0.38628  0.97676  0.56956    Zn
H       0.3864   0.6006   0.4648     H
H       0.3864   0.8994   0.9648     H
H         0.39   0.1153   0.0926     H
H         0.39   0.3847   0.5926     H
O      0.39524  0.04885  0.22256     O
O      0.39524  0.45115  0.72256     O
H       0.4013   0.6375   0.6462     H
H       0.4013   0.8625   0.1462     H
O       0.4076  0.53838   0.1924     O
O       0.4076  0.96162   0.6924     O
H       0.4082   0.6311   0.8932     H
H       0.4082   0.8689   0.3932     H
H       0.4108    0.717   0.3695     H
H       0.4108    0.783   0.8695     H
C       0.4124  0.23789   0.3293     C
C       0.4124  0.26211   0.8293     C
H        0.419   0.7008   0.8385     H
H        0.419   0.7126   0.6571     H
H        0.419   0.7874   0.1571     H
H        0.419   0.7992   0.3385     H
H         0.42   0.2362     0.62     H
H         0.42   0.2638     0.12     H
C       0.4241  0.20782   0.5996     C
C       0.4241  0.29218   0.0996     C
C       0.4254  0.68882   0.3545     C
C       0.4254  0.81118   0.8545     C
H       0.4262   0.1856   0.0552     H
H       0.4262   0.3144   0.5552     H
O       0.4311  0.03731  0.57253     O
O       0.4311  0.46269  0.07253     O
C       0.4316  0.21422   0.8438     C
C       0.4316  0.28578   0.3438     C
C       0.4358   0.1228   0.5385     C
C       0.4358   0.3772   0.0385     C
H       0.4409   0.7158   0.0979     H
H       0.4409   0.7842   0.5979     H
P      0.44306  0.06752  0.49939     P
P      0.44306  0.43248  0.99939     P
O       0.4502  0.56418   0.0108     O
O       0.4502  0.93582   0.5108     O
C       0.4561  0.12756   0.1222     C
C       0.4561  0.37244   0.6222     C
N       0.4603  0.12298   0.8602     N
N       0.4603  0.37702   0.3602     N
C       0.4641  0.64997   0.6465     C
C       0.4641  0.85003   0.1465     C
C       0.4671   0.6034    0.312     C
C       0.4671   0.8966    0.812     C
C       0.4678  0.16273   0.3523     C
C       0.4678  0.33727   0.8523     C
C       0.4735  0.64479   0.9079     C
C       0.4735  0.85521   0.4079     C
C       0.4741  0.69526   0.6538     C
C       0.4741  0.80474   0.1538     C
Zn      0.4757  0.05073  0.85948    Zn
Zn      0.4757  0.44927  0.35948    Zn
C       0.4774  0.16998   0.1003     C
C       0.4774  0.33002   0.6003     C
H       0.4787   0.6424    0.122     H
H       0.4787   0.8576    0.622     H
C       0.4796  0.68683   0.8761     C
C       0.4796  0.81317   0.3761     C
O      0.49013  0.51759  0.35827     O
O      0.49013  0.98241  0.85827     O
C       0.4913  0.20685   0.3672     C
C       0.4913  0.29315   0.8672     C
P      0.49392   0.5482  0.28262     P
P      0.49392   0.9518  0.78262     P
P      0.50608   0.0482  0.21738     P
P      0.50608   0.4518  0.71738     P
C       0.5087  0.70685   0.1328     C
C       0.5087  0.79315   0.6328     C
O      0.50987  0.01759  0.14173     O
O      0.50987  0.48241  0.64173     O
C       0.5204  0.18683   0.6239     C
C       0.5204  0.31317   0.1239     C
H       0.5213   0.1424    0.378     H
H       0.5213   0.3576    0.878     H
C       0.5226  0.66998   0.3997     C
C       0.5226  0.83002   0.8997     C
Zn      0.5243  0.55073  0.64052    Zn
Zn      0.5243  0.94927  0.14052    Zn
C       0.5259  0.19526   0.8462     C
C       0.5259  0.30474   0.3462     C
C       0.5265  0.14479   0.5921     C
C       0.5265  0.35521   0.0921     C
C       0.5322  0.66273   0.1477     C
C       0.5322  0.83727   0.6477     C
C       0.5329   0.1034    0.188     C
C       0.5329   0.3966    0.688     C
C       0.5359  0.14997   0.8535     C
C       0.5359  0.35003   0.3535     C
N       0.5397  0.62298   0.6398     N
N       0.5397  0.87702   0.1398     N
C       0.5439  0.62756   0.3778     C
C       0.5439  0.87244   0.8778     C
O       0.5498  0.06418   0.4892     O
O       0.5498  0.43582   0.9892     O
P      0.55694  0.56752  0.00061     P
P      0.55694  0.93248  0.50061     P
H       0.5591   0.2158   0.4021     H
H       0.5591   0.2842   0.9021     H
C       0.5642   0.6228   0.9615     C
C       0.5642   0.8772   0.4615     C
C       0.5684  0.71422   0.6562     C
C       0.5684  0.78578   0.1562     C
O       0.5689  0.53731  0.92747     O
O       0.5689  0.96269  0.42747     O
H       0.5738   0.6856   0.4448     H
H       0.5738   0.8144   0.9448     H
C       0.5746  0.18882   0.1455     C
C       0.5746  0.31118   0.6455     C
C       0.5759  0.70782   0.9004     C
C       0.5759  0.79218   0.4004     C
H         0.58   0.7362     0.88     H
H         0.58   0.7638     0.38     H
H        0.581   0.2008   0.6615     H
H        0.581   0.2126   0.8429     H
H        0.581   0.2874   0.3429     H
H        0.581   0.2992   0.1615     H
C       0.5876  0.73789   0.1707     C
C       0.5876  0.76211   0.6707     C
H       0.5892    0.217   0.1305     H
H       0.5892    0.283   0.6305     H
H       0.5918   0.1311   0.6068     H
H       0.5918   0.3689   0.1068     H
O       0.5924  0.03838   0.3076     O
O       0.5924  0.46162   0.8076     O
H       0.5987   0.1375   0.8538     H
H       0.5987   0.3625   0.3538     H
O      0.60476  0.54885  0.27744     O
O      0.60476  0.95115  0.77744     O
H         0.61   0.6153   0.4074     H
H         0.61   0.8847   0.9074     H
H       0.6136   0.1006   0.0352     H
H       0.6136   0.3994   0.5352     H
Zn     0.61372  0.02324  0.43044    Zn
Zn     0.61372  0.47676  0.93044    Zn
N       0.6279  0.64792   0.1971     N
N       0.6279  0.85208   0.6971     N
C       0.6284  0.64214   0.6385     C
C       0.6284  0.85786   0.1385     C
C       0.6301  0.12281   0.2335     C
C       0.6301  0.37719   0.7335     C
N        0.635  0.05574   0.9539     N
N        0.635  0.44426   0.4539     N
C       0.6469   0.6867   0.6479     C
C       0.6469   0.8133   0.1479     C
O       0.6488  0.56022  0.08918     O
O       0.6488  0.93978  0.58918     O
C       0.6498  0.16572   0.2127     C
C       0.6498  0.33428   0.7127     C
C       0.6598  0.64436   0.9848     C
C       0.6598  0.85564   0.4848     C
C       0.6639  0.68722   0.9537     C
C       0.6639  0.81278   0.4537     C
C       0.6654   0.0844   0.0231     C
C       0.6654   0.4156   0.5231     C
Zn     0.66667  0.58294  0.20811    Zn
Zn     0.66667  0.91706  0.70811    Zn
H       0.6803   0.6243   0.6307     H
H       0.6803   0.8757   0.1307     H
H       0.6821   0.1071   0.2779     H
H       0.6821   0.3929   0.7779     H
N        0.685  0.54646   0.7354     N
N        0.685  0.95354   0.2354     N
C       0.6872  0.72243   0.2233     C
C       0.6872  0.77757   0.7233     C
H       0.6898   0.5968   0.8143     H
H       0.6898   0.9032   0.3143     H
H        0.691   0.0111   0.8928     H
H        0.691   0.4889   0.3928     H
C       0.7034  0.67771   0.2342     C
C       0.7034  0.82229   0.7342     C
C       0.7105  0.03177   0.9393     C
C       0.7105  0.46823   0.4393     C
H       0.7108   0.6983   0.6487     H
H       0.7108   0.8017   0.1487     H
H       0.7138   0.0068   0.1773     H
H       0.7138   0.4932   0.6773     H
H       0.7214   0.6305   0.0211     H
H       0.7214   0.8695   0.5211     H
C       0.7309  0.57464    0.803     C
C       0.7309  0.92536    0.303     C
H        0.742    0.742   0.2507     H
H        0.742    0.758   0.7507     H
C        0.745   0.5137   0.7226     C
C        0.745   0.9863   0.2226     C
O       0.7502   0.2347    0.287     O
O       0.7502   0.2653    0.787     O
O       0.7598   0.7402   0.5212     O
O       0.7598   0.7598   0.0212     O
C       0.7695  0.09116   0.0776     C
C       0.7695  0.40884   0.5776     C
H       0.7703   0.6678   0.2691     H
H       0.7703   0.8322   0.7691     H
N        0.771   0.0282   0.5027     N
N        0.771   0.4718   0.0027     N
O        0.771   0.7439    0.449     O
O        0.771   0.7561    0.949     O
S      0.77319  0.19025  0.27424     S
S      0.77319  0.30975  0.77424     S
H       0.7779   0.0923   0.4999     H
H       0.7779   0.4077   0.9999     H
S      0.78571  0.71569  0.98879     S
S      0.78571  0.78431  0.48879     S
H       0.7868   0.1115   0.1248     H
H       0.7868   0.3885   0.6248     H
H       0.7988   0.5351   0.0228     H
H       0.7988   0.9649   0.5228     H
H       0.8046   0.5611    0.393     H
H       0.8046   0.9389    0.893     H
O       0.8138   0.1686   0.3579     O
O       0.8138   0.3314   0.8579     O
C       0.8163   0.0365   0.9905     C
C       0.8163   0.4635   0.4905     C
C       0.8184  0.06727    0.521     C
C       0.8184  0.43273    0.021     C
N       0.8238  0.58028   0.2805     N
N       0.8238  0.91972   0.7805     N
O       0.8284   0.7054   0.9262     O
O       0.8284   0.7946   0.4262     O
C       0.8306  0.50755   0.0346     C
C       0.8306  0.99245   0.5346     C
O       0.8351   0.1856   0.2198     O
O       0.8351   0.3144   0.7198     O
C       0.8369  0.57254   0.8573     C
C       0.8369  0.92746   0.3573     C
C       0.8483  0.06695   0.0605     C
C       0.8483  0.43305   0.5605     C
O       0.8485   0.6982   0.0705     O
O       0.8485   0.8018   0.5705     O
C       0.8511   0.5091    0.774     C
C       0.8511   0.9909    0.274     C
C       0.8555  0.56759   0.3677     C
C       0.8555  0.93241   0.8677     C
H       0.8659   0.5932   0.9027     H
H       0.8659   0.9068   0.4027     H
H       0.8661   0.0192    0.978     H
H       0.8661   0.4808    0.478     H
H       0.8768   0.6001   0.1857     H
H       0.8768   0.8999   0.6857     H
H       0.8898   0.0139   0.2623     H
H       0.8898   0.4861   0.7623     H
C       0.8979  0.59052   0.2457     C
C       0.8979  0.90948   0.7457     C
C       0.8994  0.53878   0.8427     C
C       0.8994  0.96122   0.3427     C
C       0.9249  0.07233   0.5699     C
C       0.9249  0.42767   0.0699     C
C       0.9371   0.5052   0.0842     C
C       0.9371   0.9948   0.5842     C
H       0.9458   0.0952    0.231     H
H       0.9458   0.4048    0.731     H
H       0.9552   0.1002   0.5799     H
H       0.9552   0.3998   0.0799     H
C       0.9605  0.56368   0.4214     C
C       0.9605  0.93632   0.9214     C
C       0.9621  0.07285   0.1156     C
C       0.9621  0.42715   0.6156     C
H       0.9759   0.5308   0.1045     H
H       0.9759   0.9692   0.6045     H
H       0.9794    0.555   0.4817     H
H       0.9794    0.945   0.9817     H
C       0.9858  0.03536   0.6036     C
C       0.9858  0.46464   0.1036     C
C        0.995  0.08747   0.2047     C
C        0.995  0.41253   0.7047     C
