data_I
_chemical_name_common  '/home/zhangsd/repos/MofS-CGCNN/ML/data/TSD/clean_cifs/VEMSUC_clean'
_cell_length_a 13.96660
_cell_length_b 15.93020
_cell_length_c 16.64790
_cell_angle_alpha 90.00000
_cell_angle_beta  90.00000
_cell_angle_gamma 90.00000
_space_group_name_H-M_alt      'P 1'


loop_
_space_group_symop_operation_xyz
  'x, y, z' 

loop_
_atom_site_label
_atom_site_fract_x
_atom_site_fract_y
_atom_site_fract_z
_atom_site_type_symbol
Ni         0.0      0.0      0.0    Ni
Ni         0.0      0.5      0.5    Ni
O      0.00215  0.63133  0.49539     O
O      0.00215  0.86867  0.99539     O
Ni     0.02002  0.68241  0.60634    Ni
Ni     0.02002  0.81759  0.10634    Ni
O      0.04394  0.72956  0.19452     O
O      0.04394  0.77044  0.69452     O
H       0.0449   0.2415   0.1426     H
H       0.0449   0.2585   0.6426     H
C       0.0503   0.1932   0.0283     C
C       0.0503   0.3068   0.5283     C
O      0.06378  0.50337  0.39149     O
O      0.06378  0.99663  0.89149     O
H       0.0676   0.6028   0.2793     H
H       0.0676   0.8972   0.7793     H
O      0.06938  0.24991  0.97981     O
O      0.06938  0.25009  0.47981     O
H       0.0695   0.1434   0.1409     H
H       0.0695   0.3566   0.6409     H
C       0.0814   0.1976   0.1149     C
C       0.0814   0.3024   0.6149     C
O      0.09358  0.12584  0.84136     O
O      0.09358  0.37416  0.34136     O
C       0.0975  0.04632  0.84051     C
C       0.0975  0.45368  0.34051     C
C       0.1063   0.6945   0.1505     C
C       0.1063   0.8055   0.6505     C
C       0.1133  0.57439  0.24696     C
C       0.1133  0.92561  0.74696     C
O      0.11705  0.60206  0.65185     O
O      0.11705  0.89794  0.15185     O
O      0.13006  0.72551  0.08417     O
O      0.13006  0.77449  0.58417     O
O      0.13181  0.50584  0.55283     O
O      0.13181  0.99416  0.05283     O
C       0.1444   0.0054  0.76909     C
C       0.1444   0.4946  0.26909     C
C       0.1486   0.6128  0.17808     C
C       0.1486   0.8872  0.67808     C
H       0.1498   0.2107   0.1175     H
H       0.1498   0.2893   0.6175     H
C       0.1568   0.5406   0.6174     C
C       0.1568   0.9594   0.1174     C
C       0.2158   0.0446  0.72507     C
C       0.2158   0.4554  0.22507     C
C       0.2209  0.57332  0.13432     C
C       0.2209  0.92668  0.63432     C
H       0.2366   0.0993   0.7395     H
H       0.2366   0.4007   0.2395     H
C       0.2427  0.50364  0.65948     C
C       0.2427  0.99636  0.15948     C
H       0.2454   0.5991   0.0871     H
H       0.2454   0.9009   0.5871     H
H       0.2546   0.0991   0.0871     H
H       0.2546   0.4009   0.5871     H
C       0.2573  0.00364  0.65948     C
C       0.2573  0.49636  0.15948     C
H       0.2634   0.5993   0.7395     H
H       0.2634   0.9007   0.2395     H
C       0.2791  0.07332  0.13432     C
C       0.2791  0.42668  0.63432     C
C       0.2842   0.5446  0.72507     C
C       0.2842   0.9554  0.22507     C
C       0.3432   0.0406   0.6174     C
C       0.3432   0.4594   0.1174     C
H       0.3502   0.7107   0.1175     H
H       0.3502   0.7893   0.6175     H
C       0.3514   0.1128  0.17808     C
C       0.3514   0.3872  0.67808     C
C       0.3556   0.5054  0.76909     C
C       0.3556   0.9946  0.26909     C
O      0.36819  0.00584  0.55283     O
O      0.36819  0.49416  0.05283     O
O      0.36994  0.22551  0.08417     O
O      0.36994  0.27449  0.58417     O
O      0.38295  0.10206  0.65185     O
O      0.38295  0.39794  0.15185     O
C       0.3867  0.07439  0.24696     C
C       0.3867  0.42561  0.74696     C
C       0.3937   0.1945   0.1505     C
C       0.3937   0.3055   0.6505     C
C       0.4025  0.54632  0.84051     C
C       0.4025  0.95368  0.34051     C
O      0.40642  0.62584  0.84136     O
O      0.40642  0.87416  0.34136     O
C       0.4186   0.6976   0.1149     C
C       0.4186   0.8024   0.6149     C
H       0.4305   0.6434   0.1409     H
H       0.4305   0.8566   0.6409     H
O      0.43062  0.74991  0.97981     O
O      0.43062  0.75009  0.47981     O
H       0.4324   0.1028   0.2793     H
H       0.4324   0.3972   0.7793     H
O      0.43622  0.00337  0.39149     O
O      0.43622  0.49663  0.89149     O
C       0.4497   0.6932   0.0283     C
C       0.4497   0.8068   0.5283     C
H       0.4551   0.7415   0.1426     H
H       0.4551   0.7585   0.6426     H
O      0.45606  0.22956  0.19452     O
O      0.45606  0.27044  0.69452     O
Ni     0.47998  0.18241  0.60634    Ni
Ni     0.47998  0.31759  0.10634    Ni
O      0.49785  0.13133  0.49539     O
O      0.49785  0.36867  0.99539     O
Ni         0.5      0.0      0.5    Ni
Ni         0.5      0.5      0.0    Ni
O      0.50215  0.63133  0.00461     O
O      0.50215  0.86867  0.50461     O
Ni     0.52002  0.68241  0.89366    Ni
Ni     0.52002  0.81759  0.39366    Ni
O      0.54394  0.72956  0.30548     O
O      0.54394  0.77044  0.80548     O
H       0.5449   0.2415   0.3574     H
H       0.5449   0.2585   0.8574     H
C       0.5503   0.1932   0.4717     C
C       0.5503   0.3068   0.9717     C
O      0.56378  0.50337  0.10851     O
O      0.56378  0.99663  0.60851     O
H       0.5676   0.6028   0.2207     H
H       0.5676   0.8972   0.7207     H
O      0.56938  0.24991  0.52019     O
O      0.56938  0.25009  0.02019     O
H       0.5695   0.1434   0.3591     H
H       0.5695   0.3566   0.8591     H
C       0.5814   0.1976   0.3851     C
C       0.5814   0.3024   0.8851     C
O      0.59358  0.12584  0.65864     O
O      0.59358  0.37416  0.15864     O
C       0.5975  0.04632  0.65949     C
C       0.5975  0.45368  0.15949     C
C       0.6063   0.6945   0.3495     C
C       0.6063   0.8055   0.8495     C
C       0.6133  0.57439  0.25304     C
C       0.6133  0.92561  0.75304     C
O      0.61705  0.60206  0.84815     O
O      0.61705  0.89794  0.34815     O
O      0.63006  0.72551  0.41583     O
O      0.63006  0.77449  0.91583     O
O      0.63181  0.50584  0.94717     O
O      0.63181  0.99416  0.44717     O
C       0.6444   0.0054  0.73091     C
C       0.6444   0.4946  0.23091     C
C       0.6486   0.6128  0.32192     C
C       0.6486   0.8872  0.82192     C
H       0.6498   0.2107   0.3825     H
H       0.6498   0.2893   0.8825     H
C       0.6568   0.5406   0.8826     C
C       0.6568   0.9594   0.3826     C
C       0.7158   0.0446  0.77493     C
C       0.7158   0.4554  0.27493     C
C       0.7209  0.57332  0.36568     C
C       0.7209  0.92668  0.86568     C
H       0.7366   0.0993   0.7605     H
H       0.7366   0.4007   0.2605     H
C       0.7427  0.50364  0.84052     C
C       0.7427  0.99636  0.34052     C
H       0.7454   0.5991   0.4129     H
H       0.7454   0.9009   0.9129     H
H       0.7546   0.0991   0.4129     H
H       0.7546   0.4009   0.9129     H
C       0.7573  0.00364  0.84052     C
C       0.7573  0.49636  0.34052     C
H       0.7634   0.5993   0.7605     H
H       0.7634   0.9007   0.2605     H
C       0.7791  0.07332  0.36568     C
C       0.7791  0.42668  0.86568     C
C       0.7842   0.5446  0.77493     C
C       0.7842   0.9554  0.27493     C
C       0.8432   0.0406   0.8826     C
C       0.8432   0.4594   0.3826     C
H       0.8502   0.7107   0.3825     H
H       0.8502   0.7893   0.8825     H
C       0.8514   0.1128  0.32192     C
C       0.8514   0.3872  0.82192     C
C       0.8556   0.5054  0.73091     C
C       0.8556   0.9946  0.23091     C
O      0.86819  0.00584  0.94717     O
O      0.86819  0.49416  0.44717     O
O      0.86994  0.22551  0.41583     O
O      0.86994  0.27449  0.91583     O
O      0.88295  0.10206  0.84815     O
O      0.88295  0.39794  0.34815     O
C       0.8867  0.07439  0.25304     C
C       0.8867  0.42561  0.75304     C
C       0.8937   0.1945   0.3495     C
C       0.8937   0.3055   0.8495     C
C       0.9025  0.54632  0.65949     C
C       0.9025  0.95368  0.15949     C
O      0.90642  0.62584  0.65864     O
O      0.90642  0.87416  0.15864     O
C       0.9186   0.6976   0.3851     C
C       0.9186   0.8024   0.8851     C
H       0.9305   0.6434   0.3591     H
H       0.9305   0.8566   0.8591     H
O      0.93062  0.74991  0.52019     O
O      0.93062  0.75009  0.02019     O
H       0.9324   0.1028   0.2207     H
H       0.9324   0.3972   0.7207     H
O      0.93622  0.00337  0.10851     O
O      0.93622  0.49663  0.60851     O
C       0.9497   0.6932   0.4717     C
C       0.9497   0.8068   0.9717     C
H       0.9551   0.7415   0.3574     H
H       0.9551   0.7585   0.8574     H
O      0.95606  0.22956  0.30548     O
O      0.95606  0.27044  0.80548     O
Ni     0.97998  0.18241  0.89366    Ni
Ni     0.97998  0.31759  0.39366    Ni
O      0.99785  0.13133  0.00461     O
O      0.99785  0.36867  0.50461     O
