data_I
_chemical_name_common  '/home/zhangsd/repos/MofS-CGCNN/ML/data/TSD/clean_cifs/VERZOJ_clean'
_cell_length_a  7.62250
_cell_length_b  7.78140
_cell_length_c 12.72800
_cell_angle_alpha 90.00000
_cell_angle_beta  90.00000
_cell_angle_gamma 90.00000
_space_group_name_H-M_alt      'P 1'


loop_
_space_group_symop_operation_xyz
  'x, y, z' 

loop_
_atom_site_label
_atom_site_fract_x
_atom_site_fract_y
_atom_site_fract_z
_atom_site_type_symbol
Ni     0.04104  0.00751  0.91895    Ni
O       0.0431   0.6613  0.46014     O
C       0.0535   0.7646   0.7431     C
H       0.0604   0.3036   0.7676     H
O       0.1053   0.6395  0.69037     O
H       0.1443   0.2005   0.4692     H
O        0.147   0.8413  0.80999     O
O       0.1487   0.8633  0.03855     O
C       0.1829   0.7422   0.4645     C
O       0.1855   0.3618  0.57638     O
C       0.2205   0.2302   0.5233     C
O       0.2349   0.8509  0.39765     O
H       0.2444   0.2787   0.0218     H
H       0.2556   0.7213   0.5218     H
O       0.2651   0.1491  0.89765     O
C       0.2795   0.7698   0.0233     C
O       0.3145   0.6382  0.07638     O
C       0.3171   0.2578   0.9645     C
O       0.3513   0.1367  0.53855     O
O        0.353   0.1587  0.30999     O
H       0.3557   0.7995   0.9692     H
O       0.3947   0.3605  0.19037     O
H       0.4396   0.6964   0.2676     H
C       0.4465   0.2354   0.2431     C
O       0.4569   0.3387  0.96014     O
Ni     0.45896  0.99249  0.41895    Ni
Ni     0.54104  0.49249  0.08105    Ni
O       0.5431   0.8387  0.53986     O
C       0.5535   0.7354   0.2569     C
H       0.5604   0.1964   0.2324     H
O       0.6053   0.8605  0.30963     O
H       0.6443   0.2995   0.5308     H
O        0.647   0.6587  0.19001     O
O       0.6487   0.6367  0.96145     O
C       0.6829   0.7578   0.5355     C
O       0.6855   0.1382  0.42362     O
C       0.7205   0.2698   0.4767     C
O       0.7349   0.6491  0.60235     O
H       0.7444   0.2213   0.9782     H
H       0.7556   0.7787   0.4782     H
O       0.7651   0.3509  0.10235     O
C       0.7795   0.7302   0.9767     C
O       0.8145   0.8618  0.92362     O
C       0.8171   0.2422   0.0355     C
O       0.8513   0.3633  0.46145     O
O        0.853   0.3413  0.69001     O
H       0.8557   0.7005   0.0308     H
O       0.8947   0.1395  0.80963     O
H       0.9396   0.8036   0.7324     H
C       0.9465   0.2646   0.7569     C
O       0.9569   0.1613  0.03986     O
Ni     0.95896  0.50751  0.58105    Ni
