data_I
_chemical_name_common  '/home/zhangsd/repos/MofS-CGCNN/ML/data/TSD/clean_cifs/VICYOX_clean'
_cell_length_a  9.55930
_cell_length_b 10.21310
_cell_length_c 11.94240
_cell_angle_alpha 110.09100
_cell_angle_beta  99.94300
_cell_angle_gamma 95.80000
_space_group_name_H-M_alt      'P 1'


loop_
_space_group_symop_operation_xyz
  'x, y, z' 

loop_
_atom_site_label
_atom_site_fract_x
_atom_site_fract_y
_atom_site_fract_z
_atom_site_type_symbol
Zn         0.0      0.0      0.5    Zn
O       0.0033   0.9888   0.6678     O
Zn     0.03414  0.29728  0.73249    Zn
H       0.0375   0.7737   0.7098     H
O       0.0425   0.5166   0.6791     O
C       0.0573   0.0494   0.7775     C
C       0.0761   0.5683    0.794     C
C        0.077   0.8146   0.7934     C
O        0.079   0.1825   0.8354     O
O       0.0812    0.495   0.8579     O
C       0.1029     0.96   0.8507     C
C       0.1091   0.7285   0.8591     C
O       0.1366   0.2157   0.5982     O
C       0.1665   0.0205   0.9726     C
C        0.173   0.7888   0.9811     C
O       0.1742   0.9061    0.507     O
O       0.1769   0.7406    0.328     O
H       0.1835   0.1183   0.0126     H
H       0.1945   0.7326   0.0265     H
C       0.2048   0.9338   0.0352     C
H       0.2184   0.1443    0.396     H
C       0.2362    0.826    0.435     C
N       0.2443   0.0272   0.1774     N
C       0.2743   0.2554   0.6405     C
C       0.3154   0.1487   0.4278     C
O       0.3267   0.3293   0.7487     O
N       0.3579    0.003    0.217     N
C       0.3715   0.2086   0.5532     C
H       0.3931   0.9374   0.6595     H
C       0.3932   0.8306   0.4812     C
C       0.4055   0.0961   0.3515     C
O       0.4261   0.9078    0.167     O
H       0.4445   0.7355   0.3188     H
C       0.4509   0.8977   0.6061     C
C       0.4831    0.779   0.4024     C
C       0.5169    0.221   0.5976     C
C       0.5491   0.1023   0.3939     C
H       0.5555   0.2645   0.6812     H
O       0.5739   0.0922    0.833     O
C       0.5945   0.9039   0.6485     C
C       0.6068   0.1694   0.5188     C
H       0.6069   0.0626   0.3405     H
C       0.6285   0.7914   0.4468     C
N       0.6421    0.997    0.783     N
O       0.6733   0.6707   0.2513     O
C       0.6846   0.8513   0.5722     C
C       0.7257   0.7446   0.3595     C
N       0.7557   0.9728   0.8226     N
C       0.7638    0.174    0.565     C
H       0.7816   0.8557    0.604     H
C       0.7952   0.0662   0.9648     C
H       0.8055   0.2674   0.9735     H
H       0.8165   0.8817   0.9874     H
O       0.8231   0.2594    0.672     O
O       0.8258   0.0939    0.493     O
C        0.827   0.2112   0.0189     C
C       0.8335   0.9795   0.0274     C
O       0.8634   0.7843   0.4018     O
C       0.8909   0.2715   0.1409     C
C       0.8971     0.04   0.1493     C
O       0.9188    0.505   0.1421     O
O        0.921   0.8175   0.1646     O
C        0.923   0.1854   0.2066     C
C       0.9239   0.4317    0.206     C
C       0.9427   0.9506   0.2225     C
O       0.9575   0.4834   0.3209     O
H       0.9625   0.2263   0.2902     H
Zn     0.96586  0.70272  0.26751    Zn
O       0.9967   0.0112   0.3322     O
