data_I
_chemical_name_common  '/home/zhangsd/repos/MofS-CGCNN/ML/data/TSD/clean_cifs/VIRPOC_clean'
_cell_length_a 17.82630
_cell_length_b 17.82630
_cell_length_c 17.82630
_cell_angle_alpha 60.00000
_cell_angle_beta  60.00000
_cell_angle_gamma 60.00000
_space_group_name_H-M_alt      'P 1'


loop_
_space_group_symop_operation_xyz
  'x, y, z' 

loop_
_atom_site_label
_atom_site_fract_x
_atom_site_fract_y
_atom_site_fract_z
_atom_site_type_symbol
C       0.0073   0.0575  0.18058     C
C       0.0073  0.18058  0.75462     C
C       0.0073  0.75462   0.0575     C
N      0.02142     0.25     0.75     N
N      0.02142     0.75  0.97858     N
N      0.02142  0.97858     0.25     N
H       0.0504   0.0688   0.1218     H
H       0.0504   0.1218    0.759     H
H       0.0504    0.759   0.0688     H
C       0.0575   0.0073  0.68058     C
C       0.0575  0.25462   0.0073     C
C       0.0575  0.68058  0.25462     C
H       0.0688   0.0504   0.6218     H
H       0.0688    0.259   0.0504     H
H       0.0688   0.6218    0.259     H
N      0.07521  0.24777  0.88241     N
N      0.07521  0.79461  0.24777     N
N      0.07521  0.88241  0.79461     N
N      0.11759  0.25223  0.92479     N
N      0.11759  0.70539  0.25223     N
N      0.11759  0.92479  0.70539     N
H       0.1218   0.0504    0.259     H
H       0.1218    0.259   0.5688     H
H       0.1218   0.5688   0.0504     H
Ni     0.13551     0.25     0.75    Ni
Ni     0.13551     0.75  0.86449    Ni
Ni     0.13551  0.86449     0.25    Ni
C      0.18058   0.0073  0.25462     C
C      0.18058  0.25462   0.5575     C
C      0.18058   0.5575   0.0073     C
N      0.20539  0.25223  0.61759     N
N      0.20539  0.61759  0.92479     N
N      0.20539  0.92479  0.25223     N
H        0.241   0.3782   0.9496     H
H        0.241   0.4312   0.3782     H
H        0.241   0.9496   0.4312     H
C      0.24538  0.31942   0.9927     C
C      0.24538   0.4425  0.31942     C
C      0.24538   0.9927   0.4425     C
N      0.24777  0.07521  0.38241     N
N      0.24777  0.29461  0.07521     N
N      0.24777  0.38241  0.29461     N
N         0.25  0.02142     0.25     N
Ni        0.25  0.13551     0.25    Ni
O         0.25     0.25     0.25     O
Ni        0.25     0.25  0.36449    Ni
N         0.25     0.25  0.47858     N
O         0.25     0.25     0.75     O
Ni        0.25     0.25  0.86449    Ni
N         0.25     0.25  0.97858     N
Ni        0.25  0.36449  0.13551    Ni
N         0.25  0.47858  0.02142     N
N         0.25  0.52142     0.25     N
Ni        0.25  0.63551     0.25    Ni
O         0.25     0.75     0.25     O
O         0.25     0.75     0.75     O
Ni        0.25  0.86449  0.63551    Ni
N         0.25  0.97858  0.52142     N
N      0.25223  0.11759  0.42479     N
N      0.25223  0.20539  0.11759     N
N      0.25223  0.42479  0.20539     N
C      0.25462   0.0575   0.5073     C
C      0.25462  0.18058   0.0575     C
C      0.25462   0.5073  0.18058     C
H        0.259   0.0688   0.5504     H
H        0.259   0.1218   0.0688     H
H        0.259   0.5504   0.1218     H
N      0.29461  0.24777  0.57521     N
N      0.29461  0.57521  0.88241     N
N      0.29461  0.88241  0.24777     N
C      0.31942  0.24538   0.4927     C
C      0.31942   0.4927   0.9425     C
C      0.31942   0.9425  0.24538     C
Ni     0.36449     0.25  0.63551    Ni
Ni     0.36449  0.63551     0.75    Ni
Ni     0.36449     0.75     0.25    Ni
H       0.3782    0.241   0.4496     H
H       0.3782   0.4496   0.9312     H
H       0.3782   0.9312    0.241     H
N      0.38241  0.24777  0.79461     N
N      0.38241  0.57521  0.24777     N
N      0.38241  0.79461  0.57521     N
N      0.42479  0.25223  0.70539     N
N      0.42479  0.61759  0.25223     N
N      0.42479  0.70539  0.61759     N
H       0.4312    0.241   0.8782     H
H       0.4312   0.4496    0.241     H
H       0.4312   0.8782   0.4496     H
C       0.4425  0.24538  0.81942     C
C       0.4425   0.4927  0.24538     C
C       0.4425  0.81942   0.4927     C
H       0.4496   0.3782   0.4312     H
H       0.4496   0.4312    0.741     H
H       0.4496    0.741   0.3782     H
N      0.47858     0.25  0.52142     N
N      0.47858  0.52142     0.75     N
N      0.47858     0.75     0.25     N
C       0.4927  0.31942   0.4425     C
C       0.4927   0.4425  0.74538     C
C       0.4927  0.74538  0.31942     C
C       0.5073  0.25462  0.68058     C
C       0.5073   0.5575  0.25462     C
C       0.5073  0.68058   0.5575     C
N      0.52142     0.25     0.75     N
N      0.52142  0.47858     0.25     N
N      0.52142     0.75  0.47858     N
H       0.5504    0.259   0.6218     H
H       0.5504   0.5688    0.259     H
H       0.5504   0.6218   0.5688     H
C       0.5575  0.18058   0.5073     C
C       0.5575   0.5073  0.75462     C
C       0.5575  0.75462  0.18058     C
H       0.5688   0.1218   0.5504     H
H       0.5688   0.5504    0.759     H
H       0.5688    0.759   0.1218     H
N      0.57521  0.29461  0.38241     N
N      0.57521  0.38241  0.74777     N
N      0.57521  0.74777  0.29461     N
N      0.61759  0.20539  0.42479     N
N      0.61759  0.42479  0.75223     N
N      0.61759  0.75223  0.20539     N
H       0.6218   0.0688    0.759     H
H       0.6218   0.5504   0.0688     H
H       0.6218    0.759   0.5504     H
Ni     0.63551     0.25     0.75    Ni
Ni     0.63551  0.36449     0.25    Ni
Ni     0.63551     0.75  0.36449    Ni
C      0.68058   0.0575  0.75462     C
C      0.68058   0.5073   0.0575     C
C      0.68058  0.75462   0.5073     C
N      0.70539  0.11759  0.75223     N
N      0.70539  0.42479  0.11759     N
N      0.70539  0.75223  0.42479     N
H        0.741   0.4496   0.8782     H
H        0.741   0.8782   0.9312     H
H        0.741   0.9312   0.4496     H
C      0.74538   0.4927  0.81942     C
C      0.74538  0.81942   0.9425     C
C      0.74538   0.9425   0.4927     C
N      0.74777  0.57521  0.79461     N
N      0.74777  0.79461  0.88241     N
N      0.74777  0.88241  0.57521     N
N         0.75  0.02142  0.47858     N
Ni        0.75  0.13551  0.36449    Ni
O         0.75     0.25     0.25     O
O         0.75     0.25     0.75     O
Ni        0.75  0.36449     0.75    Ni
N         0.75  0.47858     0.75     N
N         0.75  0.52142  0.97858     N
Ni        0.75  0.63551  0.86449    Ni
N         0.75     0.75  0.02142     N
Ni        0.75     0.75  0.13551    Ni
O         0.75     0.75     0.25     O
N         0.75     0.75  0.52142     N
Ni        0.75     0.75  0.63551    Ni
O         0.75     0.75     0.75     O
Ni        0.75  0.86449     0.75    Ni
N         0.75  0.97858     0.75     N
N      0.75223  0.61759  0.70539     N
N      0.75223  0.70539  0.92479     N
N      0.75223  0.92479  0.61759     N
C      0.75462   0.0073   0.5575     C
C      0.75462   0.5575  0.68058     C
C      0.75462  0.68058   0.0073     C
H        0.759   0.0504   0.5688     H
H        0.759   0.5688   0.6218     H
H        0.759   0.6218   0.0504     H
N      0.79461  0.07521  0.74777     N
N      0.79461  0.38241  0.07521     N
N      0.79461  0.74777  0.38241     N
C      0.81942   0.4425   0.9927     C
C      0.81942  0.74538   0.4425     C
C      0.81942   0.9927  0.74538     C
Ni     0.86449  0.13551     0.75    Ni
Ni     0.86449     0.25  0.13551    Ni
Ni     0.86449     0.75     0.25    Ni
H       0.8782   0.4312   0.9496     H
H       0.8782    0.741   0.4312     H
H       0.8782   0.9496    0.741     H
N      0.88241  0.07521  0.29461     N
N      0.88241  0.29461  0.74777     N
N      0.88241  0.74777  0.07521     N
N      0.92479  0.11759  0.20539     N
N      0.92479  0.20539  0.75223     N
N      0.92479  0.75223  0.11759     N
H       0.9312   0.3782    0.741     H
H       0.9312    0.741   0.9496     H
H       0.9312   0.9496   0.3782     H
C       0.9425  0.31942  0.74538     C
C       0.9425  0.74538   0.9927     C
C       0.9425   0.9927  0.31942     C
H       0.9496    0.241   0.9312     H
H       0.9496   0.8782    0.241     H
H       0.9496   0.9312   0.8782     H
N      0.97858  0.02142     0.75     N
N      0.97858     0.25  0.02142     N
N      0.97858     0.75     0.25     N
C       0.9927  0.24538   0.9425     C
C       0.9927  0.81942  0.24538     C
C       0.9927   0.9425  0.81942     C
