data_I
_chemical_name_common  '/home/zhangsd/repos/MofS-CGCNN/ML/data/TSD/clean_cifs/VITYOO_clean'
_cell_length_a 12.14300
_cell_length_b 24.87500
_cell_length_c 19.66900
_cell_angle_alpha 90.00000
_cell_angle_beta  102.90000
_cell_angle_gamma 90.00000
_space_group_name_H-M_alt      'P 1'


loop_
_space_group_symop_operation_xyz
  'x, y, z' 

loop_
_atom_site_label
_atom_site_fract_x
_atom_site_fract_y
_atom_site_fract_z
_atom_site_type_symbol
O        0.025   0.3993   0.9838     O
O        0.025   0.6007   0.4838     O
O       0.0349   0.0794   0.5375     O
O       0.0349   0.9206   0.0375     O
C       0.0375   0.1262   0.5325     C
C       0.0375   0.8738   0.0325     C
H       0.0506    0.222   0.9514     H
H       0.0506    0.778   0.4514     H
C       0.0623   0.0045   0.7574     C
C       0.0623   0.9955   0.2574     C
H       0.0779   0.0268   0.6609     H
H       0.0779   0.9732   0.1609     H
Nd     0.07944  0.44954  0.44477    Nd
Nd     0.07944  0.55046  0.94477    Nd
C       0.0842   0.1438   0.9763     C
C       0.0842   0.8562   0.4763     C
H       0.0904   0.0184   0.3583     H
H       0.0904   0.9816   0.8583     H
O       0.0917   0.4987   0.5703     O
O       0.0917   0.5013   0.0703     O
O       0.0972   0.4686   0.3243     O
O       0.0972   0.5314   0.8243     O
H       0.1086   0.3047   0.9753     H
H       0.1086   0.6953   0.4753     H
C       0.1089   0.1981   0.9689     C
C       0.1089   0.8019   0.4689     C
O       0.1105   0.1589   0.5463     O
O       0.1105   0.8411   0.0463     O
C       0.1123    0.412   0.9645     C
C       0.1123    0.588   0.4645     C
C       0.1193   0.0179   0.7052     C
C       0.1193   0.9821   0.2052     C
H       0.1221   0.4919   0.2052     H
H       0.1221   0.5081   0.7052     H
C       0.1265   0.0083   0.3233     C
C       0.1265   0.9917   0.8233     C
O        0.136   0.4565   0.9429     O
O        0.136   0.5435   0.4429     O
H       0.1612   0.0739   0.0082     H
H       0.1612   0.9261   0.5082     H
C       0.1754   0.1102   0.0024     C
C       0.1754   0.8898   0.5024     C
C       0.1827   0.3172   0.9864     C
C       0.1827   0.6828   0.4864     C
C       0.1913   0.4814   0.5899     C
C       0.1913   0.5186   0.0899     C
C       0.2006   0.4931   0.2147     C
C       0.2006   0.5069   0.7147     C
C       0.2028   0.4673   0.3379     C
C       0.2028   0.5327   0.8379     C
C       0.2063   0.3708   0.9787     C
C       0.2063   0.6292   0.4787     C
C        0.227   0.2182   0.9885     C
C        0.227   0.7818   0.4885     C
C       0.2364   0.0182   0.7185     C
C       0.2364   0.9818   0.2185     C
O       0.2369   0.4543   0.5504     O
O       0.2369   0.5457   0.0504     O
O       0.2418   0.0468    0.603     O
O       0.2418   0.9532    0.103     O
C       0.2438   0.0061   0.3375     C
C       0.2438   0.9939   0.8375     C
C       0.2562   0.4939   0.6625     C
C       0.2562   0.5061   0.1625     C
O       0.2582   0.4532    0.397     O
O       0.2582   0.5468    0.897     O
O       0.2631   0.0457   0.4496     O
O       0.2631   0.9543   0.9496     O
C       0.2636   0.4818   0.2815     C
C       0.2636   0.5182   0.7815     C
C        0.273   0.2818   0.0115     C
C        0.273   0.7182   0.5115     C
C       0.2937   0.1292   0.0213     C
C       0.2937   0.8708   0.5213     C
C       0.2972   0.0327   0.6621     C
C       0.2972   0.9673   0.1621     C
C       0.2994   0.0069   0.7853     C
C       0.2994   0.9931   0.2853     C
C       0.3087   0.0186   0.4101     C
C       0.3087   0.9814   0.9101     C
C       0.3173   0.1828   0.0136     C
C       0.3173   0.8172   0.5136     C
C       0.3246   0.3898   0.9976     C
C       0.3246   0.6102   0.4976     C
H       0.3388   0.4261   0.9918     H
H       0.3388   0.5739   0.4918     H
O        0.364   0.0435   0.0571     O
O        0.364   0.9565   0.5571     O
C       0.3735   0.4917   0.6767     C
C       0.3735   0.5083   0.1767     C
H       0.3779   0.0081   0.7948     H
H       0.3779   0.9919   0.2948     H
C       0.3807   0.4821   0.2948     C
C       0.3807   0.5179   0.7948     C
C       0.3877    0.088   0.0355     C
C       0.3877    0.912   0.5355     C
O       0.3895   0.3411   0.4537     O
O       0.3895   0.6589   0.9537     O
C       0.3911   0.3019   0.0311     C
C       0.3911   0.6981   0.5311     C
H       0.3914   0.1953   0.0247     H
H       0.3914   0.8047   0.5247     H
O       0.4028   0.0314   0.6757     O
O       0.4028   0.9686   0.1757     O
O       0.4083   0.0013   0.4297     O
O       0.4083   0.9987   0.9297     O
H       0.4096   0.4816   0.6417     H
H       0.4096   0.5184   0.1417     H
C       0.4158   0.3562   0.0237     C
C       0.4158   0.6438   0.5237     C
Nd     0.42056  0.05046  0.55523    Nd
Nd     0.42056  0.94954  0.05523    Nd
H       0.4221   0.4732   0.3391     H
H       0.4221   0.5268   0.8391     H
C       0.4377   0.4955   0.2426     C
C       0.4377   0.5045   0.7426     C
H       0.4494    0.278   0.0486     H
H       0.4494    0.722   0.5486     H
C       0.4625   0.3738   0.4675     C
C       0.4625   0.6262   0.9675     C
O       0.4651   0.4206   0.4625     O
O       0.4651   0.5794   0.9625     O
O        0.475   0.1007   0.0162     O
O        0.475   0.8993   0.5162     O
O        0.525   0.1007   0.4838     O
O        0.525   0.8993   0.9838     O
O       0.5349   0.4206   0.0375     O
O       0.5349   0.5794   0.5375     O
C       0.5375   0.3738   0.0325     C
C       0.5375   0.6262   0.5325     C
H       0.5506    0.278   0.4514     H
H       0.5506    0.722   0.9514     H
C       0.5623   0.4955   0.2574     C
C       0.5623   0.5045   0.7574     C
H       0.5779   0.4732   0.1609     H
H       0.5779   0.5268   0.6609     H
Nd     0.57944  0.05046  0.94477    Nd
Nd     0.57944  0.94954  0.44477    Nd
C       0.5842   0.3562   0.4763     C
C       0.5842   0.6438   0.9763     C
H       0.5904   0.4816   0.8583     H
H       0.5904   0.5184   0.3583     H
O       0.5917   0.0013   0.0703     O
O       0.5917   0.9987   0.5703     O
O       0.5972   0.0314   0.8243     O
O       0.5972   0.9686   0.3243     O
H       0.6086   0.1953   0.4753     H
H       0.6086   0.8047   0.9753     H
C       0.6089   0.3019   0.4689     C
C       0.6089   0.6981   0.9689     C
O       0.6105   0.3411   0.0463     O
O       0.6105   0.6589   0.5463     O
C       0.6123    0.088   0.4645     C
C       0.6123    0.912   0.9645     C
C       0.6193   0.4821   0.2052     C
C       0.6193   0.5179   0.7052     C
H       0.6221   0.0081   0.7052     H
H       0.6221   0.9919   0.2052     H
C       0.6265   0.4917   0.8233     C
C       0.6265   0.5083   0.3233     C
O        0.636   0.0435   0.4429     O
O        0.636   0.9565   0.9429     O
H       0.6612   0.4261   0.5082     H
H       0.6612   0.5739   0.0082     H
C       0.6754   0.3898   0.5024     C
C       0.6754   0.6102   0.0024     C
C       0.6827   0.1828   0.4864     C
C       0.6827   0.8172   0.9864     C
C       0.6913   0.0186   0.0899     C
C       0.6913   0.9814   0.5899     C
C       0.7006   0.0069   0.7147     C
C       0.7006   0.9931   0.2147     C
C       0.7028   0.0327   0.8379     C
C       0.7028   0.9673   0.3379     C
C       0.7063   0.1292   0.4787     C
C       0.7063   0.8708   0.9787     C
C        0.727   0.2818   0.4885     C
C        0.727   0.7182   0.9885     C
C       0.7364   0.4818   0.2185     C
C       0.7364   0.5182   0.7185     C
O       0.7369   0.0457   0.0504     O
O       0.7369   0.9543   0.5504     O
O       0.7418   0.4532    0.103     O
O       0.7418   0.5468    0.603     O
C       0.7438   0.4939   0.8375     C
C       0.7438   0.5061   0.3375     C
C       0.7562   0.0061   0.1625     C
C       0.7562   0.9939   0.6625     C
O       0.7582   0.0468    0.897     O
O       0.7582   0.9532    0.397     O
O       0.7631   0.4543   0.9496     O
O       0.7631   0.5457   0.4496     O
C       0.7636   0.0182   0.7815     C
C       0.7636   0.9818   0.2815     C
C        0.773   0.2182   0.5115     C
C        0.773   0.7818   0.0115     C
C       0.7937   0.3708   0.5213     C
C       0.7937   0.6292   0.0213     C
C       0.7972   0.4673   0.1621     C
C       0.7972   0.5327   0.6621     C
C       0.7994   0.4931   0.2853     C
C       0.7994   0.5069   0.7853     C
C       0.8087   0.4814   0.9101     C
C       0.8087   0.5186   0.4101     C
C       0.8173   0.3172   0.5136     C
C       0.8173   0.6828   0.0136     C
C       0.8246   0.1102   0.4976     C
C       0.8246   0.8898   0.9976     C
H       0.8388   0.0739   0.4918     H
H       0.8388   0.9261   0.9918     H
O        0.864   0.4565   0.5571     O
O        0.864   0.5435   0.0571     O
C       0.8735   0.0083   0.1767     C
C       0.8735   0.9917   0.6767     C
H       0.8779   0.4919   0.2948     H
H       0.8779   0.5081   0.7948     H
C       0.8807   0.0179   0.7948     C
C       0.8807   0.9821   0.2948     C
C       0.8877    0.412   0.5355     C
C       0.8877    0.588   0.0355     C
O       0.8895   0.1589   0.9537     O
O       0.8895   0.8411   0.4537     O
C       0.8911   0.1981   0.5311     C
C       0.8911   0.8019   0.0311     C
H       0.8914   0.3047   0.5247     H
H       0.8914   0.6953   0.0247     H
O       0.9028   0.4686   0.1757     O
O       0.9028   0.5314   0.6757     O
O       0.9083   0.4987   0.9297     O
O       0.9083   0.5013   0.4297     O
H       0.9096   0.0184   0.1417     H
H       0.9096   0.9816   0.6417     H
C       0.9158   0.1438   0.5237     C
C       0.9158   0.8562   0.0237     C
Nd     0.92056  0.44954  0.05523    Nd
Nd     0.92056  0.55046  0.55523    Nd
H       0.9221   0.0268   0.8391     H
H       0.9221   0.9732   0.3391     H
C       0.9377   0.0045   0.7426     C
C       0.9377   0.9955   0.2426     C
H       0.9494    0.222   0.5486     H
H       0.9494    0.778   0.0486     H
C       0.9625   0.1262   0.9675     C
C       0.9625   0.8738   0.4675     C
O       0.9651   0.0794   0.9625     O
O       0.9651   0.9206   0.4625     O
O        0.975   0.3993   0.5162     O
O        0.975   0.6007   0.0162     O
