data_I
_chemical_name_common  '/home/zhangsd/repos/MofS-CGCNN/ML/data/TSD/clean_cifs/VITZAB_clean'
_cell_length_a 11.60900
_cell_length_b 12.22700
_cell_length_c 13.55400
_cell_angle_alpha 65.00000
_cell_angle_beta  69.14000
_cell_angle_gamma 87.75000
_space_group_name_H-M_alt      'P 1'


loop_
_space_group_symop_operation_xyz
  'x, y, z' 

loop_
_atom_site_label
_atom_site_fract_x
_atom_site_fract_y
_atom_site_fract_z
_atom_site_type_symbol
C       0.0264   0.7785   0.5953     C
C       0.0375   0.9487     0.64     C
H       0.0657   0.7211   0.5717     H
O       0.0798   0.8701   0.3081     O
H       0.0836   0.0045    0.646     H
C       0.0887   0.0489   0.3335     C
C       0.0958   0.8626   0.6043     C
H       0.0992   0.4544    0.339     H
C        0.101     0.22   0.3789     C
O       0.1405   0.6717    0.309     O
C       0.1504   0.9479   0.3074     C
C       0.1573   0.1329   0.3424     C
C       0.1582   0.4209    0.371     C
C       0.1746   0.2994   0.3979     C
C       0.2108   0.6223   0.3656     C
C       0.2286   0.4928   0.3914     C
C       0.2362   0.8728   0.5605     C
H       0.2424   0.1312   0.3237     H
O       0.2612   0.9448   0.2912     O
C        0.262   0.2509   0.4486     C
O       0.2669    0.678   0.3965     O
H       0.2728   0.1695   0.4689     H
O       0.2891   0.9537   0.5705     O
O       0.2908   0.8067   0.5155     O
C       0.3174   0.4441   0.4394     C
C       0.3332   0.3214   0.4696     C
H       0.3659   0.4926   0.4512     H
C       0.4226    0.267   0.5286     C
Tb     0.42632  0.83031   0.3269    Tb
O       0.4363   0.1547   0.5559     O
O       0.4381   0.8701   0.1306     O
O       0.4661   0.8144   0.6767     O
O       0.4681   0.0297   0.3129     O
C       0.4762   0.7713   0.1363     C
O       0.4787   0.3285   0.5548     O
C       0.4882   0.7314   0.0432     C
H       0.4883   0.5545    0.142     H
C       0.4913   0.6095   0.0681     C
C       0.4922   0.8146   0.9337     C
H       0.4922   0.8969   0.9156     H
C       0.4961   0.7743   0.8513     C
C       0.4977   0.8588   0.7333     C
O       0.4986   0.3006   0.7756     O
C       0.4987   0.6524    0.878     C
C       0.4989   0.5663   0.9857     C
H       0.4995   0.3733    0.178     H
Tb         0.5      0.0      0.5    Tb
H       0.5005   0.6267    0.822     H
C       0.5011   0.4337   0.0143     C
C       0.5013   0.3476    0.122     C
O       0.5014   0.6994   0.2244     O
C       0.5023   0.1412   0.2667     C
C       0.5039   0.2257   0.1487     C
H       0.5078   0.1031   0.0844     H
C       0.5078   0.1854   0.0663     C
C       0.5087   0.3905   0.9319     C
H       0.5117   0.4455    0.858     H
C       0.5118   0.2686   0.9568     C
O       0.5213   0.6715   0.4452     O
C       0.5238   0.2287   0.8637     C
O       0.5319   0.9703   0.6871     O
O       0.5339   0.1856   0.3233     O
O       0.5619   0.1299   0.8694     O
O       0.5637   0.8453   0.4441     O
Tb     0.57368  0.16969   0.6731    Tb
C       0.5774    0.733   0.4714     C
H       0.6341   0.5074   0.5488     H
C       0.6668   0.6786   0.5304     C
C       0.6826   0.5559   0.5606     C
O       0.7092   0.1933   0.4845     O
O       0.7109   0.0463   0.4295     O
H       0.7272   0.8305   0.5311     H
O       0.7331    0.322   0.6035     O
C        0.738   0.7491   0.5514     C
O       0.7388   0.0552   0.7088     O
H       0.7576   0.8688   0.6763     H
C       0.7638   0.1272   0.4395     C
C       0.7714   0.5072   0.6086     C
C       0.7892   0.3777   0.6344     C
C       0.8254   0.7006   0.6021     C
C       0.8418   0.5791    0.629     C
C       0.8427   0.8671   0.6576     C
C       0.8496   0.0521   0.6926     C
O       0.8595   0.3283    0.691     O
C        0.899     0.78   0.6211     C
H       0.9008   0.5456    0.661     H
C       0.9042   0.1374   0.3957     C
C       0.9113   0.9511   0.6665     C
H       0.9164   0.9955    0.354     H
O       0.9202   0.1299   0.6919     O
H       0.9343   0.2789   0.4283     H
C       0.9625   0.0513     0.36     C
C       0.9736   0.2215   0.4047     C
