data_I
_chemical_name_common  '/home/zhangsd/repos/MofS-CGCNN/ML/data/TSD/clean_cifs/VIVLAP_clean'
_cell_length_a  7.94180
_cell_length_b 12.08700
_cell_length_c 13.35800
_cell_angle_alpha 112.10100
_cell_angle_beta  105.05100
_cell_angle_gamma 91.19700
_space_group_name_H-M_alt      'P 1'


loop_
_space_group_symop_operation_xyz
  'x, y, z' 

loop_
_atom_site_label
_atom_site_fract_x
_atom_site_fract_y
_atom_site_fract_z
_atom_site_type_symbol
C       0.0017   0.5786   0.7138     C
H       0.0054   0.6103   0.6575     H
N       0.0111   0.7419    0.331     N
C       0.0322   0.3824   0.7226     C
O       0.0352   0.9474   0.0855     O
C       0.0366   0.8349   0.1979     C
N       0.0406    0.553   0.3405     N
C       0.0529   0.0972   0.8698     C
H       0.0555   0.7573   0.1472     H
O       0.0585   0.8153   0.8598     O
C       0.0728   0.1843   0.7297     C
H       0.0852   0.1068   0.6756     H
C       0.0952   0.2338   0.1585     C
H       0.1167   0.6003   0.7689     H
O       0.1304   0.4295   0.8153     O
C        0.134   0.3671   0.2289     C
C       0.1365   0.8009   0.4344     C
H       0.1476    0.408   0.1808     H
H       0.1507   0.8793   0.2463     H
C       0.1618   0.6025   0.4443     C
O       0.1778   0.9083   0.4754     O
H       0.1895   0.2241   0.7775     H
H       0.2089   0.8909   0.6859     H
N       0.2104   0.7271   0.4875     N
O       0.2132   0.0849   0.8809     O
O       0.2146   0.1837   0.1206     O
O       0.2264   0.5432   0.4963     O
H       0.2431    0.775   0.7106     H
H       0.2457   0.3828   0.2862     H
Tb     0.24936  0.98099   0.0107    Tb
C       0.2968   0.8388    0.697     C
C        0.355   0.7849   0.5928     C
H       0.4237   0.8479   0.5862     H
O       0.4241   0.0412    0.214     O
H       0.4315   0.7255   0.6012     H
O       0.4447    0.914   0.8943     O
C       0.4478   0.9096   0.7971     C
C       0.5522   0.0904   0.2029     C
O       0.5553    0.086   0.1057     O
H       0.5685   0.2745   0.3988     H
O       0.5759   0.9588    0.786     O
H       0.5763   0.1521   0.4138     H
C        0.645   0.2151   0.4072     C
C       0.7032   0.1612    0.303     C
Tb     0.75064  0.01901   0.9893    Tb
H       0.7543   0.6172   0.7138     H
H       0.7569    0.225   0.2894     H
O       0.7736   0.4568   0.5037     O
O       0.7854   0.8163   0.8794     O
O       0.7868   0.9151   0.1191     O
N       0.7896   0.2729   0.5125     N
H       0.7911   0.1091   0.3141     H
H       0.8105   0.7759   0.2225     H
O       0.8222   0.0917   0.5246     O
C       0.8382   0.3975   0.5557     C
H       0.8493   0.1207   0.7537     H
H       0.8524    0.592   0.8192     H
C       0.8635   0.1991   0.5656     C
C        0.866   0.6329   0.7711     C
O       0.8696   0.5705   0.1847     O
H       0.8833   0.3997   0.2311     H
C       0.9048   0.7662   0.8415     C
H       0.9148   0.8932   0.3244     H
C       0.9272   0.8157   0.2703     C
O       0.9415   0.1847   0.1402     O
H       0.9445   0.2427   0.8528     H
C       0.9471   0.9028   0.1302     C
N       0.9594    0.447   0.6595     N
C       0.9634   0.1651   0.8021     C
O       0.9648   0.0526   0.9145     O
C       0.9678   0.6176   0.2774     C
N       0.9889   0.2581    0.669     N
H       0.9946   0.3897   0.3425     H
C       0.9983   0.4214   0.2862     C
