data_I
_chemical_name_common  '/home/zhangsd/repos/MofS-CGCNN/ML/data/TSD/clean_cifs/VOCQAF_clean'
_cell_length_a 14.08220
_cell_length_b 15.27810
_cell_length_c 18.53740
_cell_angle_alpha 90.00000
_cell_angle_beta  105.36000
_cell_angle_gamma 90.00000
_space_group_name_H-M_alt      'P 1'


loop_
_space_group_symop_operation_xyz
  'x, y, z' 

loop_
_atom_site_label
_atom_site_fract_x
_atom_site_fract_y
_atom_site_fract_z
_atom_site_type_symbol
O          0.0    0.447     0.75     O
H          0.0   0.4908     0.25     H
H          0.0   0.5092     0.75     H
O          0.0    0.553     0.25     O
C       0.0008   0.2873   0.5577     C
C       0.0008   0.7127   0.0577     C
H       0.0096   0.3381   0.0955     H
H       0.0096   0.6619   0.5955     H
C       0.0125   0.2945   0.6415     C
C       0.0125   0.7055   0.1415     C
O        0.036   0.4853   0.3811     O
O        0.036   0.5147   0.8811     O
H       0.0544   0.3014   0.5376     H
H       0.0544   0.6986   0.0376     H
O       0.0625   0.2845   0.8356     O
O       0.0625   0.7155   0.3356     O
C        0.066   0.3028   0.1158     C
C        0.066   0.6972   0.6158     C
H       0.0742   0.3227   0.2251     H
H       0.0742   0.6773   0.7251     H
C        0.084   0.2614   0.9871     C
C        0.084   0.7386   0.4871     C
O       0.0988   0.3121   0.6805     O
O       0.0988   0.6879   0.1805     O
H       0.1001   0.4757   0.5198     H
H       0.1001   0.5243   0.0198     H
C        0.105   0.2936    0.192     C
C        0.105   0.7064    0.692     C
H       0.1077   0.1098   0.7192     H
H       0.1077   0.8902   0.2192     H
C       0.1135   0.2578   0.0702     C
C       0.1135   0.7422   0.5702     C
C       0.1167   0.4813   0.9146     C
C       0.1167   0.5187   0.4146     C
H       0.1322   0.2427    0.963     H
H       0.1322   0.7573    0.463     H
Co     0.13421  0.37265  0.78314    Co
Co     0.13421  0.62735  0.28314    Co
H       0.1379    0.124   0.8489     H
H       0.1379    0.876   0.3489     H
C       0.1437   0.4918   0.9988     C
C       0.1437   0.5082   0.4988     C
H       0.1516   0.4411   0.6306     H
H       0.1516   0.5589   0.1306     H
C       0.1575   0.0753   0.7513     C
C       0.1575   0.9247   0.2513     C
O       0.1732   0.4413   0.8845     O
O       0.1732   0.5587   0.3845     O
C       0.1751   0.0845   0.8278     C
C       0.1751   0.9155   0.3278     C
C       0.1876   0.2432   0.2214     C
C       0.1876   0.7568   0.7214     C
H       0.1943   0.0134   0.6683     H
H       0.1943   0.9866   0.1683     H
C        0.197   0.2105   0.1034     C
C        0.197   0.7895   0.6034     C
C       0.2008   0.4768   0.6618     C
C       0.2008   0.5232   0.1618     C
C       0.2097   0.0185   0.7212     C
C       0.2097   0.9815   0.2212     C
H       0.2113   0.2376   0.2742     H
H       0.2113   0.7624   0.7742     H
N       0.2161    0.468   0.7362     N
N       0.2161    0.532   0.2362     N
C       0.2242   0.4587   0.0454     C
C       0.2242   0.5413   0.5454     C
H       0.2302   0.1818   0.0717     H
H       0.2302   0.8182   0.5717     H
H       0.2318   0.0725   0.9761     H
H       0.2318   0.9275   0.4761     H
N       0.2346   0.2024   0.1782     N
N       0.2346   0.7976   0.6782     N
C       0.2492   0.0336   0.8726     C
C       0.2492   0.9664   0.3726     C
C       0.2508   0.4664   0.1274     C
C       0.2508   0.5336   0.6274     C
N       0.2654   0.2976   0.8218     N
N       0.2654   0.7024   0.3218     N
H       0.2682   0.4275   0.0239     H
H       0.2682   0.5725   0.5239     H
H       0.2698   0.3182   0.9283     H
H       0.2698   0.6818   0.4283     H
C       0.2758   0.0413   0.9546     C
C       0.2758   0.9587   0.4546     C
N       0.2839    0.032   0.2638     N
N       0.2839    0.968   0.7638     N
H       0.2887   0.2624   0.7258     H
H       0.2887   0.7376   0.2258     H
C       0.2903   0.4815   0.2788     C
C       0.2903   0.5185   0.7788     C
C       0.2992   0.0232   0.3382     C
C       0.2992   0.9768   0.8382     C
C        0.303   0.2895   0.8966     C
C        0.303   0.7105   0.3966     C
H       0.3057   0.4866   0.3317     H
H       0.3057   0.5134   0.8317     H
C       0.3124   0.2568   0.7786     C
C       0.3124   0.7432   0.2786     C
C       0.3249   0.4155   0.1722     C
C       0.3249   0.5845   0.6722     C
O       0.3268   0.0587   0.1155     O
O       0.3268   0.9413   0.6155     O
C       0.3425   0.4247   0.2487     C
C       0.3425   0.5753   0.7487     C
H       0.3484   0.0589   0.3694     H
H       0.3484   0.9411   0.8694     H
C       0.3563   0.0082   0.0012     C
C       0.3563   0.9918   0.5012     C
H       0.3621    0.376   0.1511     H
H       0.3621    0.624   0.6511     H
Co     0.36579  0.12735  0.21686    Co
Co     0.36579  0.87265  0.71686    Co
H       0.3678   0.2573    0.037     H
H       0.3678   0.7427    0.537     H
C       0.3833   0.0187   0.0854     C
C       0.3833   0.9813   0.5854     C
C       0.3865   0.2422   0.9298     C
C       0.3865   0.7578   0.4298     C
H       0.3923   0.3902   0.2808     H
H       0.3923   0.6098   0.7808     H
C        0.395   0.2064    0.808     C
C        0.395   0.7936    0.308     C
H       0.3999   0.0243   0.4802     H
H       0.3999   0.9757   0.9802     H
O       0.4012   0.1879   0.3195     O
O       0.4012   0.8121   0.8195     O
C        0.416   0.2386   0.0129     C
C        0.416   0.7614   0.5129     C
H       0.4258   0.1773   0.7749     H
H       0.4258   0.8227   0.2749     H
C        0.434   0.1972   0.8842     C
C        0.434   0.8028   0.3842     C
O       0.4375   0.2155   0.1644     O
O       0.4375   0.7845   0.6644     O
H       0.4456   0.1986   0.4624     H
H       0.4456   0.8014   0.9624     H
O        0.464   0.0147   0.6189     O
O        0.464   0.9853   0.1189     O
C       0.4875   0.2055   0.3585     C
C       0.4875   0.7945   0.8585     C
H       0.4904   0.1619   0.9045     H
H       0.4904   0.8381   0.4045     H
C       0.4992   0.2127   0.4423     C
C       0.4992   0.7873   0.9423     C
H          0.5   0.0092     0.75     H
O          0.5    0.053     0.25     O
O          0.5    0.947     0.75     O
H          0.5   0.9908     0.25     H
C       0.5008   0.2127   0.0577     C
C       0.5008   0.7873   0.5577     C
H       0.5096   0.1619   0.5955     H
H       0.5096   0.8381   0.0955     H
C       0.5125   0.2055   0.1415     C
C       0.5125   0.7945   0.6415     C
O        0.536   0.0147   0.8811     O
O        0.536   0.9853   0.3811     O
H       0.5544   0.1986   0.0376     H
H       0.5544   0.8014   0.5376     H
O       0.5625   0.2155   0.3356     O
O       0.5625   0.7845   0.8356     O
C        0.566   0.1972   0.6158     C
C        0.566   0.8028   0.1158     C
H       0.5742   0.1773   0.7251     H
H       0.5742   0.8227   0.2251     H
C        0.584   0.2386   0.4871     C
C        0.584   0.7614   0.9871     C
O       0.5988   0.1879   0.1805     O
O       0.5988   0.8121   0.6805     O
H       0.6001   0.0243   0.0198     H
H       0.6001   0.9757   0.5198     H
C        0.605   0.2064    0.692     C
C        0.605   0.7936    0.192     C
H       0.6077   0.3902   0.2192     H
H       0.6077   0.6098   0.7192     H
C       0.6135   0.2422   0.5702     C
C       0.6135   0.7578   0.0702     C
C       0.6167   0.0187   0.4146     C
C       0.6167   0.9813   0.9146     C
H       0.6322   0.2573    0.463     H
H       0.6322   0.7427    0.963     H
Co     0.63421  0.12735  0.28314    Co
Co     0.63421  0.87265  0.78314    Co
H       0.6379    0.376   0.3489     H
H       0.6379    0.624   0.8489     H
C       0.6437   0.0082   0.4988     C
C       0.6437   0.9918   0.9988     C
H       0.6516   0.0589   0.1306     H
H       0.6516   0.9411   0.6306     H
C       0.6575   0.4247   0.2513     C
C       0.6575   0.5753   0.7513     C
O       0.6732   0.0587   0.3845     O
O       0.6732   0.9413   0.8845     O
C       0.6751   0.4155   0.3278     C
C       0.6751   0.5845   0.8278     C
C       0.6876   0.2568   0.7214     C
C       0.6876   0.7432   0.2214     C
H       0.6943   0.4866   0.1683     H
H       0.6943   0.5134   0.6683     H
C        0.697   0.2895   0.6034     C
C        0.697   0.7105   0.1034     C
C       0.7008   0.0232   0.1618     C
C       0.7008   0.9768   0.6618     C
C       0.7097   0.4815   0.2212     C
C       0.7097   0.5185   0.7212     C
H       0.7113   0.2624   0.7742     H
H       0.7113   0.7376   0.2742     H
N       0.7161    0.032   0.2362     N
N       0.7161    0.968   0.7362     N
C       0.7242   0.0413   0.5454     C
C       0.7242   0.9587   0.0454     C
H       0.7302   0.3182   0.5717     H
H       0.7302   0.6818   0.0717     H
H       0.7318   0.4275   0.4761     H
H       0.7318   0.5725   0.9761     H
N       0.7346   0.2976   0.6782     N
N       0.7346   0.7024   0.1782     N
C       0.7492   0.4664   0.3726     C
C       0.7492   0.5336   0.8726     C
C       0.7508   0.0336   0.6274     C
C       0.7508   0.9664   0.1274     C
N       0.7654   0.2024   0.3218     N
N       0.7654   0.7976   0.8218     N
H       0.7682   0.0725   0.5239     H
H       0.7682   0.9275   0.0239     H
H       0.7698   0.1818   0.4283     H
H       0.7698   0.8182   0.9283     H
C       0.7758   0.4587   0.4546     C
C       0.7758   0.5413   0.9546     C
N       0.7839    0.468   0.7638     N
N       0.7839    0.532   0.2638     N
H       0.7887   0.2376   0.2258     H
H       0.7887   0.7624   0.7258     H
C       0.7903   0.0185   0.7788     C
C       0.7903   0.9815   0.2788     C
C       0.7992   0.4768   0.8382     C
C       0.7992   0.5232   0.3382     C
C        0.803   0.2105   0.3966     C
C        0.803   0.7895   0.8966     C
H       0.8057   0.0134   0.8317     H
H       0.8057   0.9866   0.3317     H
C       0.8124   0.2432   0.2786     C
C       0.8124   0.7568   0.7786     C
C       0.8249   0.0845   0.6722     C
C       0.8249   0.9155   0.1722     C
O       0.8268   0.4413   0.6155     O
O       0.8268   0.5587   0.1155     O
C       0.8425   0.0753   0.7487     C
C       0.8425   0.9247   0.2487     C
H       0.8484   0.4411   0.8694     H
H       0.8484   0.5589   0.3694     H
C       0.8563   0.4918   0.5012     C
C       0.8563   0.5082   0.0012     C
H       0.8621    0.124   0.6511     H
H       0.8621    0.876   0.1511     H
Co     0.86579  0.37265  0.71686    Co
Co     0.86579  0.62735  0.21686    Co
H       0.8678   0.2427    0.537     H
H       0.8678   0.7573    0.037     H
C       0.8833   0.4813   0.5854     C
C       0.8833   0.5187   0.0854     C
C       0.8865   0.2578   0.4298     C
C       0.8865   0.7422   0.9298     C
H       0.8923   0.1098   0.7808     H
H       0.8923   0.8902   0.2808     H
C        0.895   0.2936    0.308     C
C        0.895   0.7064    0.808     C
H       0.8999   0.4757   0.9802     H
H       0.8999   0.5243   0.4802     H
O       0.9012   0.3121   0.8195     O
O       0.9012   0.6879   0.3195     O
C        0.916   0.2614   0.5129     C
C        0.916   0.7386   0.0129     C
H       0.9258   0.3227   0.2749     H
H       0.9258   0.6773   0.7749     H
C        0.934   0.3028   0.3842     C
C        0.934   0.6972   0.8842     C
O       0.9375   0.2845   0.6644     O
O       0.9375   0.7155   0.1644     O
H       0.9456   0.3014   0.9624     H
H       0.9456   0.6986   0.4624     H
O        0.964   0.4853   0.1189     O
O        0.964   0.5147   0.6189     O
C       0.9875   0.2945   0.8585     C
C       0.9875   0.7055   0.3585     C
H       0.9904   0.3381   0.4045     H
H       0.9904   0.6619   0.9045     H
C       0.9992   0.2873   0.9423     C
C       0.9992   0.7127   0.4423     C
