data_I
_chemical_name_common  '/home/zhangsd/repos/MofS-CGCNN/ML/data/TSD/clean_cifs/VOPHUF_clean'
_cell_length_a 10.11120
_cell_length_b 15.94300
_cell_length_c 16.76400
_cell_angle_alpha 111.32500
_cell_angle_beta  103.68000
_cell_angle_gamma 102.59800
_space_group_name_H-M_alt      'P 1'


loop_
_space_group_symop_operation_xyz
  'x, y, z' 

loop_
_atom_site_label
_atom_site_fract_x
_atom_site_fract_y
_atom_site_fract_z
_atom_site_type_symbol
C       0.0029   0.0209   0.6209     C
C       0.0112   0.1029   0.6105     C
C       0.0191    0.625   0.6222     C
H       0.0217   0.1136   0.8291     H
C       0.0224   0.5602   0.3944     C
H       0.0333    0.687   0.6284     H
H       0.0342   0.7737    0.018     H
C       0.0347   0.2045   0.9557     C
H       0.0356   0.6216   0.3992     H
C       0.0406   0.8545   0.1458     C
C       0.0414   0.6045   0.1242     C
H       0.0505   0.4411   0.9018     H
H       0.0551   0.6399    0.254     H
H       0.0569   0.8124    0.174     H
H       0.0659    0.164   0.9819     H
H       0.0728   0.5918   0.0054     H
H       0.0772   0.1305   0.2797     H
H       0.0809   0.0122   0.3747     H
C       0.1056   0.6533   0.2179     C
O       0.1082   0.7889    0.413     O
C       0.1098   0.4947   0.6104     C
H       0.1121   0.9308   0.6325     H
C       0.1134   0.4306   0.3841     C
C       0.1143   0.8608   0.3976     C
C       0.1144   0.6234   0.0687     C
C       0.1184   0.9864    0.625     C
C       0.1297   0.5867   0.6191     C
C       0.1343    0.523    0.392     C
H       0.1365   0.3551    0.095     H
C       0.1376   0.1527   0.6031     C
H       0.1438   0.2086   0.5961     H
C        0.164   0.2903   0.9826     C
C       0.1645   0.1808   0.3077     C
H       0.1647   0.2143   0.4333     H
C       0.1839   0.9288   0.1697     C
H       0.1886   0.4059   0.3831     H
N       0.1965   0.3619   0.0672     N
H       0.2052   0.1702   0.1909     H
O       0.2064   0.3669   0.5901     O
O        0.212   0.6078   0.9183     O
O       0.2145   0.9539   0.1138     O
C       0.2173   0.2315   0.3997     C
H       0.2182   0.6234   0.6228     H
O       0.2277    0.903   0.3895     O
C       0.2279   0.4517   0.6044     C
O       0.2336    0.295   0.9327     O
N        0.238   0.7192   0.2588     N
H       0.2391   0.7725   0.5648     H
C       0.2407   0.2039   0.2542     C
C       0.2417   0.0352   0.6179     C
H       0.2437   0.9418   0.2905     H
C       0.2516   0.6912   0.1115     C
C       0.2525   0.1187   0.6061     C
N       0.2736   0.9656   0.2569     N
C       0.2799    0.584   0.4014     C
O       0.2929   0.6654   0.4076     O
C        0.308   0.7387   0.2058     C
C       0.3171   0.6765   0.9737     C
C       0.3185   0.4462   0.1137     C
H       0.3188     0.83   0.7186     H
H        0.319   0.0124   0.6209     H
Co     0.32211  0.79396  0.40719    Co
H       0.3264   0.4565   0.2374     H
C        0.328   0.8211   0.5988     C
H       0.3287   0.6813   0.8148     H
N       0.3382   0.7181   0.0636     N
N       0.3424   0.3054   0.4448     N
H       0.3472   0.4714   0.0074     H
O       0.3499   0.5017   0.6112     O
H       0.3588   0.3416   0.7492     H
O       0.3656   0.1921   0.1136     O
C       0.3712   0.2792   0.2997     C
C       0.3733   0.4861   0.2082     C
C       0.3758   0.8549   0.6909     C
O       0.3801   0.5497   0.4036     O
C       0.3841   0.4934   0.0704     C
C       0.3867   0.1712   0.5961     C
O       0.3918   0.2442   0.5864     O
H       0.3983   0.7862   0.2335     H
N       0.4041   0.8551   0.5546     N
C       0.4098   0.0379   0.2999     C
H       0.4133   0.6143   0.8314     H
H       0.4144    0.051   0.4236     H
H       0.4145   0.7677   0.0964     H
C       0.4168    0.328   0.3941     C
C        0.419   0.6805   0.8503     C
Co     0.42436  0.37657  0.59235    Co
C        0.436   0.7238   0.9477     C
H       0.4429   0.7902   0.9661     H
C       0.4432    0.394   0.7835     C
H       0.4477    0.394   0.9037     H
H       0.4571    0.051   0.1923     H
C       0.4584   0.2684   0.1709     C
N       0.4619    0.312    0.258     N
C       0.4678   0.0755    0.394     C
H       0.4717   0.6332   0.7081     H
H       0.4731    0.277   0.0174     H
O       0.4882   0.1365   0.5987     O
N       0.4896   0.5644   0.2598     N
C        0.491   0.0739   0.2555     C
C       0.4945   0.4263   0.8764     C
H       0.4968   0.6209   0.5759     H
H       0.5032   0.3791   0.4241     H
C       0.5055   0.5737   0.1236     C
C        0.509   0.9261   0.7445     C
N       0.5104   0.4356   0.7402     N
O       0.5118   0.8635   0.4013     O
H       0.5269    0.723   0.9826     H
H       0.5283   0.3668   0.2919     H
C       0.5322   0.9245    0.606     C
N       0.5381    0.688    0.742     N
C       0.5416   0.7316   0.8291     C
H       0.5429    0.949   0.8077     H
H       0.5523    0.606   0.0963     H
C       0.5568    0.606   0.2165     C
H       0.5571   0.2098   0.0339     H
C        0.564   0.2762   0.0523     C
Co     0.57564  0.62343  0.40765    Co
C        0.581   0.3195   0.1497     C
C       0.5832    0.672   0.6059     C
H       0.5855   0.2323   0.9036     H
H       0.5856    0.949   0.5764     H
H       0.5867   0.3857   0.1686     H
C       0.5902   0.9621   0.7001     C
N       0.5959   0.1449   0.4454     N
H       0.6017   0.2138   0.7665     H
O       0.6082   0.7558   0.4136     O
C       0.6133   0.8288   0.4039     C
C       0.6159   0.5066   0.9296     C
O       0.6199   0.4503   0.5964     O
C       0.6242   0.1451   0.3091     C
C       0.6267   0.5139   0.7918     C
C       0.6288   0.7208   0.7003     C
O       0.6344   0.8079   0.8864     O
H       0.6412   0.6584   0.2508     H
O       0.6501   0.4983   0.3888     O
H       0.6528   0.5286   0.9926     H
N       0.6576   0.6946   0.5552     N
N       0.6618   0.2819   0.9364     N
H       0.6713   0.3187   0.1852     H
C        0.672   0.1789   0.4012     C
H       0.6736   0.5435   0.7626     H
Co     0.67789  0.20604  0.59281    Co
H        0.681   0.9876   0.3791     H
H       0.6812     0.17   0.2814     H
C       0.6815   0.5538   0.8863     C
C       0.6829   0.3235   0.0263     C
C        0.692   0.2613   0.7942     C
O       0.7071   0.3346   0.5924     O
C       0.7201    0.416   0.5986     C
N       0.7264   0.0344   0.7431     N
C       0.7475   0.8813   0.3939     C
C       0.7484   0.3088   0.8885     C
H       0.7563   0.0582   0.7095     H
C       0.7583   0.9648   0.3821     C
C       0.7593   0.7961   0.7458     C
H       0.7609   0.2275   0.4352     H
N        0.762   0.2808   0.7412     N
O       0.7664    0.705   0.0673     O
C       0.7721   0.5483   0.3956     C
O       0.7723    0.097   0.6105     O
H       0.7818   0.3766   0.3772     H
C       0.7827   0.7685   0.6003     C
O       0.7855   0.0461   0.8862     O
O        0.788   0.3922   0.0817     O
O       0.7936   0.6331   0.4099     O
H       0.7948   0.8298   0.8091     H
N       0.8035   0.6381   0.9328     N
H       0.8114   0.5941   0.6169     H
C       0.8161   0.0712   0.8303     C
H       0.8353   0.7857   0.5667     H
C       0.8355   0.8192   0.6923     C
C        0.836   0.7097   0.0174     C
H       0.8562   0.7914   0.4039     H
C       0.8624   0.8473   0.3969     C
H       0.8635   0.6449    0.905     H
C       0.8657    0.477    0.608     C
C       0.8703   0.4133   0.3809     C
C       0.8816   0.0136    0.375     C
C       0.8856   0.3766   0.9313     C
C       0.8857   0.1392   0.6024     C
C       0.8866   0.5694   0.6159     C
H       0.8879   0.0692   0.3675     H
C       0.8902   0.5053   0.3896     C
O       0.8918   0.2111    0.587     O
C       0.8944   0.3467   0.7821     C
H       0.9191   0.9878   0.6253     H
H       0.9228   0.8695   0.7203     H
H       0.9272   0.4082   0.9946     H
H       0.9341    0.836   0.0181     H
H       0.9431   0.1876    0.826     H
H       0.9449   0.3601    0.746     H
H       0.9495   0.5589   0.0982     H
C       0.9586   0.3955   0.8758     C
C       0.9594   0.1455   0.8542     C
H       0.9644   0.3784   0.6008     H
C       0.9653   0.7955   0.0443     C
H       0.9658   0.2263    0.982     H
H       0.9667    0.313   0.3716     H
C       0.9776   0.4398   0.6056     C
H       0.9783   0.8864   0.1709     H
C       0.9809    0.375   0.3778     C
C       0.9888   0.8971   0.3895     C
C       0.9971   0.9791   0.3791     C
