data_I
_chemical_name_common  '/home/zhangsd/repos/MofS-CGCNN/ML/data/TSD/clean_cifs/VOTKEW_clean'
_cell_length_a 23.98400
_cell_length_b 13.12200
_cell_length_c 11.91700
_cell_angle_alpha 90.00000
_cell_angle_beta  90.00000
_cell_angle_gamma 90.00000
_space_group_name_H-M_alt      'P 1'


loop_
_space_group_symop_operation_xyz
  'x, y, z' 

loop_
_atom_site_label
_atom_site_fract_x
_atom_site_fract_y
_atom_site_fract_z
_atom_site_type_symbol
O      0.00303   0.5848   0.2605     O
O      0.00303   0.9152   0.2395     O
O      0.01925   0.1817   0.6167     O
O      0.01925   0.3183   0.8833     O
C      0.02179   0.0989   0.6694     C
C      0.02179   0.4011   0.8306     C
Cd     0.04246     0.75     0.25    Cd
H       0.0507   0.5801   0.7472     H
H       0.0507   0.9199   0.7528     H
C      0.05494   0.0128    0.619     C
C      0.05494   0.4872    0.881     C
C       0.0626   0.5761   0.8214     C
C       0.0626   0.9239   0.6786     C
H       0.0719   0.0799   0.4714     H
H       0.0719   0.4201   0.0286     H
C      0.07528   0.0191   0.5111     C
C      0.07528   0.4809   0.9889     C
C       0.0879   0.6598   0.8714     C
C       0.0879   0.8402   0.6286     C
H       0.0919     0.72    0.831     H
H       0.0919     0.78    0.669     H
C      0.10089   0.5647   0.0393     C
C      0.10089   0.9353   0.4607     C
C      0.10707   0.6546   0.9801     C
C      0.10707   0.8454   0.5199     C
N       0.1126   0.7108    0.374     N
N       0.1126   0.7892    0.126     N
H       0.1138   0.5601   0.1127     H
H       0.1138   0.9399   0.3873     H
C      0.13108   0.7463   0.0323     C
C      0.13108   0.7537   0.4677     C
N      0.14482   0.6286    0.356     N
N      0.14482   0.8714    0.144     N
N      0.17331   0.7001   0.5117     N
N      0.17331   0.7999   0.9883     N
N      0.18019   0.6226   0.4389     N
N      0.18019   0.8774   0.0611     N
H       0.2234   0.6444    0.863     H
H       0.2234   0.8556    0.637     H
H       0.2241   0.6404   0.6717     H
H       0.2241   0.8596   0.8283     H
C       0.2343   0.5852   0.8262     C
C       0.2343   0.9148   0.6738     C
C       0.2348   0.5822   0.7106     C
C       0.2348   0.9178   0.7894     C
H       0.2386   0.1518   0.4631     H
H       0.2386   0.3482   0.0369     H
H       0.2419   0.1474   0.2709     H
H       0.2419   0.3526   0.2291     H
C      0.24362     0.09   0.4263     C
C      0.24362     0.41   0.0737     C
C      0.24483   0.0864   0.3103     C
C      0.24483   0.4136   0.1897     C
Cd        0.25      0.0  0.05118    Cd
N         0.25      0.0   0.2516     N
C         0.25      0.0   0.4874     C
C         0.25      0.0   0.6122     C
N         0.25      0.0   0.8487     N
C         0.25      0.5   0.0126     C
N         0.25      0.5   0.2484     N
Cd        0.25      0.5  0.44882    Cd
N         0.25      0.5   0.6513     N
C         0.25      0.5   0.8878     C
C      0.25517   0.5864   0.1897     C
C      0.25517   0.9136   0.3103     C
C      0.25638     0.59   0.0737     C
C      0.25638     0.91   0.4263     C
H       0.2581   0.6474   0.2291     H
H       0.2581   0.8526   0.2709     H
H       0.2614   0.6518   0.0369     H
H       0.2614   0.8482   0.4631     H
C       0.2652   0.0822   0.7894     C
C       0.2652   0.4178   0.7106     C
C       0.2657   0.0852   0.6738     C
C       0.2657   0.4148   0.8262     C
H       0.2759   0.1404   0.8283     H
H       0.2759   0.3596   0.6717     H
H       0.2766   0.1444    0.637     H
H       0.2766   0.3556    0.863     H
N      0.31981   0.1226   0.0611     N
N      0.31981   0.3774   0.4389     N
N      0.32669   0.2001   0.9883     N
N      0.32669   0.2999   0.5117     N
N      0.35518   0.1286    0.144     N
N      0.35518   0.3714    0.356     N
C      0.36892   0.2463   0.4677     C
C      0.36892   0.2537   0.0323     C
H       0.3862   0.0601   0.3873     H
H       0.3862   0.4399   0.1127     H
N       0.3874   0.2108    0.126     N
N       0.3874   0.2892    0.374     N
C      0.39293   0.1546   0.5199     C
C      0.39293   0.3454   0.9801     C
C      0.39911   0.0647   0.4607     C
C      0.39911   0.4353   0.0393     C
H       0.4081     0.22    0.669     H
H       0.4081     0.28    0.831     H
C       0.4121   0.1598   0.6286     C
C       0.4121   0.3402   0.8714     C
C      0.42472   0.5191   0.9889     C
C      0.42472   0.9809   0.5111     C
H       0.4281   0.5799   0.0286     H
H       0.4281   0.9201   0.4714     H
C       0.4374   0.0761   0.6786     C
C       0.4374   0.4239   0.8214     C
C      0.44506   0.5128    0.881     C
C      0.44506   0.9872    0.619     C
H       0.4493   0.0801   0.7528     H
H       0.4493   0.4199   0.7472     H
Cd     0.45754     0.25     0.25    Cd
C      0.47821   0.5989   0.8306     C
C      0.47821   0.9011   0.6694     C
O      0.48075   0.6817   0.8833     O
O      0.48075   0.8183   0.6167     O
O      0.49697   0.0848   0.2395     O
O      0.49697   0.4152   0.2605     O
O      0.50303   0.5848   0.7395     O
O      0.50303   0.9152   0.7605     O
O      0.51925   0.1817   0.3833     O
O      0.51925   0.3183   0.1167     O
C      0.52179   0.0989   0.3306     C
C      0.52179   0.4011   0.1694     C
Cd     0.54246     0.75     0.75    Cd
H       0.5507   0.5801   0.2528     H
H       0.5507   0.9199   0.2472     H
C      0.55494   0.0128    0.381     C
C      0.55494   0.4872    0.119     C
C       0.5626   0.5761   0.1786     C
C       0.5626   0.9239   0.3214     C
H       0.5719   0.0799   0.5286     H
H       0.5719   0.4201   0.9714     H
C      0.57528   0.0191   0.4889     C
C      0.57528   0.4809   0.0111     C
C       0.5879   0.6598   0.1286     C
C       0.5879   0.8402   0.3714     C
H       0.5919     0.72    0.169     H
H       0.5919     0.78    0.331     H
C      0.60089   0.5647   0.9607     C
C      0.60089   0.9353   0.5393     C
C      0.60707   0.6546   0.0199     C
C      0.60707   0.8454   0.4801     C
N       0.6126   0.7108    0.626     N
N       0.6126   0.7892    0.874     N
H       0.6138   0.5601   0.8873     H
H       0.6138   0.9399   0.6127     H
C      0.63108   0.7463   0.9677     C
C      0.63108   0.7537   0.5323     C
N      0.64482   0.6286    0.644     N
N      0.64482   0.8714    0.856     N
N      0.67331   0.7001   0.4883     N
N      0.67331   0.7999   0.0117     N
N      0.68019   0.6226   0.5611     N
N      0.68019   0.8774   0.9389     N
H       0.7234   0.6444    0.137     H
H       0.7234   0.8556    0.363     H
H       0.7241   0.6404   0.3283     H
H       0.7241   0.8596   0.1717     H
C       0.7343   0.5852   0.1738     C
C       0.7343   0.9148   0.3262     C
C       0.7348   0.5822   0.2894     C
C       0.7348   0.9178   0.2106     C
H       0.7386   0.1518   0.5369     H
H       0.7386   0.3482   0.9631     H
H       0.7419   0.1474   0.7291     H
H       0.7419   0.3526   0.7709     H
C      0.74362     0.09   0.5737     C
C      0.74362     0.41   0.9263     C
C      0.74483   0.0864   0.6897     C
C      0.74483   0.4136   0.8103     C
N         0.75      0.0   0.1513     N
C         0.75      0.0   0.3878     C
C         0.75      0.0   0.5126     C
N         0.75      0.0   0.7484     N
Cd        0.75      0.0  0.94882    Cd
C         0.75      0.5   0.1122     C
N         0.75      0.5   0.3487     N
Cd        0.75      0.5  0.55118    Cd
N         0.75      0.5   0.7516     N
C         0.75      0.5   0.9874     C
C      0.75517   0.5864   0.8103     C
C      0.75517   0.9136   0.6897     C
C      0.75638     0.59   0.9263     C
C      0.75638     0.91   0.5737     C
H       0.7581   0.6474   0.7709     H
H       0.7581   0.8526   0.7291     H
H       0.7614   0.6518   0.9631     H
H       0.7614   0.8482   0.5369     H
C       0.7652   0.0822   0.2106     C
C       0.7652   0.4178   0.2894     C
C       0.7657   0.0852   0.3262     C
C       0.7657   0.4148   0.1738     C
H       0.7759   0.1404   0.1717     H
H       0.7759   0.3596   0.3283     H
H       0.7766   0.1444    0.363     H
H       0.7766   0.3556    0.137     H
N      0.81981   0.1226   0.9389     N
N      0.81981   0.3774   0.5611     N
N      0.82669   0.2001   0.0117     N
N      0.82669   0.2999   0.4883     N
N      0.85518   0.1286    0.856     N
N      0.85518   0.3714    0.644     N
C      0.86892   0.2463   0.5323     C
C      0.86892   0.2537   0.9677     C
H       0.8862   0.0601   0.6127     H
H       0.8862   0.4399   0.8873     H
N       0.8874   0.2108    0.874     N
N       0.8874   0.2892    0.626     N
C      0.89293   0.1546   0.4801     C
C      0.89293   0.3454   0.0199     C
C      0.89911   0.0647   0.5393     C
C      0.89911   0.4353   0.9607     C
H       0.9081     0.22    0.331     H
H       0.9081     0.28    0.169     H
C       0.9121   0.1598   0.3714     C
C       0.9121   0.3402   0.1286     C
C      0.92472   0.5191   0.0111     C
C      0.92472   0.9809   0.4889     C
H       0.9281   0.5799   0.9714     H
H       0.9281   0.9201   0.5286     H
C       0.9374   0.0761   0.3214     C
C       0.9374   0.4239   0.1786     C
C      0.94506   0.5128    0.119     C
C      0.94506   0.9872    0.381     C
H       0.9493   0.0801   0.2472     H
H       0.9493   0.4199   0.2528     H
Cd     0.95754     0.25     0.75    Cd
C      0.97821   0.5989   0.1694     C
C      0.97821   0.9011   0.3306     C
O      0.98075   0.6817   0.1167     O
O      0.98075   0.8183   0.3833     O
O      0.99697   0.0848   0.7605     O
O      0.99697   0.4152   0.7395     O
