data_I
_chemical_name_common  '/home/zhangsd/repos/MofS-CGCNN/ML/data/TSD/clean_cifs/VUJBEI_clean'
_cell_length_a 30.29490
_cell_length_b 30.29490
_cell_length_c 30.29490
_cell_angle_alpha 60.00000
_cell_angle_beta  60.00000
_cell_angle_gamma 60.00000
_space_group_name_H-M_alt      'P 1'


loop_
_space_group_symop_operation_xyz
  'x, y, z' 

loop_
_atom_site_label
_atom_site_fract_x
_atom_site_fract_y
_atom_site_fract_z
_atom_site_type_symbol
Zn         0.0      0.0  0.35779    Zn
Zn         0.0      0.0  0.64221    Zn
Zn         0.0      0.0  0.74227    Zn
Zn         0.0  0.25773  0.74227    Zn
Zn         0.0  0.74227      0.0    Zn
Zn         0.0  0.74227  0.25773    Zn
O      0.01333  0.30383  0.76187     O
O      0.01333  0.30383  0.92097     O
O      0.01333  0.76187  0.30383     O
O      0.01333  0.76187  0.92097     O
O      0.01333  0.92097  0.30383     O
O      0.01333  0.92097  0.76187     O
O      0.01397  0.37629  0.68893     O
O      0.01397  0.37629  0.92081     O
O      0.01397  0.68893  0.37629     O
O      0.01397  0.68893  0.92081     O
O      0.01397  0.92081  0.37629     O
O      0.01397  0.92081  0.68893     O
C      0.01637  0.35033  0.73573     C
C      0.01637  0.35033  0.89757     C
C      0.01637  0.73573  0.35033     C
C      0.01637  0.73573  0.89757     C
C      0.01637  0.89757  0.35033     C
C      0.01637  0.89757  0.73573     C
H       0.0175   0.3135   0.8345     H
H       0.0175   0.8345   0.3135     H
H       0.0175   0.8345   0.8345     H
C      0.02048   0.3486  0.81546     C
C      0.02048  0.81546   0.3486     C
C      0.02048  0.81546  0.81546     C
C      0.02266  0.37516  0.76196     C
C      0.02266  0.37516  0.84022     C
C      0.02266  0.76196  0.37516     C
C      0.02266  0.76196  0.84022     C
C      0.02266  0.84022  0.37516     C
C      0.02266  0.84022  0.76196     C
C      0.03156  0.42476    0.732     C
C      0.03156  0.42476  0.81168     C
C      0.03156    0.732  0.42476     C
C      0.03156    0.732  0.81168     C
C      0.03156  0.81168  0.42476     C
C      0.03156  0.81168    0.732     C
H       0.0339   0.4417   0.6951     H
H       0.0339   0.4417   0.8293     H
H       0.0339   0.6951   0.4417     H
H       0.0339   0.6951   0.8293     H
H       0.0339   0.8293   0.4417     H
H       0.0339   0.8293   0.6951     H
C      0.03684  0.44876   0.7572     C
C      0.03684   0.7572  0.44876     C
C      0.03684   0.7572   0.7572     C
C      0.04494  0.49686   0.7291     C
C      0.04494   0.7291  0.49686     C
C      0.04494   0.7291   0.7291     C
C       0.0519   0.5403   0.7039     C
C       0.0519   0.7039   0.5403     C
C       0.0519   0.7039   0.7039     C
C      0.05986  0.59474   0.6727     C
C      0.05986   0.6727  0.59474     C
C      0.05986   0.6727   0.6727     C
C       0.0617   0.6195   0.6195     C
C       0.0617   0.6195   0.6993     C
C       0.0617   0.6993   0.6195     C
H       0.0644   0.6006   0.6006     H
H       0.0644   0.6006   0.7344     H
H       0.0644   0.7344   0.6006     H
O      0.07903  0.23813  0.69617     O
O      0.07903  0.23813  0.98667     O
O      0.07903  0.69617  0.23813     O
O      0.07903  0.69617  0.98667     O
O      0.07903  0.98667  0.23813     O
O      0.07903  0.98667  0.69617     O
O      0.07919  0.31107  0.62371     O
O      0.07919  0.31107  0.98603     O
O      0.07919  0.62371  0.31107     O
O      0.07919  0.62371  0.98603     O
O      0.07919  0.98603  0.31107     O
O      0.07919  0.98603  0.62371     O
C      0.10243  0.26427  0.64967     C
C      0.10243  0.26427  0.98363     C
C      0.10243  0.64967  0.26427     C
C      0.10243  0.64967  0.98363     C
C      0.10243  0.98363  0.26427     C
C      0.10243  0.98363  0.64967     C
C      0.15978  0.23804  0.62484     C
C      0.15978  0.23804  0.97734     C
C      0.15978  0.62484  0.23804     C
C      0.15978  0.62484  0.97734     C
C      0.15978  0.97734  0.23804     C
C      0.15978  0.97734  0.62484     C
H       0.1655   0.1655   0.6865     H
H       0.1655   0.1655   0.9825     H
H       0.1655   0.6865   0.1655     H
H       0.1655   0.6865   0.9825     H
H       0.1655   0.9825   0.1655     H
H       0.1655   0.9825   0.6865     H
H       0.1707   0.3049   0.5583     H
H       0.1707   0.3049   0.9661     H
H       0.1707   0.5583   0.3049     H
H       0.1707   0.5583   0.9661     H
H       0.1707   0.9661   0.3049     H
H       0.1707   0.9661   0.5583     H
C      0.18454  0.18454   0.6514     C
C      0.18454  0.18454  0.97952     C
C      0.18454   0.6514  0.18454     C
C      0.18454   0.6514  0.97952     C
C      0.18454  0.97952  0.18454     C
C      0.18454  0.97952   0.6514     C
C      0.18832    0.268  0.57524     C
C      0.18832    0.268  0.96844     C
C      0.18832  0.57524    0.268     C
C      0.18832  0.57524  0.96844     C
C      0.18832  0.96844    0.268     C
C      0.18832  0.96844  0.57524     C
C      0.23804  0.15978  0.62484     C
C      0.23804  0.15978  0.97734     C
C      0.23804  0.62484  0.15978     C
C      0.23804  0.62484  0.97734     C
C      0.23804  0.97734  0.15978     C
C      0.23804  0.97734  0.62484     C
O      0.23813  0.07903  0.69617     O
O      0.23813  0.07903  0.98667     O
O      0.23813  0.69617  0.07903     O
O      0.23813  0.69617  0.98667     O
O      0.23813  0.98667  0.07903     O
O      0.23813  0.98667  0.69617     O
C       0.2428   0.2428  0.55124     C
C       0.2428   0.2428  0.96316     C
C       0.2428  0.55124   0.2428     C
C       0.2428  0.55124  0.96316     C
C       0.2428  0.96316   0.2428     C
C       0.2428  0.96316  0.55124     C
Zn     0.25773      0.0      0.0    Zn
Zn     0.25773      0.0  0.74227    Zn
Zn     0.25773  0.74227      0.0    Zn
C      0.26427  0.10243  0.64967     C
C      0.26427  0.10243  0.98363     C
C      0.26427  0.64967  0.10243     C
C      0.26427  0.64967  0.98363     C
C      0.26427  0.98363  0.10243     C
C      0.26427  0.98363  0.64967     C
H       0.2656   0.3994   0.3994     H
H       0.2656   0.3994   0.9356     H
H       0.2656   0.9356   0.3994     H
C        0.268  0.18832  0.57524     C
C        0.268  0.18832  0.96844     C
C        0.268  0.57524  0.18832     C
C        0.268  0.57524  0.96844     C
C        0.268  0.96844  0.18832     C
C        0.268  0.96844  0.57524     C
C       0.2709   0.2709  0.50314     C
C       0.2709   0.2709  0.95506     C
C       0.2709  0.50314   0.2709     C
C       0.2709  0.50314  0.95506     C
C       0.2709  0.95506   0.2709     C
C       0.2709  0.95506  0.50314     C
C       0.2961   0.2961   0.4597     C
C       0.2961   0.2961   0.9481     C
C       0.2961   0.4597   0.2961     C
C       0.2961   0.4597   0.9481     C
C       0.2961   0.9481   0.2961     C
C       0.2961   0.9481   0.4597     C
C       0.3007   0.3805   0.3805     C
C       0.3007   0.3805   0.9383     C
C       0.3007   0.9383   0.3805     C
O      0.30383  0.01333  0.76187     O
O      0.30383  0.01333  0.92097     O
O      0.30383  0.76187  0.01333     O
O      0.30383  0.76187  0.92097     O
O      0.30383  0.92097  0.01333     O
O      0.30383  0.92097  0.76187     O
H       0.3049   0.1707   0.5583     H
H       0.3049   0.1707   0.9661     H
H       0.3049   0.5583   0.1707     H
H       0.3049   0.5583   0.9661     H
H       0.3049   0.9661   0.1707     H
H       0.3049   0.9661   0.5583     H
O      0.31107  0.07919  0.62371     O
O      0.31107  0.07919  0.98603     O
O      0.31107  0.62371  0.07919     O
O      0.31107  0.62371  0.98603     O
O      0.31107  0.98603  0.07919     O
O      0.31107  0.98603  0.62371     O
H       0.3135   0.0175   0.8345     H
H       0.3135   0.8345   0.0175     H
H       0.3135   0.8345   0.8345     H
C       0.3273   0.3273  0.40526     C
C       0.3273   0.3273  0.94014     C
C       0.3273  0.40526   0.3273     C
C       0.3273  0.40526  0.94014     C
C       0.3273  0.94014   0.3273     C
C       0.3273  0.94014  0.40526     C
C       0.3486  0.02048  0.81546     C
C       0.3486  0.81546  0.02048     C
C       0.3486  0.81546  0.81546     C
C      0.35033  0.01637  0.73573     C
C      0.35033  0.01637  0.89757     C
C      0.35033  0.73573  0.01637     C
C      0.35033  0.73573  0.89757     C
C      0.35033  0.89757  0.01637     C
C      0.35033  0.89757  0.73573     C
Zn     0.35779     -0.0      0.0    Zn
Zn     0.35779     -0.0  0.64221    Zn
Zn     0.35779  0.64221     -0.0    Zn
C      0.37516  0.02266  0.76196     C
C      0.37516  0.02266  0.84022     C
C      0.37516  0.76196  0.02266     C
C      0.37516  0.76196  0.84022     C
C      0.37516  0.84022  0.02266     C
C      0.37516  0.84022  0.76196     C
O      0.37629  0.01397  0.68893     O
O      0.37629  0.01397  0.92081     O
O      0.37629  0.68893  0.01397     O
O      0.37629  0.68893  0.92081     O
O      0.37629  0.92081  0.01397     O
O      0.37629  0.92081  0.68893     O
C       0.3805   0.3007   0.3805     C
C       0.3805   0.3007   0.9383     C
C       0.3805   0.3805   0.3007     C
C       0.3805   0.3805   0.9383     C
C       0.3805   0.9383   0.3007     C
C       0.3805   0.9383   0.3805     C
H       0.3994   0.2656   0.3994     H
H       0.3994   0.2656   0.9356     H
H       0.3994   0.3994   0.2656     H
H       0.3994   0.3994   0.9356     H
H       0.3994   0.9356   0.2656     H
H       0.3994   0.9356   0.3994     H
C      0.40526   0.3273   0.3273     C
C      0.40526   0.3273  0.94014     C
C      0.40526  0.94014   0.3273     C
C      0.42476  0.03156    0.732     C
C      0.42476  0.03156  0.81168     C
C      0.42476    0.732  0.03156     C
C      0.42476    0.732  0.81168     C
C      0.42476  0.81168  0.03156     C
C      0.42476  0.81168    0.732     C
H       0.4417   0.0339   0.6951     H
H       0.4417   0.0339   0.8293     H
H       0.4417   0.6951   0.0339     H
H       0.4417   0.6951   0.8293     H
H       0.4417   0.8293   0.0339     H
H       0.4417   0.8293   0.6951     H
C      0.44876  0.03684   0.7572     C
C      0.44876   0.7572  0.03684     C
C      0.44876   0.7572   0.7572     C
C       0.4597   0.2961   0.2961     C
C       0.4597   0.2961   0.9481     C
C       0.4597   0.9481   0.2961     C
C      0.49686  0.04494   0.7291     C
C      0.49686   0.7291  0.04494     C
C      0.49686   0.7291   0.7291     C
C      0.50314   0.2709   0.2709     C
C      0.50314   0.2709  0.95506     C
C      0.50314  0.95506   0.2709     C
C       0.5403   0.0519   0.7039     C
C       0.5403   0.7039   0.0519     C
C       0.5403   0.7039   0.7039     C
C      0.55124   0.2428   0.2428     C
C      0.55124   0.2428  0.96316     C
C      0.55124  0.96316   0.2428     C
H       0.5583   0.1707   0.3049     H
H       0.5583   0.1707   0.9661     H
H       0.5583   0.3049   0.1707     H
H       0.5583   0.3049   0.9661     H
H       0.5583   0.9661   0.1707     H
H       0.5583   0.9661   0.3049     H
C      0.57524  0.18832    0.268     C
C      0.57524  0.18832  0.96844     C
C      0.57524    0.268  0.18832     C
C      0.57524    0.268  0.96844     C
C      0.57524  0.96844  0.18832     C
C      0.57524  0.96844    0.268     C
C      0.59474  0.05986   0.6727     C
C      0.59474   0.6727  0.05986     C
C      0.59474   0.6727   0.6727     C
H       0.6006   0.0644   0.6006     H
H       0.6006   0.0644   0.7344     H
H       0.6006   0.6006   0.0644     H
H       0.6006   0.6006   0.7344     H
H       0.6006   0.7344   0.0644     H
H       0.6006   0.7344   0.6006     H
C       0.6195   0.0617   0.6195     C
C       0.6195   0.0617   0.6993     C
C       0.6195   0.6195   0.0617     C
C       0.6195   0.6195   0.6993     C
C       0.6195   0.6993   0.0617     C
C       0.6195   0.6993   0.6195     C
O      0.62371  0.07919  0.31107     O
O      0.62371  0.07919  0.98603     O
O      0.62371  0.31107  0.07919     O
O      0.62371  0.31107  0.98603     O
O      0.62371  0.98603  0.07919     O
O      0.62371  0.98603  0.31107     O
C      0.62484  0.15978  0.23804     C
C      0.62484  0.15978  0.97734     C
C      0.62484  0.23804  0.15978     C
C      0.62484  0.23804  0.97734     C
C      0.62484  0.97734  0.15978     C
C      0.62484  0.97734  0.23804     C
Zn     0.64221     -0.0      0.0    Zn
Zn     0.64221     -0.0  0.35779    Zn
Zn     0.64221  0.35779      0.0    Zn
C      0.64967  0.10243  0.26427     C
C      0.64967  0.10243  0.98363     C
C      0.64967  0.26427  0.10243     C
C      0.64967  0.26427  0.98363     C
C      0.64967  0.98363  0.10243     C
C      0.64967  0.98363  0.26427     C
C       0.6514  0.18454  0.18454     C
C       0.6514  0.18454  0.97952     C
C       0.6514  0.97952  0.18454     C
C       0.6727  0.05986  0.59474     C
C       0.6727  0.05986   0.6727     C
C       0.6727  0.59474  0.05986     C
C       0.6727  0.59474   0.6727     C
C       0.6727   0.6727  0.05986     C
C       0.6727   0.6727  0.59474     C
H       0.6865   0.1655   0.1655     H
H       0.6865   0.1655   0.9825     H
H       0.6865   0.9825   0.1655     H
O      0.68893  0.01397  0.37629     O
O      0.68893  0.01397  0.92081     O
O      0.68893  0.37629  0.01397     O
O      0.68893  0.37629  0.92081     O
O      0.68893  0.92081  0.01397     O
O      0.68893  0.92081  0.37629     O
H       0.6951   0.0339   0.4417     H
H       0.6951   0.0339   0.8293     H
H       0.6951   0.4417   0.0339     H
H       0.6951   0.4417   0.8293     H
H       0.6951   0.8293   0.0339     H
H       0.6951   0.8293   0.4417     H
O      0.69617  0.07903  0.23813     O
O      0.69617  0.07903  0.98667     O
O      0.69617  0.23813  0.07903     O
O      0.69617  0.23813  0.98667     O
O      0.69617  0.98667  0.07903     O
O      0.69617  0.98667  0.23813     O
C       0.6993   0.0617   0.6195     C
C       0.6993   0.6195   0.0617     C
C       0.6993   0.6195   0.6195     C
C       0.7039   0.0519   0.5403     C
C       0.7039   0.0519   0.7039     C
C       0.7039   0.5403   0.0519     C
C       0.7039   0.5403   0.7039     C
C       0.7039   0.7039   0.0519     C
C       0.7039   0.7039   0.5403     C
C       0.7291  0.04494  0.49686     C
C       0.7291  0.04494   0.7291     C
C       0.7291  0.49686  0.04494     C
C       0.7291  0.49686   0.7291     C
C       0.7291   0.7291  0.04494     C
C       0.7291   0.7291  0.49686     C
C        0.732  0.03156  0.42476     C
C        0.732  0.03156  0.81168     C
C        0.732  0.42476  0.03156     C
C        0.732  0.42476  0.81168     C
C        0.732  0.81168  0.03156     C
C        0.732  0.81168  0.42476     C
H       0.7344   0.0644   0.6006     H
H       0.7344   0.6006   0.0644     H
H       0.7344   0.6006   0.6006     H
C      0.73573  0.01637  0.35033     C
C      0.73573  0.01637  0.89757     C
C      0.73573  0.35033  0.01637     C
C      0.73573  0.35033  0.89757     C
C      0.73573  0.89757  0.01637     C
C      0.73573  0.89757  0.35033     C
Zn     0.74227     -0.0      0.0    Zn
Zn     0.74227     -0.0  0.25773    Zn
Zn     0.74227  0.25773      0.0    Zn
C       0.7572  0.03684  0.44876     C
C       0.7572  0.03684   0.7572     C
C       0.7572  0.44876  0.03684     C
C       0.7572  0.44876   0.7572     C
C       0.7572   0.7572  0.03684     C
C       0.7572   0.7572  0.44876     C
O      0.76187  0.01333  0.30383     O
O      0.76187  0.01333  0.92097     O
O      0.76187  0.30383  0.01333     O
O      0.76187  0.30383  0.92097     O
O      0.76187  0.92097  0.01333     O
O      0.76187  0.92097  0.30383     O
C      0.76196  0.02266  0.37516     C
C      0.76196  0.02266  0.84022     C
C      0.76196  0.37516  0.02266     C
C      0.76196  0.37516  0.84022     C
C      0.76196  0.84022  0.02266     C
C      0.76196  0.84022  0.37516     C
C      0.81168  0.03156  0.42476     C
C      0.81168  0.03156    0.732     C
C      0.81168  0.42476  0.03156     C
C      0.81168  0.42476    0.732     C
C      0.81168    0.732  0.03156     C
C      0.81168    0.732  0.42476     C
C      0.81546  0.02048   0.3486     C
C      0.81546  0.02048  0.81546     C
C      0.81546   0.3486  0.02048     C
C      0.81546   0.3486  0.81546     C
C      0.81546  0.81546  0.02048     C
C      0.81546  0.81546   0.3486     C
H       0.8293   0.0339   0.4417     H
H       0.8293   0.0339   0.6951     H
H       0.8293   0.4417   0.0339     H
H       0.8293   0.4417   0.6951     H
H       0.8293   0.6951   0.0339     H
H       0.8293   0.6951   0.4417     H
H       0.8345   0.0175   0.3135     H
H       0.8345   0.0175   0.8345     H
H       0.8345   0.3135   0.0175     H
H       0.8345   0.3135   0.8345     H
H       0.8345   0.8345   0.0175     H
H       0.8345   0.8345   0.3135     H
C      0.84022  0.02266  0.37516     C
C      0.84022  0.02266  0.76196     C
C      0.84022  0.37516  0.02266     C
C      0.84022  0.37516  0.76196     C
C      0.84022  0.76196  0.02266     C
C      0.84022  0.76196  0.37516     C
C      0.89757  0.01637  0.35033     C
C      0.89757  0.01637  0.73573     C
C      0.89757  0.35033  0.01637     C
C      0.89757  0.35033  0.73573     C
C      0.89757  0.73573  0.01637     C
C      0.89757  0.73573  0.35033     C
O      0.92081  0.01397  0.37629     O
O      0.92081  0.01397  0.68893     O
O      0.92081  0.37629  0.01397     O
O      0.92081  0.37629  0.68893     O
O      0.92081  0.68893  0.01397     O
O      0.92081  0.68893  0.37629     O
O      0.92097  0.01333  0.30383     O
O      0.92097  0.01333  0.76187     O
O      0.92097  0.30383  0.01333     O
O      0.92097  0.30383  0.76187     O
O      0.92097  0.76187  0.01333     O
O      0.92097  0.76187  0.30383     O
H       0.9356   0.2656   0.3994     H
H       0.9356   0.3994   0.2656     H
H       0.9356   0.3994   0.3994     H
C       0.9383   0.3007   0.3805     C
C       0.9383   0.3805   0.3007     C
C       0.9383   0.3805   0.3805     C
C      0.94014   0.3273   0.3273     C
C      0.94014   0.3273  0.40526     C
C      0.94014  0.40526   0.3273     C
C       0.9481   0.2961   0.2961     C
C       0.9481   0.2961   0.4597     C
C       0.9481   0.4597   0.2961     C
C      0.95506   0.2709   0.2709     C
C      0.95506   0.2709  0.50314     C
C      0.95506  0.50314   0.2709     C
C      0.96316   0.2428   0.2428     C
C      0.96316   0.2428  0.55124     C
C      0.96316  0.55124   0.2428     C
H       0.9661   0.1707   0.3049     H
H       0.9661   0.1707   0.5583     H
H       0.9661   0.3049   0.1707     H
H       0.9661   0.3049   0.5583     H
H       0.9661   0.5583   0.1707     H
H       0.9661   0.5583   0.3049     H
C      0.96844  0.18832    0.268     C
C      0.96844  0.18832  0.57524     C
C      0.96844    0.268  0.18832     C
C      0.96844    0.268  0.57524     C
C      0.96844  0.57524  0.18832     C
C      0.96844  0.57524    0.268     C
C      0.97734  0.15978  0.23804     C
C      0.97734  0.15978  0.62484     C
C      0.97734  0.23804  0.15978     C
C      0.97734  0.23804  0.62484     C
C      0.97734  0.62484  0.15978     C
C      0.97734  0.62484  0.23804     C
C      0.97952  0.18454  0.18454     C
C      0.97952  0.18454   0.6514     C
C      0.97952   0.6514  0.18454     C
H       0.9825   0.1655   0.1655     H
H       0.9825   0.1655   0.6865     H
H       0.9825   0.6865   0.1655     H
C      0.98363  0.10243  0.26427     C
C      0.98363  0.10243  0.64967     C
C      0.98363  0.26427  0.10243     C
C      0.98363  0.26427  0.64967     C
C      0.98363  0.64967  0.10243     C
C      0.98363  0.64967  0.26427     C
O      0.98603  0.07919  0.31107     O
O      0.98603  0.07919  0.62371     O
O      0.98603  0.31107  0.07919     O
O      0.98603  0.31107  0.62371     O
O      0.98603  0.62371  0.07919     O
O      0.98603  0.62371  0.31107     O
O      0.98667  0.07903  0.23813     O
O      0.98667  0.07903  0.69617     O
O      0.98667  0.23813  0.07903     O
O      0.98667  0.23813  0.69617     O
O      0.98667  0.69617  0.07903     O
O      0.98667  0.69617  0.23813     O
Zn         1.0     -0.0  0.25773    Zn
Zn         1.0  0.25773      0.0    Zn
Zn         1.0  0.35779      0.0    Zn
Zn         1.0  0.35779  0.64221    Zn
Zn         1.0  0.64221      0.0    Zn
Zn         1.0  0.64221  0.35779    Zn
