data_I
_chemical_name_common  '/home/zhangsd/repos/MofS-CGCNN/ML/data/TSD/clean_cifs/VUKTEC_clean'
_cell_length_a 14.58900
_cell_length_b 15.28500
_cell_length_c 22.75800
_cell_angle_alpha 84.67900
_cell_angle_beta  84.32300
_cell_angle_gamma 86.39600
_space_group_name_H-M_alt      'P 1'


loop_
_space_group_symop_operation_xyz
  'x, y, z' 

loop_
_atom_site_label
_atom_site_fract_x
_atom_site_fract_y
_atom_site_fract_z
_atom_site_type_symbol
C       0.0135   0.3403   0.8051     C
H       0.0149    0.474   0.1366     H
O       0.0158   0.9066   0.7522     O
C       0.0248   0.9667   0.7837     C
H       0.0264   0.0804   0.8686     H
C       0.0271   0.6209   0.6789     C
C       0.0282   0.5311   0.6894     C
C       0.0303   0.5266   0.1496     C
C       0.0324   0.9393   0.1324     C
H       0.0365   0.5743   0.3267     H
C       0.0391   0.4167   0.8236     C
C       0.0395   0.5131   0.3312     C
H        0.042   0.2721     0.36     H
C        0.043   0.3328    0.352     C
C       0.0496   0.9971   0.1742     C
O       0.0598   0.2049   0.7633     O
H       0.0739   0.5007   0.7101     H
C       0.0784   0.6815   0.1869     C
C       0.0864   0.2796   0.7767     C
H       0.0917   0.8752   0.0655     H
C       0.0925   0.6708   0.7018     C
H       0.0949   0.7343   0.1991     H
O       0.0986     0.75   0.6872     O
H       0.1004   0.4313   0.8188     H
C       0.1024   0.9128   0.0937     C
O       0.1095   0.0009   0.7809     O
C       0.1107   0.4703   0.3579     C
C       0.1121    0.377   0.3699     C
C       0.1204   0.5499    0.143     C
C       0.1385   0.0238   0.1759     C
H       0.1403   0.5988    0.033     H
H        0.142   0.1634   0.9761     H
O       0.1446   0.6237   0.7399     O
H       0.1453   0.1438   0.5368     H
C       0.1456    0.625   0.1609     C
H       0.1505   0.0599   0.2046     H
H       0.1592   0.3469   0.3895     H
H       0.1605   0.9185   0.8866     H
H       0.1624   0.5707   0.9349     H
O       0.1652   0.1465   0.6518     O
O         0.17   0.8002   0.8136     O
O       0.1701   0.2951   0.7686     O
C       0.1703   0.5466   0.0218     C
O       0.1722    0.134   0.8652     O
H       0.1739   0.9777   0.9722     H
Eu     0.17849  0.87216  0.71523    Eu
O       0.1848   0.5155   0.3726     O
C        0.187   0.5304   0.9631     C
H       0.1873   0.1735   0.0685     H
H       0.1884   0.1203   0.4398     H
O       0.1889    0.492   0.1223     O
C       0.1898   0.9414   0.0958     C
C       0.1935   0.8868   0.9153     C
C       0.1966   0.1064    0.528     C
C       0.1994   0.4833   0.0627     C
H          0.2   0.3551   0.6392     H
C       0.2015   0.9224   0.9659     C
C       0.2036   0.1694   0.9816     C
Eu     0.20615  0.12089  0.75749    Eu
H       0.2071   0.6392    0.156     H
C       0.2077    0.998   0.1363     C
H       0.2107   0.2821   0.5543     H
C       0.2142   0.0766   0.6373     C
H       0.2179   0.4527   0.2672     H
C       0.2229   0.0939   0.4694     C
C       0.2264   0.7594   0.8477     C
C       0.2314   0.1756    0.036     C
C       0.2328   0.8041   0.9039     C
C       0.2362   0.4607   0.9446     C
O       0.2364   0.5038   0.8447     O
O       0.2365   0.0216   0.6763     O
C       0.2415   0.3728   0.6073     C
C       0.2421   0.0665    0.574     C
C       0.2474   0.1696   0.8747     C
C       0.2486   0.8788   0.0068     C
C        0.249   0.3278   0.5564     C
C       0.2561    0.415   0.0439     C
O       0.2561   0.4515   0.7137     O
C       0.2621   0.4442   0.8829     C
O       0.2644   0.9161   0.0589     O
C       0.2656   0.5107   0.3347     C
H       0.2665   0.0183   0.1364     H
O       0.2681   0.6929   0.8383     O
C       0.2702   0.4721   0.2813     C
C       0.2712   0.1722   0.9344     C
C       0.2718   0.4029    0.987     C
O       0.2822   0.8297   0.6342     O
H       0.2842   0.3763   0.0716     H
C       0.2856   0.7609   0.9458     C
Eu     0.28959  0.59951  0.76387    Eu
C       0.2916    0.491   0.6638     C
C        0.295   0.7965   0.9977     C
C       0.2953   0.4436    0.611     C
O       0.2954   0.3755   0.8675     O
C       0.3002   0.0422   0.4555     C
O       0.3002   0.1956   0.8278     O
H        0.308    0.354   0.9755     H
C       0.3103   0.3494   0.5104     C
O       0.3117    0.303   0.4621     O
O       0.3136   0.8988   0.7578     O
H       0.3152   0.7067   0.9386     H
O       0.3165   0.0199   0.7987     O
O       0.3167   0.7351   0.7101     O
C       0.3173   0.0129   0.5599     C
O       0.3197   0.5664   0.6616     O
C       0.3201   0.1846   0.0454     C
H       0.3227   0.8647    0.413     H
O       0.3255   0.0335   0.3975     O
Eu     0.32717  0.33367  0.77222    Eu
H       0.3307   0.7676    0.026     H
O       0.3317   0.1996   0.7083     O
H       0.3337   0.5767   0.3861     H
C       0.3365   0.7729   0.6591     C
C       0.3392   0.5476   0.3517     C
O       0.3416   0.1952   0.1017     O
H        0.348   0.9824   0.5901     H
C       0.3498   0.0023   0.5004     C
C       0.3508   0.9406   0.7918     C
C       0.3539   0.4679   0.5604     C
C       0.3582    0.464   0.2495     C
H       0.3622   0.3259   0.3515     H
C       0.3633     0.42   0.5113     C
C       0.3634   0.1808   0.9439     C
H       0.3655   0.4343   0.2153     H
C       0.3775   0.8812   0.3916     C
H       0.3874   0.5178   0.5597     H
C       0.3894   0.1871   0.9997     C
C        0.393    0.969   0.3809     C
C       0.3964   0.2834   0.4337     C
H       0.4006   0.8043   0.5456     H
H        0.404   0.9689   0.4914     H
H        0.405   0.0515   0.6891     H
H       0.4054   0.4355   0.4792     H
C       0.4077   0.2244   0.6829     C
H       0.4081   0.1823   0.9118     H
C       0.4105   0.3019   0.3726     C
O       0.4128   0.4668   0.7625     O
C       0.4218   0.5417    0.318     C
C       0.4229   0.1606    0.124     C
H       0.4267    0.757   0.3776     H
O       0.4278   0.3028   0.6818     O
C       0.4287   0.9109    0.822     C
C       0.4302    0.753   0.6275     C
H       0.4321   0.2629   0.1717     H
C       0.4336   0.4998   0.2689     C
H       0.4362    0.047   0.0835     H
H       0.4369   0.7892   0.7881     H
H       0.4377   0.0064   0.8699     H
C       0.4399   0.8161   0.3718     C
C        0.447   0.7748   0.5661     C
H       0.4506   0.1927   0.0063     H
O       0.4518   0.5934   0.7858     O
H       0.4592   0.2366   0.5062     H
C       0.4595   0.2085   0.1629     C
C       0.4601   0.0689   0.6686     C
C       0.4605    0.079   0.1105     C
C       0.4649    0.952    0.861     C
C       0.4654   0.8232    0.812     C
C       0.4675   0.2468   0.4651     C
H       0.4718   0.5682   0.3298     H
C       0.4719   0.9945   0.3513     C
C       0.4743   0.5217   0.7662     C
C       0.4769   0.1571   0.6571     C
H       0.4822   0.0541   0.3437     H
H        0.495   0.7015   0.6975     H
C       0.4963   0.2845   0.3432     C
C       0.5037   0.7155   0.6568     C
H        0.505   0.2985   0.3025     H
H       0.5178   0.9459   0.6563     H
C       0.5231   0.8429   0.3429     C
C       0.5257   0.4783   0.2338     C
C       0.5281   0.0055   0.6487     C
H       0.5282   0.4318   0.6702     H
C       0.5325   0.7532   0.5349     C
C       0.5346   0.1768    0.188     C
C       0.5351    0.048    0.139     C
C       0.5395    0.921   0.8895     C
C       0.5399   0.9311   0.3314     C
C       0.5405   0.7915   0.8371     C
H       0.5408   0.7634   0.4938     H
O       0.5482   0.4066   0.2142     O
H       0.5494   0.8073   0.9937     H
C        0.553   0.2252   0.4339     C
C       0.5601   0.1839   0.6282     C
H       0.5623   0.9936   0.1301     H
H       0.5631   0.2108   0.2119     H
H       0.5638    0.953   0.9165     H
C       0.5664   0.5002   0.7311     C
H       0.5679   0.7371   0.8283     H
C       0.5698    0.247   0.3725     C
C       0.5713   0.0891    0.178     C
O       0.5722   0.6972   0.3182     O
H       0.5733    0.243   0.6224     H
C       0.5771   0.8394    0.876     C
C       0.5782   0.4583    0.682     C
O       0.5872   0.5332   0.2375     O
C       0.5895   0.6981   0.6274     C
H       0.5919   0.8177   0.0882     H
C       0.5923   0.7756   0.3171     C
H       0.5946   0.5645   0.5208     H
H        0.595   0.9485   0.3109     H
H        0.596   0.0311   0.5086     H
H       0.5994   0.1957   0.4544     H
C       0.6036   0.7166   0.5663     C
C        0.607    0.031   0.6191     C
C       0.6106   0.8129   0.0003     C
H       0.6126   0.4822   0.4403     H
C       0.6225   0.1188   0.6084     C
H       0.6345   0.5657   0.7847     H
C       0.6366   0.8192   0.0561     C
C       0.6367     0.58   0.4887     C
H       0.6378   0.6741   0.6485     H
C       0.6418    0.536   0.7505     C
C       0.6461   0.5321   0.4396     C
C       0.6492   0.0594   0.2082     C
C       0.6502   0.9977   0.4996     C
H        0.652   0.0176   0.4099     H
O       0.6584   0.8048   0.8983     O
C       0.6608   0.4524   0.6483     C
C       0.6635   0.2271   0.3409     C
H       0.6663   0.4233   0.6139     H
O       0.6683   0.8004   0.2917     O
H       0.6693   0.2324    0.974     H
Eu     0.67283  0.66633  0.22778    Eu
O       0.6745   0.9665   0.6025     O
H       0.6773   0.1353    0.587     H
C       0.6799   0.8154   0.9546     C
O       0.6803   0.4336   0.3384     O
C       0.6827   0.9871   0.4401     C
O       0.6833   0.2649   0.2899     O
O       0.6835   0.9801   0.2013     O
H       0.6848   0.2933   0.0614     H
O       0.6864   0.1012   0.2422     O
O       0.6883    0.697   0.5379     O
C       0.6897   0.6506   0.4896     C
H        0.692    0.646   0.0245     H
O       0.6998   0.8044   0.1722     O
C       0.6998   0.9578   0.5445     C
O       0.7046   0.6245   0.1325     O
C       0.7047   0.5564    0.389     C
C        0.705   0.2035   0.0023     C
C       0.7084    0.509   0.3362     C
Eu     0.71041  0.40049  0.23613    Eu
C       0.7144   0.2391   0.0542     C
H       0.7158   0.6237   0.9284     H
O       0.7178   0.1703   0.3658     O
C       0.7282   0.5971    0.013     C
C       0.7288   0.8278   0.0656     C
C       0.7298   0.5279   0.7187     C
O       0.7319   0.3071   0.1617     O
H       0.7335   0.9817   0.8636     H
C       0.7344   0.4893   0.6653     C
O       0.7356   0.0839   0.9411     O
C       0.7379   0.5558   0.1171     C
O       0.7439   0.5485   0.2863     O
C       0.7439    0.585   0.9561     C
C        0.751   0.6722   0.4436     C
C       0.7514   0.1212   0.9932     C
C       0.7526   0.8304   0.1253     C
C       0.7579   0.9335    0.426     C
C       0.7585   0.6272   0.3927     C
O       0.7635   0.9784   0.3237     O
O       0.7636   0.4962   0.1553     O
C       0.7638   0.5393   0.0554     C
C       0.7672   0.1959   0.0961     C
C       0.7686   0.8244    0.964     C
C       0.7736   0.2406   0.1523     C
C       0.7771   0.9061   0.5306     C
H       0.7821   0.5473   0.7328     H
C       0.7858   0.9234   0.3627     C
H       0.7893   0.7179   0.4457     H
C       0.7923    0.002   0.8637     C
H       0.7929   0.3608    0.844     H
Eu     0.79385  0.87911  0.24251    Eu
C       0.7964   0.8306   0.0184     C
C       0.7985   0.0776   0.0341     C
H          0.8   0.6449   0.3608     H
C       0.8006   0.5167   0.9373     C
C       0.8034   0.8936    0.472     C
C       0.8065   0.1132   0.0847     C
C       0.8102   0.0586   0.9042     C
O       0.8111    0.508   0.8777     O
H       0.8116   0.8797   0.5602     H
H       0.8127   0.8265   0.9315     H
C        0.813   0.4696   0.0369     C
O       0.8152   0.4845   0.6274     O
Eu     0.82151  0.12784  0.28477    Eu
H       0.8261   0.0223   0.0278     H
O       0.8278    0.866   0.1348     O
C       0.8297   0.4534   0.9782     C
O       0.8299   0.7049   0.2314     O
O         0.83   0.1998   0.1864     O
O       0.8348   0.8535   0.3482     O
H       0.8376   0.4293   0.0651     H
H       0.8395   0.0815   0.1134     H
H       0.8408   0.6531   0.6105     H
H       0.8495   0.9401   0.7954     H
C       0.8544    0.375   0.8391     C
H       0.8547   0.8562   0.4632     H
O       0.8554   0.3763   0.2601     O
H        0.858   0.8366   0.0239     H
H       0.8597   0.4012    0.967     H
C       0.8615   0.9762   0.8241     C
C       0.8796   0.4501    0.857     C
C       0.8879    0.623   0.6301     C
C       0.8893   0.5297   0.6421     C
O       0.8905   0.9991   0.2191     O
C       0.8976   0.0872   0.9063     C
H       0.8996   0.5687   0.1812     H
O       0.9014     0.25   0.3128     O
H       0.9051   0.2657   0.8009     H
C       0.9075   0.3292   0.2982     C
H       0.9083   0.1248   0.9345     H
C       0.9136   0.7204   0.2233     C
C       0.9216   0.3185   0.8131     C
H       0.9261   0.4993   0.2899     H
O       0.9402   0.7951   0.2367     O
C       0.9504   0.0029   0.8258     C
C        0.957   0.6672    0.648     C
H        0.958   0.7279     0.64     H
C       0.9605   0.4869   0.6688     C
C       0.9609   0.5833   0.1764     C
H       0.9635   0.4257   0.6733     H
C       0.9676   0.0607   0.8676     C
C       0.9697   0.4734   0.8504     C
C       0.9718   0.4689   0.3106     C
C       0.9729   0.3791   0.3211     C
H       0.9736   0.9196   0.1314     H
C       0.9752   0.0333   0.2163     C
O       0.9842   0.0934   0.2478     O
H       0.9851    0.526   0.8634     H
C       0.9865   0.6597   0.1949     C
