data_I
_chemical_name_common  '/home/zhangsd/repos/MofS-CGCNN/ML/data/TSD/clean_cifs/VULFOZ_clean'
_cell_length_a 13.47010
_cell_length_b 10.82980
_cell_length_c 14.68830
_cell_angle_alpha 90.00000
_cell_angle_beta  109.83000
_cell_angle_gamma 90.00000
_space_group_name_H-M_alt      'P 1'


loop_
_space_group_symop_operation_xyz
  'x, y, z' 

loop_
_atom_site_label
_atom_site_fract_x
_atom_site_fract_y
_atom_site_fract_z
_atom_site_type_symbol
H        0.001   0.5573   0.7892     H
H        0.001   0.9427   0.2892     H
C       0.0212   0.7139   0.0827     C
C       0.0212   0.7861   0.5827     C
C       0.0376   0.7313   0.6729     C
C       0.0376   0.7687   0.1729     C
H        0.047   0.1938   0.4567     H
H        0.047   0.3062   0.9567     H
C       0.0518   0.2125   0.7907     C
C       0.0518   0.2875   0.2907     C
C       0.0548   0.1131   0.7298     C
C       0.0548   0.3869   0.2298     C
H        0.093   0.6528   0.9911     H
H        0.093   0.8472   0.4911     H
C       0.1052   0.6893   0.0513     C
C       0.1052   0.8107   0.5513     C
H       0.1357   0.1399   0.3562     H
H       0.1357   0.3601   0.8562     H
C       0.1364   0.2064   0.3163     C
C       0.1364   0.2936   0.8163     C
C       0.1389   0.0971   0.6979     C
C       0.1389   0.4029   0.1979     C
H       0.1396   0.0305   0.6581     H
H       0.1396   0.4695   0.1581     H
C       0.1397   0.6989    0.729     C
C       0.1397   0.8011    0.229     C
H       0.1516   0.6613   0.7887     H
H       0.1516   0.8387   0.2887     H
C       0.2081   0.7189   0.1094     C
C       0.2081   0.7811   0.6094     C
C       0.2223   0.2202   0.2848     C
C       0.2223   0.2798   0.7848     C
C       0.2245   0.1812   0.7249     C
C       0.2245   0.3188   0.2249     C
C       0.2248   0.7214   0.6977     C
C       0.2248   0.7786   0.1977     C
O       0.2855   0.6559    0.995     O
O       0.2855   0.8441    0.495     O
O       0.2965   0.0387    0.368     O
O       0.2965   0.4613    0.868     O
C       0.3003   0.6759   0.0822     C
C       0.3003   0.8241   0.5822     C
C       0.3106   0.1283   0.3198     C
C       0.3106   0.3717   0.8198     C
C       0.3154   0.1558   0.6877     C
C       0.3154   0.3442   0.1877     C
O       0.3155   0.2085   0.6115     O
O       0.3155   0.2915   0.1115     O
C       0.3317   0.6766     0.76     C
C       0.3317   0.8234     0.26     C
O       0.3671   0.7161   0.8459     O
O       0.3671   0.7839   0.3459     O
O       0.3756   0.5949   0.7246     O
O       0.3756   0.9051   0.2246     O
O       0.3805   0.0757   0.7345     O
O       0.3805   0.4243   0.2345     O
O       0.3852   0.6624   0.1498     O
O       0.3852   0.8376   0.6498     O
O       0.3916   0.1468    0.297     O
O       0.3916   0.3532    0.797     O
Co      0.4015  0.58288  0.95566    Co
Co      0.4015  0.91712  0.45566    Co
H         0.43    0.094    0.564     H
H         0.43    0.406    0.064     H
H        0.441    0.535    0.035     H
H        0.441    0.965    0.535     H
O       0.4597   0.0461   0.5636     O
O       0.4597   0.4539   0.0636     O
Co     0.49443  0.52088  0.20113    Co
Co     0.49443  0.97912  0.70113    Co
Co     0.50557  0.02088  0.29887    Co
Co     0.50557  0.47912  0.79887    Co
O       0.5403   0.5461   0.9364     O
O       0.5403   0.9539   0.4364     O
H        0.559    0.035    0.465     H
H        0.559    0.465    0.965     H
H         0.57    0.594    0.936     H
H         0.57    0.906    0.436     H
Co      0.5985  0.08288  0.54434    Co
Co      0.5985  0.41712  0.04434    Co
O       0.6084   0.6468    0.203     O
O       0.6084   0.8532    0.703     O
O       0.6148   0.1624   0.3502     O
O       0.6148   0.3376   0.8502     O
O       0.6195   0.5757   0.7655     O
O       0.6195   0.9243   0.2655     O
O       0.6244   0.0949   0.7754     O
O       0.6244   0.4051   0.2754     O
O       0.6329   0.2161   0.6541     O
O       0.6329   0.2839   0.1541     O
C       0.6683   0.1766     0.74     C
C       0.6683   0.3234     0.24     C
O       0.6845   0.7085   0.8885     O
O       0.6845   0.7915   0.3885     O
C       0.6846   0.6558   0.8123     C
C       0.6846   0.8442   0.3123     C
C       0.6894   0.6283   0.1802     C
C       0.6894   0.8717   0.6802     C
C       0.6997   0.1759   0.4178     C
C       0.6997   0.3241   0.9178     C
O       0.7035   0.5387    0.132     O
O       0.7035   0.9613    0.632     O
O       0.7145   0.1559    0.505     O
O       0.7145   0.3441    0.005     O
C       0.7752   0.2214   0.8023     C
C       0.7752   0.2786   0.3023     C
C       0.7755   0.6812   0.7751     C
C       0.7755   0.8188   0.2751     C
C       0.7777   0.7202   0.2152     C
C       0.7777   0.7798   0.7152     C
C       0.7919   0.2189   0.3906     C
C       0.7919   0.2811   0.8906     C
H       0.8484   0.1613   0.7113     H
H       0.8484   0.3387   0.2113     H
C       0.8603   0.1989    0.771     C
C       0.8603   0.3011    0.271     C
H       0.8604   0.5305   0.8419     H
H       0.8604   0.9695   0.3419     H
C       0.8611   0.5971   0.8021     C
C       0.8611   0.9029   0.3021     C
C       0.8636   0.7064   0.1837     C
C       0.8636   0.7936   0.6837     C
H       0.8643   0.6399   0.1438     H
H       0.8643   0.8601   0.6438     H
C       0.8948   0.1893   0.4487     C
C       0.8948   0.3107   0.9487     C
H        0.907   0.1528   0.5089     H
H        0.907   0.3472   0.0089     H
C       0.9452   0.6131   0.7702     C
C       0.9452   0.8869   0.2702     C
C       0.9482   0.7125   0.7093     C
C       0.9482   0.7875   0.2093     C
H        0.953   0.6938   0.0433     H
H        0.953   0.8062   0.5433     H
C       0.9624   0.2313   0.8271     C
C       0.9624   0.2687   0.3271     C
C       0.9788   0.2139   0.4173     C
C       0.9788   0.2861   0.9173     C
H        0.999   0.0573   0.7108     H
H        0.999   0.4427   0.2108     H
