data_I
_chemical_name_common  '/home/zhangsd/repos/MofS-CGCNN/ML/data/TSD/clean_cifs/VULFIT_clean'
_cell_length_a 13.54970
_cell_length_b 10.85670
_cell_length_c 14.62630
_cell_angle_alpha 90.00000
_cell_angle_beta  109.78400
_cell_angle_gamma 90.00000
_space_group_name_H-M_alt      'P 1'


loop_
_space_group_symop_operation_xyz
  'x, y, z' 

loop_
_atom_site_label
_atom_site_fract_x
_atom_site_fract_y
_atom_site_fract_z
_atom_site_type_symbol
H          0.0   0.0615   0.7087     H
H          0.0   0.4385   0.2087     H
H          0.0   0.5615   0.7913     H
H          0.0   0.9385   0.2913     H
C      0.02099  0.71036  0.08426     C
C      0.02099  0.78964  0.58426     C
C      0.03751  0.73357  0.67433     C
C      0.03751  0.76643  0.17433     C
H       0.0467   0.1894   0.4549     H
H       0.0467   0.3106   0.9549     H
C      0.05165  0.21464  0.78874     C
C      0.05165  0.28536  0.28874     C
C      0.05525  0.11737  0.72808     C
C      0.05525  0.38263  0.22808     C
H       0.0927    0.648   0.9929     H
H       0.0927    0.852   0.4929     H
C      0.10486  0.68574  0.05278     C
C      0.10486  0.81426  0.55278     C
H       0.1355   0.1386    0.357     H
H       0.1355   0.3614    0.857     H
C      0.13632  0.20416  0.31635     C
C      0.13632  0.29584  0.81635     C
C      0.13953  0.69908  0.73043     C
C      0.13953  0.80092  0.23043     C
C       0.1396   0.1023  0.69614     C
C       0.1396   0.3977  0.19614     C
H         0.14   0.0366   0.6554     H
H         0.14   0.4634   0.1554     H
H       0.1516   0.6606     0.79     H
H       0.1516   0.8394     0.29     H
C      0.20682  0.71686  0.10964     C
C      0.20682  0.78314  0.60964     C
C      0.22212  0.21774  0.28523     C
C      0.22212  0.28226  0.78523     C
C      0.22295  0.72176  0.69801     C
C      0.22295  0.77824  0.19801     C
C      0.22458  0.18432  0.72406     C
C      0.22458  0.31568  0.22406     C
O      0.28501  0.65399  0.99547     O
O      0.28501  0.84601  0.49547     O
O       0.2968  0.03794  0.36946     O
O       0.2968  0.46206  0.86946     O
C      0.29905  0.67488  0.08308     C
C      0.29905  0.82512  0.58308     C
C      0.31033  0.12697  0.32111     C
C      0.31033  0.37303  0.82111     C
C      0.31566  0.15902  0.68794     C
C      0.31566  0.34098  0.18794     C
O       0.3174   0.2125  0.61241     O
O       0.3174   0.2875  0.11241     O
C      0.33081  0.67593  0.75962     C
C      0.33081  0.82407  0.25962     C
O      0.36693  0.71591  0.84511     O
O      0.36693  0.78409  0.34511     O
O      0.37223  0.59438  0.72279     O
O      0.37223  0.90562  0.22279     O
O      0.37994  0.07978  0.73512     O
O      0.37994  0.42022  0.23512     O
O      0.38351  0.66122  0.15186     O
O      0.38351  0.83878  0.65186     O
O       0.3912   0.1473  0.29933     O
O       0.3912   0.3527  0.79933     O
Co      0.4036  0.58491  0.95713    Co
Co      0.4036  0.91509  0.45713    Co
H       0.4148   0.1023   0.5582     H
H       0.4148   0.3977   0.0582     H
O       0.4616  0.04362  0.56669     O
O       0.4616  0.45638  0.06669     O
Co     0.49522  0.52144  0.20525    Co
Co     0.49522  0.97856  0.70525    Co
Co     0.50478  0.02144  0.29475    Co
Co     0.50478  0.47856  0.79475    Co
O       0.5384  0.54362  0.93331     O
O       0.5384  0.95638  0.43331     O
H       0.5852   0.6023   0.9418     H
H       0.5852   0.8977   0.4418     H
Co      0.5964  0.08491  0.54287    Co
Co      0.5964  0.41509  0.04287    Co
O       0.6088   0.6473  0.20067     O
O       0.6088   0.8527  0.70067     O
O      0.61649  0.16122  0.34814     O
O      0.61649  0.33878  0.84814     O
O      0.62006  0.57978  0.76488     O
O      0.62006  0.92022  0.26488     O
O      0.62777  0.09438  0.77721     O
O      0.62777  0.40562  0.27721     O
O      0.63307  0.21591  0.65489     O
O      0.63307  0.28409  0.15489     O
C      0.66919  0.17593  0.74038     C
C      0.66919  0.32407  0.24038     C
O       0.6826   0.7125  0.88759     O
O       0.6826   0.7875  0.38759     O
C      0.68434  0.65902  0.81206     C
C      0.68434  0.84098  0.31206     C
C      0.68967  0.62697  0.17889     C
C      0.68967  0.87303  0.67889     C
C      0.70095  0.17488  0.41692     C
C      0.70095  0.32512  0.91692     C
O       0.7032  0.53794  0.13054     O
O       0.7032  0.96206  0.63054     O
O      0.71499  0.15399  0.50453     O
O      0.71499  0.34601  0.00453     O
C      0.77542  0.68432  0.77594     C
C      0.77542  0.81568  0.27594     C
C      0.77705  0.22176  0.80199     C
C      0.77705  0.27824  0.30199     C
C      0.77788  0.71774  0.21477     C
C      0.77788  0.78226  0.71477     C
C      0.79318  0.21686  0.39036     C
C      0.79318  0.28314  0.89036     C
H       0.8484   0.1606     0.71     H
H       0.8484   0.3394     0.21     H
H         0.86   0.5366   0.8446     H
H         0.86   0.9634   0.3446     H
C       0.8604   0.6023  0.80386     C
C       0.8604   0.8977  0.30386     C
C      0.86047  0.19908  0.76957     C
C      0.86047  0.30092  0.26957     C
C      0.86368  0.70416  0.18365     C
C      0.86368  0.79584  0.68365     C
H       0.8645   0.6386    0.143     H
H       0.8645   0.8614    0.643     H
C      0.89514  0.18574  0.44722     C
C      0.89514  0.31426  0.94722     C
H       0.9073    0.148   0.5071     H
H       0.9073    0.352   0.0071     H
C      0.94475  0.61737  0.77192     C
C      0.94475  0.88263  0.27192     C
C      0.94835  0.71464  0.71126     C
C      0.94835  0.78536  0.21126     C
H       0.9533   0.6894   0.0451     H
H       0.9533   0.8106   0.5451     H
C      0.96249  0.23357  0.82567     C
C      0.96249  0.26643  0.32567     C
C      0.97901  0.21036  0.41574     C
C      0.97901  0.28964  0.91574     C
