data_I
_chemical_name_common  '/home/zhangsd/repos/MofS-CGCNN/ML/data/TSD/clean_cifs/VUMBIQ_clean'
_cell_length_a 28.47740
_cell_length_b  9.46940
_cell_length_c 18.89210
_cell_angle_alpha 90.00000
_cell_angle_beta  90.00000
_cell_angle_gamma 90.00000
_space_group_name_H-M_alt      'P 1'


loop_
_space_group_symop_operation_xyz
  'x, y, z' 

loop_
_atom_site_label
_atom_site_fract_x
_atom_site_fract_y
_atom_site_fract_z
_atom_site_type_symbol
O          0.0   0.0188   0.9171     O
H          0.0    0.019    0.797     H
C          0.0   0.0644   0.7524     C
P          0.0   0.1385   0.0591     P
C          0.0   0.2441   0.6341     C
C          0.0   0.2559   0.1341     C
P          0.0   0.3615   0.5591     P
C          0.0   0.4356   0.2524     C
H          0.0    0.481    0.297     H
O          0.0   0.4812   0.4171     O
O          0.0   0.5188   0.5829     O
H          0.0    0.519    0.703     H
C          0.0   0.5644   0.7476     C
P          0.0   0.6385   0.4409     P
C          0.0   0.7441   0.8659     C
C          0.0   0.7559   0.3659     C
P          0.0   0.8615   0.9409     P
C          0.0   0.9356   0.2476     C
H          0.0    0.981    0.203     H
O          0.0   0.9812   0.0829     O
C       0.0426   0.2002    0.665     C
C       0.0426   0.2998    0.165     C
C       0.0426   0.7002    0.835     C
C       0.0426   0.7998    0.335     C
C       0.0429   0.1103   0.7242     C
C       0.0429   0.3897   0.2242     C
C       0.0429   0.6103   0.7758     C
C       0.0429   0.8897   0.2758     C
O       0.0445   0.1724   0.0207     O
O       0.0445   0.3276   0.5207     O
O       0.0445   0.6724   0.4793     O
O       0.0445   0.8276   0.9793     O
Cu     0.06547   0.1078  0.92551    Cu
Cu     0.06547   0.3922  0.42551    Cu
Cu     0.06547   0.6078  0.57449    Cu
Cu     0.06547   0.8922  0.07449    Cu
H       0.0711    0.213    0.639     H
H       0.0711    0.287    0.139     H
H       0.0711    0.713    0.861     H
H       0.0711    0.787    0.361     H
O       0.0845   0.0145   0.8391     O
O       0.0845   0.4855   0.3391     O
O       0.0845   0.5145   0.6609     O
O       0.0845   0.9855   0.1609     O
P       0.0965   0.0484     0.76     P
P       0.0965   0.4516     0.26     P
P       0.0965   0.5484     0.74     P
P       0.0965   0.9516     0.24     P
O       0.1134   0.0903   0.2793     O
O       0.1134   0.4097   0.7793     O
O       0.1134   0.5903   0.2207     O
O       0.1134   0.9097   0.7207     O
H       0.1157    0.195    0.515     H
H       0.1157    0.305    0.015     H
H       0.1157    0.695    0.985     H
H       0.1157    0.805    0.485     H
N       0.1344   0.1527   0.9514     N
N       0.1344   0.3473   0.4514     N
N       0.1344   0.6527   0.5486     N
N       0.1344   0.8473   0.0486     N
O        0.135   0.1656   0.7496     O
O        0.135   0.3344   0.2496     O
O        0.135   0.6656   0.7504     O
O        0.135   0.8344   0.2504     O
C       0.1415   0.2489   0.0009     C
C       0.1415   0.2511   0.5009     C
C       0.1415   0.7489   0.4991     C
C       0.1415   0.7511   0.9991     C
H       0.1657    0.001    0.901     H
H       0.1657    0.499    0.401     H
H       0.1657    0.501    0.599     H
H       0.1657    0.999    0.099     H
C       0.1703    0.092   0.9195     C
C       0.1703    0.408   0.4195     C
C       0.1703    0.592   0.5805     C
C       0.1703    0.908   0.0805     C
C       0.1865   0.2085   0.5228     C
C       0.1865   0.2915   0.0228     C
C       0.1865   0.7085   0.9772     C
C       0.1865   0.7915   0.4772     C
H       0.1899    0.119    0.545     H
H       0.1899    0.381    0.045     H
H       0.1899    0.619    0.955     H
H       0.1899    0.881    0.455     H
C       0.2178   0.1336   0.9362     C
C       0.2178   0.3664   0.4362     C
C       0.2178   0.6336   0.5638     C
C       0.2178   0.8664   0.0638     C
C       0.2257   0.2315   0.9886     C
C       0.2257   0.2685   0.4886     C
C       0.2257   0.7315   0.5114     C
C       0.2257   0.7685   0.0114     C
H        0.242    0.076    0.922     H
H        0.242    0.424    0.422     H
H        0.242    0.576    0.578     H
H        0.242    0.924    0.078     H
H        0.258    0.076    0.578     H
H        0.258    0.424    0.078     H
H        0.258    0.576    0.922     H
H        0.258    0.924    0.422     H
C       0.2743   0.2315   0.5114     C
C       0.2743   0.2685   0.0114     C
C       0.2743   0.7315   0.9886     C
C       0.2743   0.7685   0.4886     C
C       0.2822   0.1336   0.5638     C
C       0.2822   0.3664   0.0638     C
C       0.2822   0.6336   0.9362     C
C       0.2822   0.8664   0.4362     C
H       0.3101    0.119    0.955     H
H       0.3101    0.381    0.455     H
H       0.3101    0.619    0.545     H
H       0.3101    0.881    0.045     H
C       0.3135   0.2085   0.9772     C
C       0.3135   0.2915   0.4772     C
C       0.3135   0.7085   0.5228     C
C       0.3135   0.7915   0.0228     C
C       0.3297    0.092   0.5805     C
C       0.3297    0.408   0.0805     C
C       0.3297    0.592   0.9195     C
C       0.3297    0.908   0.4195     C
H       0.3343    0.001    0.599     H
H       0.3343    0.499    0.099     H
H       0.3343    0.501    0.901     H
H       0.3343    0.999    0.401     H
C       0.3585   0.2489   0.4991     C
C       0.3585   0.2511   0.9991     C
C       0.3585   0.7489   0.0009     C
C       0.3585   0.7511   0.5009     C
O        0.365   0.1656   0.7504     O
O        0.365   0.3344   0.2504     O
O        0.365   0.6656   0.7496     O
O        0.365   0.8344   0.2496     O
N       0.3656   0.1527   0.5486     N
N       0.3656   0.3473   0.0486     N
N       0.3656   0.6527   0.9514     N
N       0.3656   0.8473   0.4514     N
H       0.3843    0.195    0.985     H
H       0.3843    0.305    0.485     H
H       0.3843    0.695    0.515     H
H       0.3843    0.805    0.015     H
O       0.3866   0.0903   0.2207     O
O       0.3866   0.4097   0.7207     O
O       0.3866   0.5903   0.2793     O
O       0.3866   0.9097   0.7793     O
P       0.4035   0.0484     0.74     P
P       0.4035   0.4516     0.24     P
P       0.4035   0.5484     0.76     P
P       0.4035   0.9516     0.26     P
O       0.4155   0.0145   0.6609     O
O       0.4155   0.4855   0.1609     O
O       0.4155   0.5145   0.8391     O
O       0.4155   0.9855   0.3391     O
H       0.4289    0.213    0.861     H
H       0.4289    0.287    0.361     H
H       0.4289    0.713    0.639     H
H       0.4289    0.787    0.139     H
Cu     0.43453   0.1078  0.57449    Cu
Cu     0.43453   0.3922  0.07449    Cu
Cu     0.43453   0.6078  0.92551    Cu
Cu     0.43453   0.8922  0.42551    Cu
O       0.4555   0.1724   0.4793     O
O       0.4555   0.3276   0.9793     O
O       0.4555   0.6724   0.0207     O
O       0.4555   0.8276   0.5207     O
C       0.4571   0.1103   0.7758     C
C       0.4571   0.3897   0.2758     C
C       0.4571   0.6103   0.7242     C
C       0.4571   0.8897   0.2242     C
C       0.4574   0.2002    0.835     C
C       0.4574   0.2998    0.335     C
C       0.4574   0.7002    0.665     C
C       0.4574   0.7998    0.165     C
O          0.5   0.0188   0.5829     O
H          0.5    0.019    0.703     H
C          0.5   0.0644   0.7476     C
P          0.5   0.1385   0.4409     P
C          0.5   0.2441   0.8659     C
C          0.5   0.2559   0.3659     C
P          0.5   0.3615   0.9409     P
C          0.5   0.4356   0.2476     C
H          0.5    0.481    0.203     H
O          0.5   0.4812   0.0829     O
O          0.5   0.5188   0.9171     O
H          0.5    0.519    0.797     H
C          0.5   0.5644   0.7524     C
P          0.5   0.6385   0.0591     P
C          0.5   0.7441   0.6341     C
C          0.5   0.7559   0.1341     C
P          0.5   0.8615   0.5591     P
C          0.5   0.9356   0.2524     C
H          0.5    0.981    0.297     H
O          0.5   0.9812   0.4171     O
C       0.5426   0.2002    0.835     C
C       0.5426   0.2998    0.335     C
C       0.5426   0.7002    0.665     C
C       0.5426   0.7998    0.165     C
C       0.5429   0.1103   0.7758     C
C       0.5429   0.3897   0.2758     C
C       0.5429   0.6103   0.7242     C
C       0.5429   0.8897   0.2242     C
O       0.5445   0.1724   0.4793     O
O       0.5445   0.3276   0.9793     O
O       0.5445   0.6724   0.0207     O
O       0.5445   0.8276   0.5207     O
Cu     0.56547   0.1078  0.57449    Cu
Cu     0.56547   0.3922  0.07449    Cu
Cu     0.56547   0.6078  0.92551    Cu
Cu     0.56547   0.8922  0.42551    Cu
H       0.5711    0.213    0.861     H
H       0.5711    0.287    0.361     H
H       0.5711    0.713    0.639     H
H       0.5711    0.787    0.139     H
O       0.5845   0.0145   0.6609     O
O       0.5845   0.4855   0.1609     O
O       0.5845   0.5145   0.8391     O
O       0.5845   0.9855   0.3391     O
P       0.5965   0.0484     0.74     P
P       0.5965   0.4516     0.24     P
P       0.5965   0.5484     0.76     P
P       0.5965   0.9516     0.26     P
O       0.6134   0.0903   0.2207     O
O       0.6134   0.4097   0.7207     O
O       0.6134   0.5903   0.2793     O
O       0.6134   0.9097   0.7793     O
H       0.6157    0.195    0.985     H
H       0.6157    0.305    0.485     H
H       0.6157    0.695    0.515     H
H       0.6157    0.805    0.015     H
N       0.6344   0.1527   0.5486     N
N       0.6344   0.3473   0.0486     N
N       0.6344   0.6527   0.9514     N
N       0.6344   0.8473   0.4514     N
O        0.635   0.1656   0.7504     O
O        0.635   0.3344   0.2504     O
O        0.635   0.6656   0.7496     O
O        0.635   0.8344   0.2496     O
C       0.6415   0.2489   0.4991     C
C       0.6415   0.2511   0.9991     C
C       0.6415   0.7489   0.0009     C
C       0.6415   0.7511   0.5009     C
H       0.6657    0.001    0.599     H
H       0.6657    0.499    0.099     H
H       0.6657    0.501    0.901     H
H       0.6657    0.999    0.401     H
C       0.6703    0.092   0.5805     C
C       0.6703    0.408   0.0805     C
C       0.6703    0.592   0.9195     C
C       0.6703    0.908   0.4195     C
C       0.6865   0.2085   0.9772     C
C       0.6865   0.2915   0.4772     C
C       0.6865   0.7085   0.5228     C
C       0.6865   0.7915   0.0228     C
H       0.6899    0.119    0.955     H
H       0.6899    0.381    0.455     H
H       0.6899    0.619    0.545     H
H       0.6899    0.881    0.045     H
C       0.7178   0.1336   0.5638     C
C       0.7178   0.3664   0.0638     C
C       0.7178   0.6336   0.9362     C
C       0.7178   0.8664   0.4362     C
C       0.7257   0.2315   0.5114     C
C       0.7257   0.2685   0.0114     C
C       0.7257   0.7315   0.9886     C
C       0.7257   0.7685   0.4886     C
H        0.742    0.076    0.578     H
H        0.742    0.424    0.078     H
H        0.742    0.576    0.922     H
H        0.742    0.924    0.422     H
H        0.758    0.076    0.922     H
H        0.758    0.424    0.422     H
H        0.758    0.576    0.578     H
H        0.758    0.924    0.078     H
C       0.7743   0.2315   0.9886     C
C       0.7743   0.2685   0.4886     C
C       0.7743   0.7315   0.5114     C
C       0.7743   0.7685   0.0114     C
C       0.7822   0.1336   0.9362     C
C       0.7822   0.3664   0.4362     C
C       0.7822   0.6336   0.5638     C
C       0.7822   0.8664   0.0638     C
H       0.8101    0.119    0.545     H
H       0.8101    0.381    0.045     H
H       0.8101    0.619    0.955     H
H       0.8101    0.881    0.455     H
C       0.8135   0.2085   0.5228     C
C       0.8135   0.2915   0.0228     C
C       0.8135   0.7085   0.9772     C
C       0.8135   0.7915   0.4772     C
C       0.8297    0.092   0.9195     C
C       0.8297    0.408   0.4195     C
C       0.8297    0.592   0.5805     C
C       0.8297    0.908   0.0805     C
H       0.8343    0.001    0.901     H
H       0.8343    0.499    0.401     H
H       0.8343    0.501    0.599     H
H       0.8343    0.999    0.099     H
C       0.8585   0.2489   0.0009     C
C       0.8585   0.2511   0.5009     C
C       0.8585   0.7489   0.4991     C
C       0.8585   0.7511   0.9991     C
O        0.865   0.1656   0.7496     O
O        0.865   0.3344   0.2496     O
O        0.865   0.6656   0.7504     O
O        0.865   0.8344   0.2504     O
N       0.8656   0.1527   0.9514     N
N       0.8656   0.3473   0.4514     N
N       0.8656   0.6527   0.5486     N
N       0.8656   0.8473   0.0486     N
H       0.8843    0.195    0.515     H
H       0.8843    0.305    0.015     H
H       0.8843    0.695    0.985     H
H       0.8843    0.805    0.485     H
O       0.8866   0.0903   0.2793     O
O       0.8866   0.4097   0.7793     O
O       0.8866   0.5903   0.2207     O
O       0.8866   0.9097   0.7207     O
P       0.9035   0.0484     0.76     P
P       0.9035   0.4516     0.26     P
P       0.9035   0.5484     0.74     P
P       0.9035   0.9516     0.24     P
O       0.9155   0.0145   0.8391     O
O       0.9155   0.4855   0.3391     O
O       0.9155   0.5145   0.6609     O
O       0.9155   0.9855   0.1609     O
H       0.9289    0.213    0.639     H
H       0.9289    0.287    0.139     H
H       0.9289    0.713    0.861     H
H       0.9289    0.787    0.361     H
Cu     0.93453   0.1078  0.92551    Cu
Cu     0.93453   0.3922  0.42551    Cu
Cu     0.93453   0.6078  0.57449    Cu
Cu     0.93453   0.8922  0.07449    Cu
O       0.9555   0.1724   0.0207     O
O       0.9555   0.3276   0.5207     O
O       0.9555   0.6724   0.4793     O
O       0.9555   0.8276   0.9793     O
C       0.9571   0.1103   0.7242     C
C       0.9571   0.3897   0.2242     C
C       0.9571   0.6103   0.7758     C
C       0.9571   0.8897   0.2758     C
C       0.9574   0.2002    0.665     C
C       0.9574   0.2998    0.165     C
C       0.9574   0.7002    0.835     C
C       0.9574   0.7998    0.335     C
