data_I
_chemical_name_common  '/home/zhangsd/repos/MofS-CGCNN/ML/data/TSD/clean_cifs/VUQJUN01_clean'
_cell_length_a 13.81900
_cell_length_b 15.38200
_cell_length_c 24.38300
_cell_angle_alpha 100.41000
_cell_angle_beta  95.25000
_cell_angle_gamma 101.09000
_space_group_name_H-M_alt      'P 1'


loop_
_space_group_symop_operation_xyz
  'x, y, z' 

loop_
_atom_site_label
_atom_site_fract_x
_atom_site_fract_y
_atom_site_fract_z
_atom_site_type_symbol
C       0.0044   0.0675   0.7023     C
H       0.0063   0.3477   0.3342     H
C       0.0063   0.4427   0.9254     C
C       0.0119   0.0253   0.2996     C
C       0.0171    0.465   0.5687     C
H       0.0196   0.8042    0.666     H
H       0.0211   0.6116   0.1563     H
C        0.027   0.5099   0.0289     C
O       0.0291  0.25672   0.7054     O
C       0.0328   0.4789  0.51641     C
H       0.0377   0.5183   0.4163     H
H       0.0403   0.9504   0.7133     H
C       0.0427   0.2267   0.3289     C
C       0.0452   0.5774   0.1272     C
C       0.0529   0.7925  0.31271     C
C       0.0586   0.3182   0.3293     C
H       0.0649   0.4187   0.6357     H
H       0.0658   0.4239   0.9309     H
H       0.0673   0.1032   0.7158     H
C       0.0688   0.8934  0.31481     C
C       0.0791   0.4274   0.6003     C
O       0.0955   0.5048  0.32353     O
C       0.1011   0.0811   0.3196     C
C       0.1122   0.4788   0.0407     C
C       0.1174   0.4564   0.4969     C
C       0.1185   0.1806   0.3211     C
O       0.1273  0.76408  0.32951     O
C       0.1308   0.5489  0.13838     C
H       0.1329   0.4666    0.462     H
H       0.1364    0.445   0.0115     H
O       0.1491  0.61253  0.23492     O
C       0.1495   0.3669  0.32263     C
C       0.1591   0.9493   0.3344     C
C       0.1608   0.4025  0.58039     C
C       0.1627   0.4964   0.0945     C
C       0.1666   0.4659  0.32284     C
Mn     0.17459  0.64362  0.32342    Mn
C        0.176   0.0419   0.3372     C
C         0.18   0.4182   0.5297     C
Mn     0.18134  0.30157  0.73739    Mn
C        0.186   0.5688  0.19684     C
C       0.2085   0.2287   0.3149     C
H       0.2114   0.9244   0.3465     H
H       0.2124   0.0232   0.7366     H
O       0.2147    0.357  0.66452     O
H       0.2187   0.4726   0.1011     H
C       0.2247   0.3213   0.3159     C
O      0.22976  0.17793  0.71195     O
C       0.2311   0.3643  0.61483     C
H       0.2366   0.4034   0.5158     H
H       0.2388   0.0776    0.351     H
H       0.2465   0.8836   0.7403     H
O       0.2544  0.50861  0.32274     O
H       0.2592   0.7275    0.682     H
H       0.2607   0.1991   0.3098     H
O       0.2636   0.5381  0.20321     O
C       0.2657   0.0061   0.7201     C
C       0.2869   0.9225   0.7226     C
H       0.2876   0.3525    0.312     H
C       0.3055   0.1573  0.69127     C
H       0.3065   0.5926   0.6858     H
O       0.3075    0.346  0.59533     O
H       0.3143   0.4118   0.8646     H
C       0.3234   0.0644   0.6931     C
C       0.3257   0.7276   0.6925     C
H       0.3265   0.8503   0.3705     H
O      0.33354  0.69475  0.31831     O
H       0.3433   0.4672   0.9598     H
O      0.34916  0.36086  0.76569     O
C       0.3539   0.6465   0.6951     C
C       0.3662   0.8957   0.6996     C
Mn     0.36785  0.55619  0.27385    Mn
O       0.3679   0.2081  0.67144     O
H       0.3686   0.9833    0.435     H
H         0.37   0.5227   0.0443     H
C       0.3793   0.4264  0.88277     C
C       0.3807   0.8597  0.39808     C
Mn     0.39127  0.34596  0.67525    Mn
C       0.3952   0.8089   0.7054     C
C       0.3968   0.4596  0.94033     C
H       0.3982   0.5691   0.1391     H
C       0.4009   0.0365   0.6693     C
C       0.4061   0.9394   0.4369     C
C       0.4083   0.7085   0.3552     C
H       0.4086   0.1027   0.4923     H
H       0.4139   0.2735   0.2588     H
O        0.419  0.48734  0.68951     O
C       0.4243    0.956   0.6739     C
O       0.4298  0.44139  0.26887     O
C       0.4345   0.7932  0.39947     C
C       0.4347   0.5335   0.0624     C
C       0.4362   0.3812  0.79003     C
H       0.4385   0.0735   0.6494     H
H       0.4506   0.2371   0.5573     H
C       0.4513   0.6454   0.7111     C
C       0.4517   0.5634   0.1193     C
C       0.4548   0.4149  0.85235     C
H       0.4592   0.1383   0.2648     H
C       0.4621   0.1115  0.52019     C
O      0.46247   0.6496  0.35416     O
C       0.4791   0.2733   0.2722     C
H       0.4804   0.9412   0.6595     H
C       0.4829   0.5567   0.7112     C
C       0.4861   0.9564  0.47864     C
C       0.4871   0.1926  0.55927     C
C       0.4901   0.4815   0.9691     C
O      0.49077  0.62568  0.23656     O
C       0.4936   0.8077   0.7246     C
C       0.5064   0.1923   0.2754     C
O      0.50923  0.37432  0.76344     O
C       0.5099   0.5185   0.0309     C
C       0.5129   0.8074  0.44073     C
C       0.5139   0.0436  0.52136     C
C       0.5171   0.4433   0.2888     C
H       0.5196   0.0588   0.3405     H
C       0.5209   0.7267   0.7278     C
O      0.53753   0.3504  0.64584     O
C       0.5379   0.8885  0.47981     C
H       0.5408   0.8617   0.7352     H
C       0.5452   0.5851  0.14765     C
C       0.5483   0.4366   0.8807     C
C       0.5487   0.3546   0.2889     C
H       0.5494   0.7629   0.4427     H
H       0.5615   0.9265   0.3506     H
C       0.5638   0.6188  0.20997     C
C       0.5653   0.4665   0.9376     C
C       0.5655   0.2068  0.60053     C
O       0.5702  0.55861  0.73113     O
C       0.5757    0.044   0.3261     C
O        0.581  0.51266  0.31049     O
H       0.5861   0.7265   0.7412     H
H       0.5914   0.8973   0.5077     H
C       0.5917   0.2915   0.6448     C
C       0.5939   0.0606   0.5631     C
C       0.5991   0.9635   0.3307     C
H       0.6018   0.4309   0.8609     H
C       0.6032   0.5404  0.05967     C
C       0.6048   0.1911   0.2946     C
Mn     0.60873  0.65404  0.32475    Mn
C       0.6193   0.1403  0.60192     C
C       0.6207   0.5736  0.11723     C
H         0.63   0.4773   0.9557     H
H       0.6314   0.0167    0.565     H
O       0.6321   0.7919  0.32856     O
Mn     0.63215  0.44381  0.72615    Mn
C       0.6338   0.1043   0.3004     C
C       0.6461   0.3535   0.3049     C
O      0.65084  0.63914  0.23431     O
H       0.6567   0.5328   0.0402     H
O      0.66646  0.30525  0.68169     O
H       0.6735   0.1497   0.6295     H
C       0.6743   0.2724   0.3075     C
C       0.6766   0.9356   0.3069     C
H       0.6857   0.5882   0.1354     H
O       0.6925    0.654  0.40467     O
H       0.6935   0.4074   0.3142     H
C       0.6945   0.8427  0.30873     C
H       0.7124   0.6475    0.688     H
C       0.7131   0.0775   0.2774     C
C       0.7343   0.9939   0.2799     C
O       0.7364   0.4619  0.79679     O
H       0.7393   0.8009   0.6902     H
H       0.7408   0.2725    0.318     H
O       0.7456  0.49139  0.67726     O
H       0.7535   0.1164   0.2597     H
H       0.7612   0.9224    0.649     H
H       0.7634   0.5966   0.4842     H
C       0.7689   0.6357  0.38517     C
O      0.77024  0.82207  0.28805     O
C       0.7753   0.6787   0.6841     C
H       0.7813   0.5274   0.8989     H
O       0.7853    0.643  0.33548     O
H       0.7876   0.9768   0.2634     H
H       0.7886   0.0756   0.6535     H
C       0.7915   0.7713   0.6851     C
C        0.814   0.4312  0.80316     C
Mn     0.81866  0.69843  0.26261    Mn
C         0.82   0.5818   0.4703     C
C        0.824   0.9581   0.6628     C
Mn     0.82541  0.35638  0.67658    Mn
C       0.8334   0.5341  0.67716     C
C       0.8373   0.5036   0.9055     C
C       0.8392   0.5975  0.41961     C
C       0.8409   0.0507   0.6656     C
C       0.8505   0.6331  0.67737     C
O       0.8509  0.38747  0.76508     O
H       0.8636    0.555   0.9885     H
H       0.8671   0.5334    0.538     H
C       0.8692   0.4511  0.86162     C
O       0.8727  0.23592  0.67049     O
C       0.8815   0.8194   0.6789     C
C       0.8826   0.5436   0.5031     C
C       0.8878   0.5212   0.9593     C
C       0.8989   0.9189   0.6804     C
O       0.9045   0.4952  0.67647     O
C       0.9209   0.5726   0.3997     C
C       0.9312   0.1066  0.68519     C
H       0.9327   0.8968   0.2842     H
H       0.9342   0.5761   0.0691     H
H       0.9351   0.5813   0.3643     H
C       0.9414   0.6818   0.6707     C
C       0.9471   0.2075  0.68729     C
C       0.9548   0.4226   0.8728     C
C       0.9573   0.7733   0.6711     C
H       0.9597   0.0496   0.2867     H
H       0.9623   0.4817   0.5837     H
C       0.9672   0.5211  0.48359     C
O       0.9709  0.74328   0.2946     O
C        0.973   0.4901   0.9711     C
H       0.9789   0.3884   0.8437     H
H       0.9804   0.1958    0.334     H
C       0.9829    0.535   0.4313     C
C       0.9881   0.9747   0.7004     C
C       0.9937   0.5573   0.0746     C
H       0.9937   0.6523   0.6658     H
C       0.9956   0.9325   0.2977     C
