data_I
_chemical_name_common  '/home/zhangsd/repos/MofS-CGCNN/ML/data/TSD/clean_cifs/VUQKAU_clean'
_cell_length_a 12.35100
_cell_length_b 13.95800
_cell_length_c 18.50700
_cell_angle_alpha 90.00000
_cell_angle_beta  90.00000
_cell_angle_gamma 113.79000
_space_group_name_H-M_alt      'P 1'


loop_
_space_group_symop_operation_xyz
  'x, y, z' 

loop_
_atom_site_label
_atom_site_fract_x
_atom_site_fract_y
_atom_site_fract_z
_atom_site_type_symbol
H       0.0015   0.7691   0.5519     H
C       0.0185   0.3792   0.4671     C
C       0.0278   0.5585    0.496     C
C       0.0337   0.7289    0.527     C
H       0.0353   0.2846   0.6233     H
H       0.0569   0.2276   0.3233     H
H       0.0578   0.4286   0.6919     H
H       0.0651   0.5123   0.8067     H
O       0.0765   0.1269   0.5796     O
H       0.0852   0.4107   0.4383     H
H       0.0906   0.3801   0.2607     H
H       0.0982   0.6621   0.8723     H
O        0.099   0.1113   0.4149     O
C       0.1022   0.3153   0.6521     C
C       0.1158    0.402   0.6935     C
C       0.1239   0.6087   0.4512     C
C       0.1327   0.7774   0.4847     C
C       0.1329   0.2802   0.3213     C
H       0.1371   0.5648   0.2703     H
C       0.1417   0.5634   0.8109     C
O       0.1437   0.9479   0.5141     O
H       0.1531   0.5687   0.4237     H
C       0.1538   0.3722   0.2833     C
H       0.1569   0.7065   0.1988     H
C       0.1615   0.6541     0.85     C
C       0.1752   0.1824   0.6045     C
Mn     0.17721  0.91508  0.01901    Mn
C        0.178    0.717   0.4463     C
C       0.1864   0.2737   0.6529     C
C        0.194   0.8939    0.484     C
C       0.2021   0.5937   0.2398     C
O       0.2031   0.0624   0.9591     O
C       0.2043   0.1727   0.4036     C
O       0.2055   0.8359   0.9275     O
C       0.2144   0.4501   0.7372     C
C       0.2147   0.6797   0.1975     C
C       0.2259   0.2674   0.3561     C
O       0.2293   0.8281   0.0938     O
C       0.2346    0.548    0.778     C
H       0.2444   0.7488   0.4172     H
H       0.2556   0.2512   0.9172     H
C       0.2654    0.452    0.278     C
O       0.2707   0.1719   0.5938     O
C       0.2741   0.7326   0.8561     C
C       0.2853   0.3203   0.6975     C
C       0.2856   0.5499   0.2372     C
O       0.2945   0.1641   0.4275     O
C       0.2957   0.8273   0.9036     C
O       0.2969   0.9376   0.4591     O
C       0.2979   0.4063   0.7398     C
C        0.306   0.1061    0.984     C
C       0.3136   0.7263   0.1529     C
C        0.322    0.283   0.9463     C
Mn     0.32279  0.08492  0.51901    Mn
C       0.3248   0.8176   0.1045     C
C       0.3385   0.3459     0.35     C
H       0.3431   0.2935   0.6988     H
C       0.3462   0.6278   0.7833     C
H       0.3469   0.4313   0.9237     H
O       0.3563   0.0521   0.0141     O
C       0.3583   0.4366   0.3109     C
H       0.3629   0.4352   0.7703     H
C       0.3671   0.7198   0.8213     C
C       0.3673   0.2226   0.9847     C
C       0.3761   0.3913   0.9512     C
C       0.3842    0.598   0.1935     C
C       0.3978   0.6847   0.1521     C
O        0.401   0.8887   0.9149     O
H       0.4018   0.3379   0.3723     H
H       0.4094   0.6199   0.7607     H
H       0.4148   0.5893   0.9383     H
O       0.4235   0.8731   0.0796     O
H       0.4349   0.4877   0.3067     H
H       0.4422   0.5714   0.1919     H
H       0.4431   0.7724   0.8233     H
H       0.4647   0.7154   0.1233     H
C       0.4663   0.2711    0.027     C
C       0.4722   0.4415    0.996     C
C       0.4815   0.6208   0.9671     C
H       0.4985   0.2309   0.0519     H
Mn         0.5     -0.0      0.0    Mn
H       0.5015   0.7691   0.9481     H
C       0.5185   0.3792   0.0329     C
C       0.5278   0.5585    0.004     C
C       0.5337   0.7289    0.973     C
H       0.5353   0.2846   0.8767     H
H       0.5569   0.2276   0.1767     H
H       0.5578   0.4286   0.8081     H
H       0.5651   0.5123   0.6933     H
O       0.5765   0.1269   0.9204     O
H       0.5852   0.4107   0.0617     H
H       0.5906   0.3801   0.2393     H
H       0.5982   0.6621   0.6277     H
O        0.599   0.1113   0.0851     O
C       0.6022   0.3153   0.8479     C
C       0.6158    0.402   0.8065     C
C       0.6239   0.6087   0.0488     C
C       0.6327   0.7774   0.0153     C
C       0.6329   0.2802   0.1787     C
H       0.6371   0.5648   0.2297     H
C       0.6417   0.5634   0.6891     C
O       0.6437   0.9479   0.9859     O
H       0.6531   0.5687   0.0763     H
C       0.6538   0.3722   0.2167     C
H       0.6569   0.7065   0.3012     H
C       0.6615   0.6541     0.65     C
C       0.6752   0.1824   0.8955     C
Mn     0.67721  0.91508  0.48099    Mn
C        0.678    0.717   0.0537     C
C       0.6864   0.2737   0.8471     C
C        0.694   0.8939    0.016     C
C       0.7021   0.5937   0.2602     C
O       0.7031   0.0624   0.5409     O
C       0.7043   0.1727   0.0964     C
O       0.7055   0.8359   0.5725     O
C       0.7144   0.4501   0.7628     C
C       0.7147   0.6797   0.3025     C
C       0.7259   0.2674   0.1439     C
O       0.7293   0.8281   0.4062     O
C       0.7346    0.548    0.722     C
H       0.7444   0.7488   0.0828     H
H       0.7556   0.2512   0.5828     H
C       0.7654    0.452    0.222     C
O       0.7707   0.1719   0.9062     O
C       0.7741   0.7326   0.6439     C
C       0.7853   0.3203   0.8025     C
C       0.7856   0.5499   0.2628     C
O       0.7945   0.1641   0.0725     O
C       0.7957   0.8273   0.5964     C
O       0.7969   0.9376   0.0409     O
C       0.7979   0.4063   0.7602     C
C        0.806   0.1061    0.516     C
C       0.8136   0.7263   0.3471     C
C        0.822    0.283   0.5537     C
Mn     0.82279  0.08492  0.98099    Mn
C       0.8248   0.8176   0.3955     C
C       0.8385   0.3459     0.15     C
H       0.8431   0.2935   0.8012     H
C       0.8462   0.6278   0.7167     C
H       0.8469   0.4313   0.5763     H
O       0.8563   0.0521   0.4859     O
C       0.8583   0.4366   0.1891     C
H       0.8629   0.4352   0.7297     H
C       0.8671   0.7198   0.6787     C
C       0.8673   0.2226   0.5153     C
C       0.8761   0.3913   0.5488     C
C       0.8842    0.598   0.3065     C
C       0.8978   0.6847   0.3479     C
O        0.901   0.8887   0.5851     O
H       0.9018   0.3379   0.1277     H
H       0.9094   0.6199   0.7393     H
H       0.9148   0.5893   0.5617     H
O       0.9235   0.8731   0.4204     O
H       0.9349   0.4877   0.1933     H
H       0.9422   0.5714   0.3081     H
H       0.9431   0.7724   0.6767     H
H       0.9647   0.7154   0.3767     H
C       0.9663   0.2711    0.473     C
C       0.9722   0.4415    0.504     C
C       0.9815   0.6208   0.5329     C
H       0.9985   0.2309   0.4481     H
Mn         1.0      1.0      0.5    Mn
