data_I
_chemical_name_common  '/home/zhangsd/repos/MofS-CGCNN/ML/data/TSD/clean_cifs/VUVZAP_clean'
_cell_length_a 10.27300
_cell_length_b 11.31800
_cell_length_c 16.46100
_cell_angle_alpha 90.00000
_cell_angle_beta  100.06400
_cell_angle_gamma 90.00000
_space_group_name_H-M_alt      'P 1'


loop_
_space_group_symop_operation_xyz
  'x, y, z' 

loop_
_atom_site_label
_atom_site_fract_x
_atom_site_fract_y
_atom_site_fract_z
_atom_site_type_symbol
C        0.015   0.7478   0.8701     C
C        0.015   0.7522   0.3701     C
O       0.0431   0.6738   0.4255     O
O       0.0431   0.8262   0.9255     O
H       0.0889   0.0913   0.7404     H
H       0.0889   0.4087   0.2404     H
O       0.1056   0.7002   0.8391     O
O       0.1056   0.7998   0.3391     O
C       0.1261   0.2107   0.6568     C
C       0.1261   0.2893   0.1568     C
C       0.1564   0.1283    0.719     C
C       0.1564   0.3717    0.219     C
H       0.2035    0.184    0.079     H
H       0.2035    0.316    0.579     H
C       0.2244   0.2397   0.1208     C
C       0.2244   0.2603   0.6208     C
O       0.2333   0.5552   0.3329     O
O       0.2333   0.9448   0.8329     O
In     0.26203  0.69724  0.42331    In
In     0.26203  0.80276  0.92331    In
C       0.2873   0.1005   0.7497     C
C       0.2873   0.3995   0.2497     C
Br     0.28829  0.63282  0.03166    Br
Br     0.28829  0.86718  0.53166    Br
C         0.32    0.021   0.8245     C
C         0.32    0.479   0.3245     C
O       0.3285   0.5741    0.514     O
O       0.3285   0.9259    0.014     O
C        0.356   0.2263   0.6474     C
C        0.356   0.2737   0.1474     C
C        0.388   0.1498   0.7136     C
C        0.388   0.3502   0.2136     C
O       0.4198   0.7479   0.8647     O
O       0.4198   0.7521   0.3647     O
O       0.4252   0.0397   0.8725     O
O       0.4252   0.4603   0.3725     O
O       0.4278   0.1622    0.042     O
O       0.4278   0.3378    0.542     O
C       0.4622   0.2243    0.105     C
C       0.4622   0.2757    0.605     C
H       0.4759   0.1315   0.7339     H
H       0.4759   0.3685   0.2339     H
Co         0.5      0.0      0.0    Co
Co         0.5      0.5      0.5    Co
H       0.5241   0.6315   0.7661     H
H       0.5241   0.8685   0.2661     H
C       0.5378   0.7243    0.395     C
C       0.5378   0.7757    0.895     C
O       0.5722   0.6622    0.458     O
O       0.5722   0.8378    0.958     O
O       0.5748   0.5397   0.6275     O
O       0.5748   0.9603   0.1275     O
O       0.5802   0.2479   0.6353     O
O       0.5802   0.2521   0.1353     O
C        0.612   0.6498   0.7864     C
C        0.612   0.8502   0.2864     C
C        0.644   0.7263   0.8526     C
C        0.644   0.7737   0.3526     C
O       0.6715   0.0741    0.986     O
O       0.6715   0.4259    0.486     O
C         0.68    0.521   0.6755     C
C         0.68    0.979   0.1755     C
Br     0.71171  0.13282  0.46834    Br
Br     0.71171  0.36718  0.96834    Br
C       0.7127   0.6005   0.7503     C
C       0.7127   0.8995   0.2503     C
In     0.73797  0.19724  0.07669    In
In     0.73797  0.30276  0.57669    In
O       0.7667   0.0552   0.1671     O
O       0.7667   0.4448   0.6671     O
C       0.7756   0.7397   0.3792     C
C       0.7756   0.7603   0.8792     C
H       0.7965    0.684    0.421     H
H       0.7965    0.816    0.921     H
C       0.8436   0.6283    0.781     C
C       0.8436   0.8717    0.281     C
C       0.8739   0.7107   0.8432     C
C       0.8739   0.7893   0.3432     C
O       0.8944   0.2002   0.6609     O
O       0.8944   0.2998   0.1609     O
H       0.9111   0.5913   0.7596     H
H       0.9111   0.9087   0.2596     H
O       0.9569   0.1738   0.0745     O
O       0.9569   0.3262   0.5745     O
C        0.985   0.2478   0.6299     C
C        0.985   0.2522   0.1299     C
