data_I
_chemical_name_common  '/home/zhangsd/repos/MofS-CGCNN/ML/data/TSD/clean_cifs/WAHKUO_clean'
_cell_length_a 21.21740
_cell_length_b 21.21740
_cell_length_c 21.21740
_cell_angle_alpha 90.00000
_cell_angle_beta  90.00000
_cell_angle_gamma 90.00000
_space_group_name_H-M_alt      'P 1'


loop_
_space_group_symop_operation_xyz
  'x, y, z' 

loop_
_atom_site_label
_atom_site_fract_x
_atom_site_fract_y
_atom_site_fract_z
_atom_site_type_symbol
Cu         0.0      0.5  0.31303    Cu
F          0.0      0.5   0.4124     F
Ti         0.0      0.5      0.5    Ti
F          0.0      0.5   0.5876     F
Cu         0.0      0.5  0.68697    Cu
H       0.0641   0.4356   0.2106     H
H       0.0641   0.4356   0.7894     H
H       0.0641   0.5644   0.2106     H
H       0.0641   0.5644   0.7894     H
F       0.0661   0.4605      0.5     F
F       0.0661   0.5395      0.5     F
N        0.068   0.4354   0.3066     N
N        0.068   0.4354   0.6934     N
N        0.068   0.5646   0.3066     N
N        0.068   0.5646   0.6934     N
C       0.0852   0.4178   0.2458     C
C       0.0852   0.4178   0.7542     C
C       0.0852   0.5822   0.2458     C
C       0.0852   0.5822   0.7542     C
H        0.087   0.4213   0.3997     H
H        0.087   0.4213   0.6003     H
H        0.087   0.5787   0.3997     H
H        0.087   0.5787   0.6003     H
C       0.0988   0.4093   0.3582     C
C       0.0988   0.4093   0.6418     C
C       0.0988   0.5907   0.3582     C
C       0.0988   0.5907   0.6418     C
C       0.1332   0.3742   0.2367     C
C       0.1332   0.3742   0.7633     C
C       0.1332   0.6258   0.2367     C
C       0.1332   0.6258   0.7633     C
H       0.1449   0.3622   0.1952     H
H       0.1449   0.3622   0.8048     H
H       0.1449   0.6378   0.1952     H
H       0.1449   0.6378   0.8048     H
C       0.1468   0.3657    0.349     C
C       0.1468   0.3657    0.651     C
C       0.1468   0.6343    0.349     C
C       0.1468   0.6343    0.651     C
C        0.164   0.3481   0.2883     C
C        0.164   0.3481   0.7117     C
C        0.164   0.6519   0.2883     C
C        0.164   0.6519   0.7117     C
H       0.1679   0.3479   0.3843     H
H       0.1679   0.3479   0.6157     H
H       0.1679   0.6521   0.3843     H
H       0.1679   0.6521   0.6157     H
H       0.1952   0.1449   0.3622     H
H       0.1952   0.1449   0.6378     H
H       0.1952   0.8551   0.3622     H
H       0.1952   0.8551   0.6378     H
H       0.2083   0.2598   0.3566     H
H       0.2083   0.2598   0.6434     H
H       0.2083   0.7402   0.3566     H
H       0.2083   0.7402   0.6434     H
H       0.2106   0.0641   0.4356     H
H       0.2106   0.0641   0.5644     H
H       0.2106   0.9359   0.4356     H
H       0.2106   0.9359   0.5644     H
C       0.2167    0.306    0.276     C
C       0.2167    0.306    0.724     C
C       0.2167    0.694    0.276     C
C       0.2167    0.694    0.724     C
C       0.2306   0.2611   0.3177     C
C       0.2306   0.2611   0.6823     C
C       0.2306   0.7389   0.3177     C
C       0.2306   0.7389   0.6823     C
C       0.2367   0.1332   0.3742     C
C       0.2367   0.1332   0.6258     C
C       0.2367   0.8668   0.3742     C
C       0.2367   0.8668   0.6258     C
C       0.2458   0.0852   0.4178     C
C       0.2458   0.0852   0.5822     C
C       0.2458   0.9148   0.4178     C
C       0.2458   0.9148   0.5822     C
H       0.2598   0.3566   0.2083     H
H       0.2598   0.3566   0.7917     H
H       0.2598   0.6434   0.2083     H
H       0.2598   0.6434   0.7917     H
C       0.2611   0.3177   0.2306     C
C       0.2611   0.3177   0.7694     C
C       0.2611   0.6823   0.2306     C
C       0.2611   0.6823   0.7694     C
C        0.276   0.2167    0.306     C
C        0.276   0.2167    0.694     C
C        0.276   0.7833    0.306     C
C        0.276   0.7833    0.694     C
C       0.2883    0.164   0.3481     C
C       0.2883    0.164   0.6519     C
C       0.2883    0.836   0.3481     C
C       0.2883    0.836   0.6519     C
C        0.306    0.276   0.2167     C
C        0.306    0.276   0.7833     C
C        0.306    0.724   0.2167     C
C        0.306    0.724   0.7833     C
N       0.3066    0.068   0.4354     N
N       0.3066    0.068   0.5646     N
N       0.3066    0.932   0.4354     N
N       0.3066    0.932   0.5646     N
Cu     0.31303      0.0      0.5    Cu
C       0.3177   0.2306   0.2611     C
C       0.3177   0.2306   0.7389     C
C       0.3177   0.7694   0.2611     C
C       0.3177   0.7694   0.7389     C
H       0.3479   0.3843   0.1679     H
H       0.3479   0.3843   0.8321     H
H       0.3479   0.6157   0.1679     H
H       0.3479   0.6157   0.8321     H
C       0.3481   0.2883    0.164     C
C       0.3481   0.2883    0.836     C
C       0.3481   0.7117    0.164     C
C       0.3481   0.7117    0.836     C
C        0.349   0.1468   0.3657     C
C        0.349   0.1468   0.6343     C
C        0.349   0.8532   0.3657     C
C        0.349   0.8532   0.6343     C
H       0.3566   0.2083   0.2598     H
H       0.3566   0.2083   0.7402     H
H       0.3566   0.7917   0.2598     H
H       0.3566   0.7917   0.7402     H
C       0.3582   0.0988   0.4093     C
C       0.3582   0.0988   0.5907     C
C       0.3582   0.9012   0.4093     C
C       0.3582   0.9012   0.5907     C
H       0.3622   0.1952   0.1449     H
H       0.3622   0.1952   0.8551     H
H       0.3622   0.8048   0.1449     H
H       0.3622   0.8048   0.8551     H
C       0.3657    0.349   0.1468     C
C       0.3657    0.349   0.8532     C
C       0.3657    0.651   0.1468     C
C       0.3657    0.651   0.8532     C
C       0.3742   0.2367   0.1332     C
C       0.3742   0.2367   0.8668     C
C       0.3742   0.7633   0.1332     C
C       0.3742   0.7633   0.8668     C
H       0.3843   0.1679   0.3479     H
H       0.3843   0.1679   0.6521     H
H       0.3843   0.8321   0.3479     H
H       0.3843   0.8321   0.6521     H
H       0.3997    0.087   0.4213     H
H       0.3997    0.087   0.5787     H
H       0.3997    0.913   0.4213     H
H       0.3997    0.913   0.5787     H
C       0.4093   0.3582   0.0988     C
C       0.4093   0.3582   0.9012     C
C       0.4093   0.6418   0.0988     C
C       0.4093   0.6418   0.9012     C
F       0.4124      0.0      0.5     F
C       0.4178   0.2458   0.0852     C
C       0.4178   0.2458   0.9148     C
C       0.4178   0.7542   0.0852     C
C       0.4178   0.7542   0.9148     C
H       0.4213   0.3997    0.087     H
H       0.4213   0.3997    0.913     H
H       0.4213   0.6003    0.087     H
H       0.4213   0.6003    0.913     H
N       0.4354   0.3066    0.068     N
N       0.4354   0.3066    0.932     N
N       0.4354   0.6934    0.068     N
N       0.4354   0.6934    0.932     N
H       0.4356   0.2106   0.0641     H
H       0.4356   0.2106   0.9359     H
H       0.4356   0.7894   0.0641     H
H       0.4356   0.7894   0.9359     H
F       0.4605      0.5   0.0661     F
F       0.4605      0.5   0.9339     F
Ti         0.5      0.0      0.5    Ti
F          0.5   0.0661   0.4605     F
F          0.5   0.0661   0.5395     F
Cu         0.5  0.31303      0.0    Cu
F          0.5   0.4124      0.0     F
Ti         0.5      0.5      0.0    Ti
F          0.5   0.5876      0.0     F
Cu         0.5  0.68697      0.0    Cu
F          0.5   0.9339   0.4605     F
F          0.5   0.9339   0.5395     F
F       0.5395      0.5   0.0661     F
F       0.5395      0.5   0.9339     F
H       0.5644   0.2106   0.0641     H
H       0.5644   0.2106   0.9359     H
H       0.5644   0.7894   0.0641     H
H       0.5644   0.7894   0.9359     H
N       0.5646   0.3066    0.068     N
N       0.5646   0.3066    0.932     N
N       0.5646   0.6934    0.068     N
N       0.5646   0.6934    0.932     N
H       0.5787   0.3997    0.087     H
H       0.5787   0.3997    0.913     H
H       0.5787   0.6003    0.087     H
H       0.5787   0.6003    0.913     H
C       0.5822   0.2458   0.0852     C
C       0.5822   0.2458   0.9148     C
C       0.5822   0.7542   0.0852     C
C       0.5822   0.7542   0.9148     C
F       0.5876      0.0      0.5     F
C       0.5907   0.3582   0.0988     C
C       0.5907   0.3582   0.9012     C
C       0.5907   0.6418   0.0988     C
C       0.5907   0.6418   0.9012     C
H       0.6003    0.087   0.4213     H
H       0.6003    0.087   0.5787     H
H       0.6003    0.913   0.4213     H
H       0.6003    0.913   0.5787     H
H       0.6157   0.1679   0.3479     H
H       0.6157   0.1679   0.6521     H
H       0.6157   0.8321   0.3479     H
H       0.6157   0.8321   0.6521     H
C       0.6258   0.2367   0.1332     C
C       0.6258   0.2367   0.8668     C
C       0.6258   0.7633   0.1332     C
C       0.6258   0.7633   0.8668     C
C       0.6343    0.349   0.1468     C
C       0.6343    0.349   0.8532     C
C       0.6343    0.651   0.1468     C
C       0.6343    0.651   0.8532     C
H       0.6378   0.1952   0.1449     H
H       0.6378   0.1952   0.8551     H
H       0.6378   0.8048   0.1449     H
H       0.6378   0.8048   0.8551     H
C       0.6418   0.0988   0.4093     C
C       0.6418   0.0988   0.5907     C
C       0.6418   0.9012   0.4093     C
C       0.6418   0.9012   0.5907     C
H       0.6434   0.2083   0.2598     H
H       0.6434   0.2083   0.7402     H
H       0.6434   0.7917   0.2598     H
H       0.6434   0.7917   0.7402     H
C        0.651   0.1468   0.3657     C
C        0.651   0.1468   0.6343     C
C        0.651   0.8532   0.3657     C
C        0.651   0.8532   0.6343     C
C       0.6519   0.2883    0.164     C
C       0.6519   0.2883    0.836     C
C       0.6519   0.7117    0.164     C
C       0.6519   0.7117    0.836     C
H       0.6521   0.3843   0.1679     H
H       0.6521   0.3843   0.8321     H
H       0.6521   0.6157   0.1679     H
H       0.6521   0.6157   0.8321     H
C       0.6823   0.2306   0.2611     C
C       0.6823   0.2306   0.7389     C
C       0.6823   0.7694   0.2611     C
C       0.6823   0.7694   0.7389     C
Cu     0.68697      0.0      0.5    Cu
N       0.6934    0.068   0.4354     N
N       0.6934    0.068   0.5646     N
N       0.6934    0.932   0.4354     N
N       0.6934    0.932   0.5646     N
C        0.694    0.276   0.2167     C
C        0.694    0.276   0.7833     C
C        0.694    0.724   0.2167     C
C        0.694    0.724   0.7833     C
C       0.7117    0.164   0.3481     C
C       0.7117    0.164   0.6519     C
C       0.7117    0.836   0.3481     C
C       0.7117    0.836   0.6519     C
C        0.724   0.2167    0.306     C
C        0.724   0.2167    0.694     C
C        0.724   0.7833    0.306     C
C        0.724   0.7833    0.694     C
C       0.7389   0.3177   0.2306     C
C       0.7389   0.3177   0.7694     C
C       0.7389   0.6823   0.2306     C
C       0.7389   0.6823   0.7694     C
H       0.7402   0.3566   0.2083     H
H       0.7402   0.3566   0.7917     H
H       0.7402   0.6434   0.2083     H
H       0.7402   0.6434   0.7917     H
C       0.7542   0.0852   0.4178     C
C       0.7542   0.0852   0.5822     C
C       0.7542   0.9148   0.4178     C
C       0.7542   0.9148   0.5822     C
C       0.7633   0.1332   0.3742     C
C       0.7633   0.1332   0.6258     C
C       0.7633   0.8668   0.3742     C
C       0.7633   0.8668   0.6258     C
C       0.7694   0.2611   0.3177     C
C       0.7694   0.2611   0.6823     C
C       0.7694   0.7389   0.3177     C
C       0.7694   0.7389   0.6823     C
C       0.7833    0.306    0.276     C
C       0.7833    0.306    0.724     C
C       0.7833    0.694    0.276     C
C       0.7833    0.694    0.724     C
H       0.7894   0.0641   0.4356     H
H       0.7894   0.0641   0.5644     H
H       0.7894   0.9359   0.4356     H
H       0.7894   0.9359   0.5644     H
H       0.7917   0.2598   0.3566     H
H       0.7917   0.2598   0.6434     H
H       0.7917   0.7402   0.3566     H
H       0.7917   0.7402   0.6434     H
H       0.8048   0.1449   0.3622     H
H       0.8048   0.1449   0.6378     H
H       0.8048   0.8551   0.3622     H
H       0.8048   0.8551   0.6378     H
H       0.8321   0.3479   0.3843     H
H       0.8321   0.3479   0.6157     H
H       0.8321   0.6521   0.3843     H
H       0.8321   0.6521   0.6157     H
C        0.836   0.3481   0.2883     C
C        0.836   0.3481   0.7117     C
C        0.836   0.6519   0.2883     C
C        0.836   0.6519   0.7117     C
C       0.8532   0.3657    0.349     C
C       0.8532   0.3657    0.651     C
C       0.8532   0.6343    0.349     C
C       0.8532   0.6343    0.651     C
H       0.8551   0.3622   0.1952     H
H       0.8551   0.3622   0.8048     H
H       0.8551   0.6378   0.1952     H
H       0.8551   0.6378   0.8048     H
C       0.8668   0.3742   0.2367     C
C       0.8668   0.3742   0.7633     C
C       0.8668   0.6258   0.2367     C
C       0.8668   0.6258   0.7633     C
C       0.9012   0.4093   0.3582     C
C       0.9012   0.4093   0.6418     C
C       0.9012   0.5907   0.3582     C
C       0.9012   0.5907   0.6418     C
H        0.913   0.4213   0.3997     H
H        0.913   0.4213   0.6003     H
H        0.913   0.5787   0.3997     H
H        0.913   0.5787   0.6003     H
C       0.9148   0.4178   0.2458     C
C       0.9148   0.4178   0.7542     C
C       0.9148   0.5822   0.2458     C
C       0.9148   0.5822   0.7542     C
N        0.932   0.4354   0.3066     N
N        0.932   0.4354   0.6934     N
N        0.932   0.5646   0.3066     N
N        0.932   0.5646   0.6934     N
F       0.9339   0.4605      0.5     F
F       0.9339   0.5395      0.5     F
H       0.9359   0.4356   0.2106     H
H       0.9359   0.4356   0.7894     H
H       0.9359   0.5644   0.2106     H
H       0.9359   0.5644   0.7894     H
