data_I
_chemical_name_common  '/home/zhangsd/repos/MofS-CGCNN/ML/data/TSD/clean_cifs/WAHNIF_clean'
_cell_length_a 21.16500
_cell_length_b 21.16500
_cell_length_c 21.16500
_cell_angle_alpha 90.00000
_cell_angle_beta  90.00000
_cell_angle_gamma 90.00000
_space_group_name_H-M_alt      'P 1'


loop_
_space_group_symop_operation_xyz
  'x, y, z' 

loop_
_atom_site_label
_atom_site_fract_x
_atom_site_fract_y
_atom_site_fract_z
_atom_site_type_symbol
Cu         0.0      0.5   0.3136    Cu
F          0.0      0.5   0.4098     F
Zr         0.0      0.5      0.5    Zr
F          0.0      0.5   0.5902     F
Cu         0.0      0.5   0.6864    Cu
N       0.0672   0.4311   0.3008     N
N       0.0672   0.4311   0.6992     N
N       0.0672   0.5689   0.3008     N
N       0.0672   0.5689   0.6992     N
H       0.0681   0.4275   0.2046     H
H       0.0681   0.4275   0.7954     H
H       0.0681   0.5725   0.2046     H
H       0.0681   0.5725   0.7954     H
F       0.0777   0.4592      0.5     F
F       0.0777   0.5408      0.5     F
H       0.0821   0.4211   0.3955     H
H       0.0821   0.4211   0.6045     H
H       0.0821   0.5789   0.3955     H
H       0.0821   0.5789   0.6045     H
C       0.0879   0.4116   0.2416     C
C       0.0879   0.4116   0.7584     C
C       0.0879   0.5884   0.2416     C
C       0.0879   0.5884   0.7584     C
C       0.0962   0.4078    0.355     C
C       0.0962   0.4078    0.645     C
C       0.0962   0.5922    0.355     C
C       0.0962   0.5922    0.645     C
C       0.1376   0.3689   0.2365     C
C       0.1376   0.3689   0.7635     C
C       0.1376   0.6311   0.2365     C
C       0.1376   0.6311   0.7635     C
C       0.1458   0.3651   0.3499     C
C       0.1458   0.3651   0.6501     C
C       0.1458   0.6349   0.3499     C
C       0.1458   0.6349   0.6501     C
H       0.1517   0.3556   0.1961     H
H       0.1517   0.3556   0.8039     H
H       0.1517   0.6444   0.1961     H
H       0.1517   0.6444   0.8039     H
H       0.1656   0.3492   0.3869     H
H       0.1656   0.3492   0.6131     H
H       0.1656   0.6508   0.3869     H
H       0.1656   0.6508   0.6131     H
C       0.1665   0.3456   0.2907     C
C       0.1665   0.3456   0.7093     C
C       0.1665   0.6544   0.2907     C
C       0.1665   0.6544   0.7093     C
H       0.1961   0.1517   0.3556     H
H       0.1961   0.1517   0.6444     H
H       0.1961   0.8483   0.3556     H
H       0.1961   0.8483   0.6444     H
H       0.2029   0.2508   0.3513     H
H       0.2029   0.2508   0.6487     H
H       0.2029   0.7492   0.3513     H
H       0.2029   0.7492   0.6487     H
H       0.2046   0.0681   0.4275     H
H       0.2046   0.0681   0.5725     H
H       0.2046   0.9319   0.4275     H
H       0.2046   0.9319   0.5725     H
C       0.2172    0.305   0.2761     C
C       0.2172    0.305   0.7239     C
C       0.2172    0.695   0.2761     C
C       0.2172    0.695   0.7239     C
C        0.229   0.2567   0.3152     C
C        0.229   0.2567   0.6848     C
C        0.229   0.7433   0.3152     C
C        0.229   0.7433   0.6848     C
C       0.2365   0.1376   0.3689     C
C       0.2365   0.1376   0.6311     C
C       0.2365   0.8624   0.3689     C
C       0.2365   0.8624   0.6311     C
C       0.2416   0.0879   0.4116     C
C       0.2416   0.0879   0.5884     C
C       0.2416   0.9121   0.4116     C
C       0.2416   0.9121   0.5884     C
H       0.2508   0.3513   0.2029     H
H       0.2508   0.3513   0.7971     H
H       0.2508   0.6487   0.2029     H
H       0.2508   0.6487   0.7971     H
C       0.2567   0.3152    0.229     C
C       0.2567   0.3152    0.771     C
C       0.2567   0.6848    0.229     C
C       0.2567   0.6848    0.771     C
C       0.2761   0.2172    0.305     C
C       0.2761   0.2172    0.695     C
C       0.2761   0.7828    0.305     C
C       0.2761   0.7828    0.695     C
C       0.2907   0.1665   0.3456     C
C       0.2907   0.1665   0.6544     C
C       0.2907   0.8335   0.3456     C
C       0.2907   0.8335   0.6544     C
N       0.3008   0.0672   0.4311     N
N       0.3008   0.0672   0.5689     N
N       0.3008   0.9328   0.4311     N
N       0.3008   0.9328   0.5689     N
C        0.305   0.2761   0.2172     C
C        0.305   0.2761   0.7828     C
C        0.305   0.7239   0.2172     C
C        0.305   0.7239   0.7828     C
Cu      0.3136      0.0      0.5    Cu
C       0.3152    0.229   0.2567     C
C       0.3152    0.229   0.7433     C
C       0.3152    0.771   0.2567     C
C       0.3152    0.771   0.7433     C
C       0.3456   0.2907   0.1665     C
C       0.3456   0.2907   0.8335     C
C       0.3456   0.7093   0.1665     C
C       0.3456   0.7093   0.8335     C
H       0.3492   0.3869   0.1656     H
H       0.3492   0.3869   0.8344     H
H       0.3492   0.6131   0.1656     H
H       0.3492   0.6131   0.8344     H
C       0.3499   0.1458   0.3651     C
C       0.3499   0.1458   0.6349     C
C       0.3499   0.8542   0.3651     C
C       0.3499   0.8542   0.6349     C
H       0.3513   0.2029   0.2508     H
H       0.3513   0.2029   0.7492     H
H       0.3513   0.7971   0.2508     H
H       0.3513   0.7971   0.7492     H
C        0.355   0.0962   0.4078     C
C        0.355   0.0962   0.5922     C
C        0.355   0.9038   0.4078     C
C        0.355   0.9038   0.5922     C
H       0.3556   0.1961   0.1517     H
H       0.3556   0.1961   0.8483     H
H       0.3556   0.8039   0.1517     H
H       0.3556   0.8039   0.8483     H
C       0.3651   0.3499   0.1458     C
C       0.3651   0.3499   0.8542     C
C       0.3651   0.6501   0.1458     C
C       0.3651   0.6501   0.8542     C
C       0.3689   0.2365   0.1376     C
C       0.3689   0.2365   0.8624     C
C       0.3689   0.7635   0.1376     C
C       0.3689   0.7635   0.8624     C
H       0.3869   0.1656   0.3492     H
H       0.3869   0.1656   0.6508     H
H       0.3869   0.8344   0.3492     H
H       0.3869   0.8344   0.6508     H
H       0.3955   0.0821   0.4211     H
H       0.3955   0.0821   0.5789     H
H       0.3955   0.9179   0.4211     H
H       0.3955   0.9179   0.5789     H
C       0.4078    0.355   0.0962     C
C       0.4078    0.355   0.9038     C
C       0.4078    0.645   0.0962     C
C       0.4078    0.645   0.9038     C
F       0.4098      0.0      0.5     F
C       0.4116   0.2416   0.0879     C
C       0.4116   0.2416   0.9121     C
C       0.4116   0.7584   0.0879     C
C       0.4116   0.7584   0.9121     C
H       0.4211   0.3955   0.0821     H
H       0.4211   0.3955   0.9179     H
H       0.4211   0.6045   0.0821     H
H       0.4211   0.6045   0.9179     H
H       0.4275   0.2046   0.0681     H
H       0.4275   0.2046   0.9319     H
H       0.4275   0.7954   0.0681     H
H       0.4275   0.7954   0.9319     H
N       0.4311   0.3008   0.0672     N
N       0.4311   0.3008   0.9328     N
N       0.4311   0.6992   0.0672     N
N       0.4311   0.6992   0.9328     N
F       0.4592      0.5   0.0777     F
F       0.4592      0.5   0.9223     F
Zr         0.5      0.0      0.5    Zr
F          0.5   0.0777   0.4592     F
F          0.5   0.0777   0.5408     F
Cu         0.5   0.3136      0.0    Cu
F          0.5   0.4098      0.0     F
Zr         0.5      0.5      0.0    Zr
F          0.5   0.5902      0.0     F
Cu         0.5   0.6864      0.0    Cu
F          0.5   0.9223   0.4592     F
F          0.5   0.9223   0.5408     F
F       0.5408      0.5   0.0777     F
F       0.5408      0.5   0.9223     F
N       0.5689   0.3008   0.0672     N
N       0.5689   0.3008   0.9328     N
N       0.5689   0.6992   0.0672     N
N       0.5689   0.6992   0.9328     N
H       0.5725   0.2046   0.0681     H
H       0.5725   0.2046   0.9319     H
H       0.5725   0.7954   0.0681     H
H       0.5725   0.7954   0.9319     H
H       0.5789   0.3955   0.0821     H
H       0.5789   0.3955   0.9179     H
H       0.5789   0.6045   0.0821     H
H       0.5789   0.6045   0.9179     H
C       0.5884   0.2416   0.0879     C
C       0.5884   0.2416   0.9121     C
C       0.5884   0.7584   0.0879     C
C       0.5884   0.7584   0.9121     C
F       0.5902      0.0      0.5     F
C       0.5922    0.355   0.0962     C
C       0.5922    0.355   0.9038     C
C       0.5922    0.645   0.0962     C
C       0.5922    0.645   0.9038     C
H       0.6045   0.0821   0.4211     H
H       0.6045   0.0821   0.5789     H
H       0.6045   0.9179   0.4211     H
H       0.6045   0.9179   0.5789     H
H       0.6131   0.1656   0.3492     H
H       0.6131   0.1656   0.6508     H
H       0.6131   0.8344   0.3492     H
H       0.6131   0.8344   0.6508     H
C       0.6311   0.2365   0.1376     C
C       0.6311   0.2365   0.8624     C
C       0.6311   0.7635   0.1376     C
C       0.6311   0.7635   0.8624     C
C       0.6349   0.3499   0.1458     C
C       0.6349   0.3499   0.8542     C
C       0.6349   0.6501   0.1458     C
C       0.6349   0.6501   0.8542     C
H       0.6444   0.1961   0.1517     H
H       0.6444   0.1961   0.8483     H
H       0.6444   0.8039   0.1517     H
H       0.6444   0.8039   0.8483     H
C        0.645   0.0962   0.4078     C
C        0.645   0.0962   0.5922     C
C        0.645   0.9038   0.4078     C
C        0.645   0.9038   0.5922     C
H       0.6487   0.2029   0.2508     H
H       0.6487   0.2029   0.7492     H
H       0.6487   0.7971   0.2508     H
H       0.6487   0.7971   0.7492     H
C       0.6501   0.1458   0.3651     C
C       0.6501   0.1458   0.6349     C
C       0.6501   0.8542   0.3651     C
C       0.6501   0.8542   0.6349     C
H       0.6508   0.3869   0.1656     H
H       0.6508   0.3869   0.8344     H
H       0.6508   0.6131   0.1656     H
H       0.6508   0.6131   0.8344     H
C       0.6544   0.2907   0.1665     C
C       0.6544   0.2907   0.8335     C
C       0.6544   0.7093   0.1665     C
C       0.6544   0.7093   0.8335     C
C       0.6848    0.229   0.2567     C
C       0.6848    0.229   0.7433     C
C       0.6848    0.771   0.2567     C
C       0.6848    0.771   0.7433     C
Cu      0.6864      0.0      0.5    Cu
C        0.695   0.2761   0.2172     C
C        0.695   0.2761   0.7828     C
C        0.695   0.7239   0.2172     C
C        0.695   0.7239   0.7828     C
N       0.6992   0.0672   0.4311     N
N       0.6992   0.0672   0.5689     N
N       0.6992   0.9328   0.4311     N
N       0.6992   0.9328   0.5689     N
C       0.7093   0.1665   0.3456     C
C       0.7093   0.1665   0.6544     C
C       0.7093   0.8335   0.3456     C
C       0.7093   0.8335   0.6544     C
C       0.7239   0.2172    0.305     C
C       0.7239   0.2172    0.695     C
C       0.7239   0.7828    0.305     C
C       0.7239   0.7828    0.695     C
C       0.7433   0.3152    0.229     C
C       0.7433   0.3152    0.771     C
C       0.7433   0.6848    0.229     C
C       0.7433   0.6848    0.771     C
H       0.7492   0.3513   0.2029     H
H       0.7492   0.3513   0.7971     H
H       0.7492   0.6487   0.2029     H
H       0.7492   0.6487   0.7971     H
C       0.7584   0.0879   0.4116     C
C       0.7584   0.0879   0.5884     C
C       0.7584   0.9121   0.4116     C
C       0.7584   0.9121   0.5884     C
C       0.7635   0.1376   0.3689     C
C       0.7635   0.1376   0.6311     C
C       0.7635   0.8624   0.3689     C
C       0.7635   0.8624   0.6311     C
C        0.771   0.2567   0.3152     C
C        0.771   0.2567   0.6848     C
C        0.771   0.7433   0.3152     C
C        0.771   0.7433   0.6848     C
C       0.7828    0.305   0.2761     C
C       0.7828    0.305   0.7239     C
C       0.7828    0.695   0.2761     C
C       0.7828    0.695   0.7239     C
H       0.7954   0.0681   0.4275     H
H       0.7954   0.0681   0.5725     H
H       0.7954   0.9319   0.4275     H
H       0.7954   0.9319   0.5725     H
H       0.7971   0.2508   0.3513     H
H       0.7971   0.2508   0.6487     H
H       0.7971   0.7492   0.3513     H
H       0.7971   0.7492   0.6487     H
H       0.8039   0.1517   0.3556     H
H       0.8039   0.1517   0.6444     H
H       0.8039   0.8483   0.3556     H
H       0.8039   0.8483   0.6444     H
C       0.8335   0.3456   0.2907     C
C       0.8335   0.3456   0.7093     C
C       0.8335   0.6544   0.2907     C
C       0.8335   0.6544   0.7093     C
H       0.8344   0.3492   0.3869     H
H       0.8344   0.3492   0.6131     H
H       0.8344   0.6508   0.3869     H
H       0.8344   0.6508   0.6131     H
H       0.8483   0.3556   0.1961     H
H       0.8483   0.3556   0.8039     H
H       0.8483   0.6444   0.1961     H
H       0.8483   0.6444   0.8039     H
C       0.8542   0.3651   0.3499     C
C       0.8542   0.3651   0.6501     C
C       0.8542   0.6349   0.3499     C
C       0.8542   0.6349   0.6501     C
C       0.8624   0.3689   0.2365     C
C       0.8624   0.3689   0.7635     C
C       0.8624   0.6311   0.2365     C
C       0.8624   0.6311   0.7635     C
C       0.9038   0.4078    0.355     C
C       0.9038   0.4078    0.645     C
C       0.9038   0.5922    0.355     C
C       0.9038   0.5922    0.645     C
C       0.9121   0.4116   0.2416     C
C       0.9121   0.4116   0.7584     C
C       0.9121   0.5884   0.2416     C
C       0.9121   0.5884   0.7584     C
H       0.9179   0.4211   0.3955     H
H       0.9179   0.4211   0.6045     H
H       0.9179   0.5789   0.3955     H
H       0.9179   0.5789   0.6045     H
F       0.9223   0.4592      0.5     F
F       0.9223   0.5408      0.5     F
H       0.9319   0.4275   0.2046     H
H       0.9319   0.4275   0.7954     H
H       0.9319   0.5725   0.2046     H
H       0.9319   0.5725   0.7954     H
N       0.9328   0.4311   0.3008     N
N       0.9328   0.4311   0.6992     N
N       0.9328   0.5689   0.3008     N
N       0.9328   0.5689   0.6992     N
