data_I
_chemical_name_common  '/home/zhangsd/repos/MofS-CGCNN/ML/data/TSD/clean_cifs/WAQQUB_clean'
_cell_length_a 17.60190
_cell_length_b 17.60190
_cell_length_c 17.60190
_cell_angle_alpha 90.00000
_cell_angle_beta  90.00000
_cell_angle_gamma 90.00000
_space_group_name_H-M_alt      'P 1'


loop_
_space_group_symop_operation_xyz
  'x, y, z' 

loop_
_atom_site_label
_atom_site_fract_x
_atom_site_fract_y
_atom_site_fract_z
_atom_site_type_symbol
Zn         0.0      0.0      0.5    Zn
Zn         0.0     0.25     0.75    Zn
Zn         0.0      0.5      0.0    Zn
Zn         0.0     0.75     0.25    Zn
N       0.0021    0.125    0.625     N
N       0.0021    0.625    0.125     N
H         0.02      0.3     0.45     H
H         0.02     0.45      0.3     H
H         0.02      0.8     0.95     H
H         0.02     0.95      0.8     H
N       0.0416   0.3319   0.8319     N
N       0.0416   0.4181   0.9181     N
N       0.0416   0.8319   0.3319     N
N       0.0416   0.9181   0.4181     N
H         0.05     0.05     0.27     H
H         0.05      0.2     0.98     H
H         0.05     0.27     0.05     H
H         0.05     0.48      0.7     H
H         0.05     0.55     0.77     H
H         0.05      0.7     0.48     H
H         0.05     0.77     0.55     H
H         0.05     0.98      0.2     H
C       0.0617   0.3237   0.4263     C
C       0.0617   0.4263   0.3237     C
C       0.0617   0.8237   0.9263     C
C       0.0617   0.9263   0.8237     C
H        0.067    0.339    0.411     H
H        0.067    0.411    0.339     H
H        0.067    0.839    0.911     H
H        0.067    0.911    0.839     H
C       0.0737   0.0737   0.3117     C
C       0.0737   0.1763   0.9383     C
C       0.0737   0.3117   0.0737     C
C       0.0737   0.4383   0.6763     C
C       0.0737   0.5737   0.8117     C
C       0.0737   0.6763   0.4383     C
C       0.0737   0.8117   0.5737     C
C       0.0737   0.9383   0.1763     C
N       0.0819   0.0819   0.4584     N
N       0.0819   0.1681   0.7916     N
N       0.0819   0.2916   0.6681     N
N       0.0819   0.4584   0.0819     N
N       0.0819   0.5819   0.9584     N
N       0.0819   0.6681   0.2916     N
N       0.0819   0.7916   0.1681     N
N       0.0819   0.9584   0.5819     N
H        0.089    0.089    0.317     H
H        0.089    0.161    0.933     H
H        0.089    0.317    0.089     H
H        0.089    0.433    0.661     H
H        0.089    0.589    0.817     H
H        0.089    0.661    0.433     H
H        0.089    0.817    0.589     H
H        0.089    0.933    0.161     H
C        0.098    0.098   0.3871     C
C        0.098    0.152   0.8629     C
C        0.098   0.3629    0.652     C
C        0.098   0.3871    0.098     C
C        0.098    0.598   0.8871     C
C        0.098    0.652   0.3629     C
C        0.098   0.8629    0.152     C
C        0.098   0.8871    0.598     C
C       0.1129    0.348    0.848     C
C       0.1129    0.402    0.902     C
C       0.1129    0.848    0.348     C
C       0.1129    0.902    0.402     C
N        0.125   0.0021    0.625     N
N        0.125    0.125   0.5021     N
Zn       0.125    0.125    0.625    Zn
N        0.125    0.125   0.7479     N
N        0.125   0.2479    0.625     N
N        0.125   0.5021    0.125     N
N        0.125    0.625   0.0021     N
Zn       0.125    0.625    0.125    Zn
N        0.125    0.625   0.2479     N
N        0.125   0.7479    0.125     N
C       0.1371    0.348    0.402     C
C       0.1371    0.402    0.348     C
C       0.1371    0.848    0.902     C
C       0.1371    0.902    0.848     C
C        0.152    0.098   0.8629     C
C        0.152    0.152   0.3871     C
C        0.152   0.3629    0.598     C
C        0.152   0.3871    0.152     C
C        0.152    0.598   0.3629     C
C        0.152    0.652   0.8871     C
C        0.152   0.8629    0.098     C
C        0.152   0.8871    0.652     C
H        0.161    0.089    0.933     H
H        0.161    0.161    0.317     H
H        0.161    0.317    0.161     H
H        0.161    0.433    0.589     H
H        0.161    0.589    0.433     H
H        0.161    0.661    0.817     H
H        0.161    0.817    0.661     H
H        0.161    0.933    0.089     H
N       0.1681   0.0819   0.7916     N
N       0.1681   0.1681   0.4584     N
N       0.1681   0.2916   0.5819     N
N       0.1681   0.4584   0.1681     N
N       0.1681   0.5819   0.2916     N
N       0.1681   0.6681   0.9584     N
N       0.1681   0.7916   0.0819     N
N       0.1681   0.9584   0.6681     N
C       0.1763   0.0737   0.9383     C
C       0.1763   0.1763   0.3117     C
C       0.1763   0.3117   0.1763     C
C       0.1763   0.4383   0.5737     C
C       0.1763   0.5737   0.4383     C
C       0.1763   0.6763   0.8117     C
C       0.1763   0.8117   0.6763     C
C       0.1763   0.9383   0.0737     C
H        0.183    0.339    0.839     H
H        0.183    0.411    0.911     H
H        0.183    0.839    0.339     H
H        0.183    0.911    0.411     H
C       0.1883   0.3237   0.8237     C
C       0.1883   0.4263   0.9263     C
C       0.1883   0.8237   0.3237     C
C       0.1883   0.9263   0.4263     C
H          0.2     0.05     0.98     H
H          0.2      0.2     0.27     H
H          0.2     0.27      0.2     H
H          0.2     0.48     0.55     H
H          0.2     0.55     0.48     H
H          0.2      0.7     0.77     H
H          0.2     0.77      0.7     H
H          0.2     0.98     0.05     H
N       0.2084   0.3319   0.4181     N
N       0.2084   0.4181   0.3319     N
N       0.2084   0.8319   0.9181     N
N       0.2084   0.9181   0.8319     N
H         0.23      0.3      0.8     H
H         0.23     0.45     0.95     H
H         0.23      0.8      0.3     H
H         0.23     0.95     0.45     H
N       0.2479    0.125    0.625     N
N       0.2479    0.625    0.125     N
Zn        0.25      0.0     0.75    Zn
Zn        0.25     0.25      0.5    Zn
Zn        0.25      0.5     0.25    Zn
Zn        0.25     0.75      0.0    Zn
N       0.2521    0.375    0.375     N
N       0.2521    0.875    0.875     N
H         0.27     0.05     0.05     H
H         0.27      0.2      0.2     H
H         0.27     0.55     0.55     H
H         0.27      0.7      0.7     H
N       0.2916   0.0819   0.6681     N
N       0.2916   0.1681   0.5819     N
N       0.2916   0.5819   0.1681     N
N       0.2916   0.6681   0.0819     N
H          0.3     0.02     0.45     H
H          0.3     0.23      0.8     H
H          0.3      0.3     0.73     H
H          0.3     0.45     0.02     H
H          0.3     0.52     0.95     H
H          0.3     0.73      0.3     H
H          0.3      0.8     0.23     H
H          0.3     0.95     0.52     H
C       0.3117   0.0737   0.0737     C
C       0.3117   0.1763   0.1763     C
C       0.3117   0.5737   0.5737     C
C       0.3117   0.6763   0.6763     C
H        0.317    0.089    0.089     H
H        0.317    0.161    0.161     H
H        0.317    0.589    0.589     H
H        0.317    0.661    0.661     H
C       0.3237   0.0617   0.4263     C
C       0.3237   0.1883   0.8237     C
C       0.3237   0.3237   0.6883     C
C       0.3237   0.4263   0.0617     C
C       0.3237   0.5617   0.9263     C
C       0.3237   0.6883   0.3237     C
C       0.3237   0.8237   0.1883     C
C       0.3237   0.9263   0.5617     C
N       0.3319   0.0416   0.8319     N
N       0.3319   0.2084   0.4181     N
N       0.3319   0.3319   0.5416     N
N       0.3319   0.4181   0.2084     N
N       0.3319   0.5416   0.3319     N
N       0.3319   0.7084   0.9181     N
N       0.3319   0.8319   0.0416     N
N       0.3319   0.9181   0.7084     N
H        0.339    0.067    0.411     H
H        0.339    0.183    0.839     H
H        0.339    0.339    0.683     H
H        0.339    0.411    0.067     H
H        0.339    0.567    0.911     H
H        0.339    0.683    0.339     H
H        0.339    0.839    0.183     H
H        0.339    0.911    0.567     H
C        0.348   0.1129    0.848     C
C        0.348   0.1371    0.402     C
C        0.348    0.348   0.6129     C
C        0.348    0.402   0.1371     C
C        0.348   0.6129    0.348     C
C        0.348   0.6371    0.902     C
C        0.348    0.848   0.1129     C
C        0.348    0.902   0.6371     C
C       0.3629    0.098    0.652     C
C       0.3629    0.152    0.598     C
C       0.3629    0.598    0.152     C
C       0.3629    0.652    0.098     C
N        0.375   0.2521    0.375     N
N        0.375    0.375   0.2521     N
Zn       0.375    0.375    0.375    Zn
N        0.375    0.375   0.4979     N
N        0.375   0.4979    0.375     N
N        0.375   0.7521    0.875     N
N        0.375    0.875   0.7521     N
Zn       0.375    0.875    0.875    Zn
N        0.375    0.875   0.9979     N
N        0.375   0.9979    0.875     N
C       0.3871    0.098    0.098     C
C       0.3871    0.152    0.152     C
C       0.3871    0.598    0.598     C
C       0.3871    0.652    0.652     C
C        0.402   0.1129    0.902     C
C        0.402   0.1371    0.348     C
C        0.402    0.348   0.1371     C
C        0.402    0.402   0.6129     C
C        0.402   0.6129    0.402     C
C        0.402   0.6371    0.848     C
C        0.402    0.848   0.6371     C
C        0.402    0.902   0.1129     C
H        0.411    0.067    0.339     H
H        0.411    0.183    0.911     H
H        0.411    0.339    0.067     H
H        0.411    0.411    0.683     H
H        0.411    0.567    0.839     H
H        0.411    0.683    0.411     H
H        0.411    0.839    0.567     H
H        0.411    0.911    0.183     H
N       0.4181   0.0416   0.9181     N
N       0.4181   0.2084   0.3319     N
N       0.4181   0.3319   0.2084     N
N       0.4181   0.4181   0.5416     N
N       0.4181   0.5416   0.4181     N
N       0.4181   0.7084   0.8319     N
N       0.4181   0.8319   0.7084     N
N       0.4181   0.9181   0.0416     N
C       0.4263   0.0617   0.3237     C
C       0.4263   0.1883   0.9263     C
C       0.4263   0.3237   0.0617     C
C       0.4263   0.4263   0.6883     C
C       0.4263   0.5617   0.8237     C
C       0.4263   0.6883   0.4263     C
C       0.4263   0.8237   0.5617     C
C       0.4263   0.9263   0.1883     C
H        0.433    0.089    0.661     H
H        0.433    0.161    0.589     H
H        0.433    0.589    0.161     H
H        0.433    0.661    0.089     H
C       0.4383   0.0737   0.6763     C
C       0.4383   0.1763   0.5737     C
C       0.4383   0.5737   0.1763     C
C       0.4383   0.6763   0.0737     C
H         0.45     0.02      0.3     H
H         0.45     0.23     0.95     H
H         0.45      0.3     0.02     H
H         0.45     0.45     0.73     H
H         0.45     0.52      0.8     H
H         0.45     0.73     0.45     H
H         0.45      0.8     0.52     H
H         0.45     0.95     0.23     H
N       0.4584   0.0819   0.0819     N
N       0.4584   0.1681   0.1681     N
N       0.4584   0.5819   0.5819     N
N       0.4584   0.6681   0.6681     N
H         0.48     0.05      0.7     H
H         0.48      0.2     0.55     H
H         0.48     0.55      0.2     H
H         0.48      0.7     0.05     H
N       0.4979    0.375    0.375     N
N       0.4979    0.875    0.875     N
Zn         0.5      0.0      0.0    Zn
Zn         0.5     0.25     0.25    Zn
Zn         0.5      0.5      0.5    Zn
Zn         0.5     0.75     0.75    Zn
N       0.5021    0.125    0.125     N
N       0.5021    0.625    0.625     N
H         0.52      0.3     0.95     H
H         0.52     0.45      0.8     H
H         0.52      0.8     0.45     H
H         0.52     0.95      0.3     H
N       0.5416   0.3319   0.3319     N
N       0.5416   0.4181   0.4181     N
N       0.5416   0.8319   0.8319     N
N       0.5416   0.9181   0.9181     N
H         0.55     0.05     0.77     H
H         0.55      0.2     0.48     H
H         0.55     0.27     0.55     H
H         0.55     0.48      0.2     H
H         0.55     0.55     0.27     H
H         0.55      0.7     0.98     H
H         0.55     0.77     0.05     H
H         0.55     0.98      0.7     H
C       0.5617   0.3237   0.9263     C
C       0.5617   0.4263   0.8237     C
C       0.5617   0.8237   0.4263     C
C       0.5617   0.9263   0.3237     C
H        0.567    0.339    0.911     H
H        0.567    0.411    0.839     H
H        0.567    0.839    0.411     H
H        0.567    0.911    0.339     H
C       0.5737   0.0737   0.8117     C
C       0.5737   0.1763   0.4383     C
C       0.5737   0.3117   0.5737     C
C       0.5737   0.4383   0.1763     C
C       0.5737   0.5737   0.3117     C
C       0.5737   0.6763   0.9383     C
C       0.5737   0.8117   0.0737     C
C       0.5737   0.9383   0.6763     C
N       0.5819   0.0819   0.9584     N
N       0.5819   0.1681   0.2916     N
N       0.5819   0.2916   0.1681     N
N       0.5819   0.4584   0.5819     N
N       0.5819   0.5819   0.4584     N
N       0.5819   0.6681   0.7916     N
N       0.5819   0.7916   0.6681     N
N       0.5819   0.9584   0.0819     N
H        0.589    0.089    0.817     H
H        0.589    0.161    0.433     H
H        0.589    0.317    0.589     H
H        0.589    0.433    0.161     H
H        0.589    0.589    0.317     H
H        0.589    0.661    0.933     H
H        0.589    0.817    0.089     H
H        0.589    0.933    0.661     H
C        0.598    0.098   0.8871     C
C        0.598    0.152   0.3629     C
C        0.598   0.3629    0.152     C
C        0.598   0.3871    0.598     C
C        0.598    0.598   0.3871     C
C        0.598    0.652   0.8629     C
C        0.598   0.8629    0.652     C
C        0.598   0.8871    0.098     C
C       0.6129    0.348    0.348     C
C       0.6129    0.402    0.402     C
C       0.6129    0.848    0.848     C
C       0.6129    0.902    0.902     C
N        0.625   0.0021    0.125     N
N        0.625    0.125   0.0021     N
Zn       0.625    0.125    0.125    Zn
N        0.625    0.125   0.2479     N
N        0.625   0.2479    0.125     N
N        0.625   0.5021    0.625     N
N        0.625    0.625   0.5021     N
Zn       0.625    0.625    0.625    Zn
N        0.625    0.625   0.7479     N
N        0.625   0.7479    0.625     N
C       0.6371    0.348    0.902     C
C       0.6371    0.402    0.848     C
C       0.6371    0.848    0.402     C
C       0.6371    0.902    0.348     C
C        0.652    0.098   0.3629     C
C        0.652    0.152   0.8871     C
C        0.652   0.3629    0.098     C
C        0.652   0.3871    0.652     C
C        0.652    0.598   0.8629     C
C        0.652    0.652   0.3871     C
C        0.652   0.8629    0.598     C
C        0.652   0.8871    0.152     C
H        0.661    0.089    0.433     H
H        0.661    0.161    0.817     H
H        0.661    0.317    0.661     H
H        0.661    0.433    0.089     H
H        0.661    0.589    0.933     H
H        0.661    0.661    0.317     H
H        0.661    0.817    0.161     H
H        0.661    0.933    0.589     H
N       0.6681   0.0819   0.2916     N
N       0.6681   0.1681   0.9584     N
N       0.6681   0.2916   0.0819     N
N       0.6681   0.4584   0.6681     N
N       0.6681   0.5819   0.7916     N
N       0.6681   0.6681   0.4584     N
N       0.6681   0.7916   0.5819     N
N       0.6681   0.9584   0.1681     N
C       0.6763   0.0737   0.4383     C
C       0.6763   0.1763   0.8117     C
C       0.6763   0.3117   0.6763     C
C       0.6763   0.4383   0.0737     C
C       0.6763   0.5737   0.9383     C
C       0.6763   0.6763   0.3117     C
C       0.6763   0.8117   0.1763     C
C       0.6763   0.9383   0.5737     C
H        0.683    0.339    0.339     H
H        0.683    0.411    0.411     H
H        0.683    0.839    0.839     H
H        0.683    0.911    0.911     H
C       0.6883   0.3237   0.3237     C
C       0.6883   0.4263   0.4263     C
C       0.6883   0.8237   0.8237     C
C       0.6883   0.9263   0.9263     C
H          0.7     0.05     0.48     H
H          0.7      0.2     0.77     H
H          0.7     0.27      0.7     H
H          0.7     0.48     0.05     H
H          0.7     0.55     0.98     H
H          0.7      0.7     0.27     H
H          0.7     0.77      0.2     H
H          0.7     0.98     0.55     H
N       0.7084   0.3319   0.9181     N
N       0.7084   0.4181   0.8319     N
N       0.7084   0.8319   0.4181     N
N       0.7084   0.9181   0.3319     N
H         0.73      0.3      0.3     H
H         0.73     0.45     0.45     H
H         0.73      0.8      0.8     H
H         0.73     0.95     0.95     H
N       0.7479    0.125    0.125     N
N       0.7479    0.625    0.625     N
Zn        0.75      0.0     0.25    Zn
Zn        0.75     0.25      0.0    Zn
Zn        0.75      0.5     0.75    Zn
Zn        0.75     0.75      0.5    Zn
N       0.7521    0.375    0.875     N
N       0.7521    0.875    0.375     N
H         0.77     0.05     0.55     H
H         0.77      0.2      0.7     H
H         0.77     0.55     0.05     H
H         0.77      0.7      0.2     H
N       0.7916   0.0819   0.1681     N
N       0.7916   0.1681   0.0819     N
N       0.7916   0.5819   0.6681     N
N       0.7916   0.6681   0.5819     N
H          0.8     0.02     0.95     H
H          0.8     0.23      0.3     H
H          0.8      0.3     0.23     H
H          0.8     0.45     0.52     H
H          0.8     0.52     0.45     H
H          0.8     0.73      0.8     H
H          0.8      0.8     0.73     H
H          0.8     0.95     0.02     H
C       0.8117   0.0737   0.5737     C
C       0.8117   0.1763   0.6763     C
C       0.8117   0.5737   0.0737     C
C       0.8117   0.6763   0.1763     C
H        0.817    0.089    0.589     H
H        0.817    0.161    0.661     H
H        0.817    0.589    0.089     H
H        0.817    0.661    0.161     H
C       0.8237   0.0617   0.9263     C
C       0.8237   0.1883   0.3237     C
C       0.8237   0.3237   0.1883     C
C       0.8237   0.4263   0.5617     C
C       0.8237   0.5617   0.4263     C
C       0.8237   0.6883   0.8237     C
C       0.8237   0.8237   0.6883     C
C       0.8237   0.9263   0.0617     C
N       0.8319   0.0416   0.3319     N
N       0.8319   0.2084   0.9181     N
N       0.8319   0.3319   0.0416     N
N       0.8319   0.4181   0.7084     N
N       0.8319   0.5416   0.8319     N
N       0.8319   0.7084   0.4181     N
N       0.8319   0.8319   0.5416     N
N       0.8319   0.9181   0.2084     N
H        0.839    0.067    0.911     H
H        0.839    0.183    0.339     H
H        0.839    0.339    0.183     H
H        0.839    0.411    0.567     H
H        0.839    0.567    0.411     H
H        0.839    0.683    0.839     H
H        0.839    0.839    0.683     H
H        0.839    0.911    0.067     H
C        0.848   0.1129    0.348     C
C        0.848   0.1371    0.902     C
C        0.848    0.348   0.1129     C
C        0.848    0.402   0.6371     C
C        0.848   0.6129    0.848     C
C        0.848   0.6371    0.402     C
C        0.848    0.848   0.6129     C
C        0.848    0.902   0.1371     C
C       0.8629    0.098    0.152     C
C       0.8629    0.152    0.098     C
C       0.8629    0.598    0.652     C
C       0.8629    0.652    0.598     C
N        0.875   0.2521    0.875     N
N        0.875    0.375   0.7521     N
Zn       0.875    0.375    0.875    Zn
N        0.875    0.375   0.9979     N
N        0.875   0.4979    0.875     N
N        0.875   0.7521    0.375     N
N        0.875    0.875   0.2521     N
Zn       0.875    0.875    0.375    Zn
N        0.875    0.875   0.4979     N
N        0.875   0.9979    0.375     N
C       0.8871    0.098    0.598     C
C       0.8871    0.152    0.652     C
C       0.8871    0.598    0.098     C
C       0.8871    0.652    0.152     C
C        0.902   0.1129    0.402     C
C        0.902   0.1371    0.848     C
C        0.902    0.348   0.6371     C
C        0.902    0.402   0.1129     C
C        0.902   0.6129    0.902     C
C        0.902   0.6371    0.348     C
C        0.902    0.848   0.1371     C
C        0.902    0.902   0.6129     C
H        0.911    0.067    0.839     H
H        0.911    0.183    0.411     H
H        0.911    0.339    0.567     H
H        0.911    0.411    0.183     H
H        0.911    0.567    0.339     H
H        0.911    0.683    0.911     H
H        0.911    0.839    0.067     H
H        0.911    0.911    0.683     H
N       0.9181   0.0416   0.4181     N
N       0.9181   0.2084   0.8319     N
N       0.9181   0.3319   0.7084     N
N       0.9181   0.4181   0.0416     N
N       0.9181   0.5416   0.9181     N
N       0.9181   0.7084   0.3319     N
N       0.9181   0.8319   0.2084     N
N       0.9181   0.9181   0.5416     N
C       0.9263   0.0617   0.8237     C
C       0.9263   0.1883   0.4263     C
C       0.9263   0.3237   0.5617     C
C       0.9263   0.4263   0.1883     C
C       0.9263   0.5617   0.3237     C
C       0.9263   0.6883   0.9263     C
C       0.9263   0.8237   0.0617     C
C       0.9263   0.9263   0.6883     C
H        0.933    0.089    0.161     H
H        0.933    0.161    0.089     H
H        0.933    0.589    0.661     H
H        0.933    0.661    0.589     H
C       0.9383   0.0737   0.1763     C
C       0.9383   0.1763   0.0737     C
C       0.9383   0.5737   0.6763     C
C       0.9383   0.6763   0.5737     C
H         0.95     0.02      0.8     H
H         0.95     0.23     0.45     H
H         0.95      0.3     0.52     H
H         0.95     0.45     0.23     H
H         0.95     0.52      0.3     H
H         0.95     0.73     0.95     H
H         0.95      0.8     0.02     H
H         0.95     0.95     0.73     H
N       0.9584   0.0819   0.5819     N
N       0.9584   0.1681   0.6681     N
N       0.9584   0.5819   0.0819     N
N       0.9584   0.6681   0.1681     N
H         0.98     0.05      0.2     H
H         0.98      0.2     0.05     H
H         0.98     0.55      0.7     H
H         0.98      0.7     0.55     H
N       0.9979    0.375    0.875     N
N       0.9979    0.875    0.375     N
