data_I
_chemical_name_common  '/home/zhangsd/repos/MofS-CGCNN/ML/data/TSD/clean_cifs/WASTUG_clean'
_cell_length_a 12.16550
_cell_length_b 20.51440
_cell_length_c 21.70120
_cell_angle_alpha 90.00000
_cell_angle_beta  90.00000
_cell_angle_gamma 90.00000
_space_group_name_H-M_alt      'P 1'


loop_
_space_group_symop_operation_xyz
  'x, y, z' 

loop_
_atom_site_label
_atom_site_fract_x
_atom_site_fract_y
_atom_site_fract_z
_atom_site_type_symbol
La     0.00249  0.49399  0.82349    La
La     0.00249  0.50601  0.17651    La
O       0.0193   0.3807   0.0804     O
O       0.0193   0.6193   0.9196     O
O       0.0259    0.359   0.9544     O
O       0.0259    0.641   0.0456     O
O       0.0432   0.4894   0.9351     O
O       0.0432   0.5106   0.0649     O
Mo     0.06777  0.43739  0.00902    Mo
Mo     0.06777  0.56261  0.99098    Mo
O       0.1217   0.3945   0.8475     O
O       0.1217   0.6055   0.1525     O
Mo     0.12194  0.14915  0.59446    Mo
Mo     0.12194  0.85085  0.40554    Mo
O       0.1247   0.0884   0.3741     O
O       0.1247   0.9116   0.6259     O
O       0.1302   0.4262     0.75     O
O       0.1302   0.5738     0.25     O
O       0.1354   0.0608   0.5059     O
O       0.1354   0.9392   0.4941     O
O       0.1381   0.1942   0.5224     O
O       0.1381   0.8058   0.4776     O
Mo     0.13843  0.15879  0.43563    Mo
Mo     0.13843  0.84121  0.56437    Mo
O       0.1426   0.0701    0.647     O
O       0.1426   0.9299    0.353     O
C       0.1621   0.3882   0.7949     C
C       0.1621   0.6118   0.2051     C
P       0.2105      0.0      0.5     P
H       0.2393   0.3331   0.6931     H
H       0.2393   0.6669   0.3069     H
C       0.2569   0.3439   0.7853     C
C       0.2569   0.6561   0.2147     C
C       0.2812   0.3198   0.7267     C
C       0.2812   0.6802   0.2733     C
O       0.2818   0.1334   0.5948     O
O       0.2818   0.8666   0.4052     O
O       0.2822   0.0193   0.3163     O
O       0.2822   0.9807   0.6837     O
Mo     0.28382  0.10108  0.36865    Mo
Mo     0.28382  0.89892  0.63135    Mo
O       0.2842   0.0079   0.4419     O
O       0.2842   0.9921   0.5581     O
O       0.2961   0.1472   0.4469     O
O       0.2961   0.8528   0.5531     O
Mo     0.30406  0.06461  0.65793    Mo
Mo     0.30406  0.93539  0.34207    Mo
H       0.3067   0.3411   0.8744     H
H       0.3067   0.6589   0.1256     H
C       0.3217    0.325   0.8352     C
C       0.3217    0.675   0.1648     C
O       0.3383   0.2713   0.6095     O
O       0.3383   0.7287   0.3905     O
C       0.3672    0.276   0.7179     C
C       0.3672    0.724   0.2821     C
C        0.395   0.2507   0.6551     C
C        0.395   0.7493   0.3449     C
C       0.4077   0.2823   0.8265     C
C       0.4077   0.7177   0.1735     C
La     0.42587  0.19017  0.53228    La
La     0.42587  0.80983  0.46772    La
C       0.4329   0.2581   0.7688     C
C       0.4329   0.7419   0.2312     C
O       0.4431   0.0551   0.6278     O
O       0.4431   0.9449   0.3722     O
O       0.4497   0.0793   0.3804     O
O       0.4497   0.9207   0.6196     O
O       0.4643   0.2874   0.3765     O
O       0.4643   0.7126   0.6235     O
O       0.4688   0.0707   0.5053     O
O       0.4688   0.9293   0.4947     O
O        0.472   0.2103   0.6481     O
O        0.472   0.7897   0.3519     O
C       0.4819   0.2647   0.8819     C
C       0.4819   0.7353   0.1181     C
O       0.4824   0.3049   0.9264     O
O       0.4824   0.6951   0.0736     O
H       0.4925   0.2303   0.7635     H
H       0.4925   0.7697   0.2365     H
Mo     0.49358  0.00495  0.44074    Mo
Mo     0.49358  0.99505  0.55926    Mo
Mo     0.50642  0.49505  0.94074    Mo
Mo     0.50642  0.50495  0.05926    Mo
H       0.5075   0.2697   0.2635     H
H       0.5075   0.7303   0.7365     H
O       0.5176   0.1951   0.4264     O
O       0.5176   0.8049   0.5736     O
C       0.5181   0.2353   0.3819     C
C       0.5181   0.7647   0.6181     C
O        0.528   0.2897   0.1481     O
O        0.528   0.7103   0.8519     O
O       0.5312   0.4293   0.0053     O
O       0.5312   0.5707   0.9947     O
O       0.5357   0.2126   0.8765     O
O       0.5357   0.7874   0.1235     O
O       0.5503   0.4207   0.8804     O
O       0.5503   0.5793   0.1196     O
O       0.5569   0.4449   0.1278     O
O       0.5569   0.5551   0.8722     O
C       0.5671   0.2419   0.2688     C
C       0.5671   0.7581   0.7312     C
La     0.57413  0.30983  0.03228    La
La     0.57413  0.69017  0.96772    La
C       0.5923   0.2177   0.3265     C
C       0.5923   0.7823   0.6735     C
C        0.605   0.2493   0.1551     C
C        0.605   0.7507   0.8449     C
C       0.6328    0.224   0.2179     C
C       0.6328    0.776   0.7821     C
O       0.6617   0.2287   0.1095     O
O       0.6617   0.7713   0.8905     O
C       0.6783    0.175   0.3352     C
C       0.6783    0.825   0.6648     C
H       0.6933   0.1589   0.3744     H
H       0.6933   0.8411   0.6256     H
Mo     0.69594  0.43539  0.15793    Mo
Mo     0.69594  0.56461  0.84207    Mo
O       0.7039   0.3528   0.9469     O
O       0.7039   0.6472   0.0531     O
O       0.7158   0.4921   0.9419     O
O       0.7158   0.5079   0.0581     O
Mo     0.71618  0.39892  0.86865    Mo
Mo     0.71618  0.60108  0.13135    Mo
O       0.7178   0.4807   0.8163     O
O       0.7178   0.5193   0.1837     O
O       0.7182   0.3666   0.0948     O
O       0.7182   0.6334   0.9052     O
C       0.7188   0.1802   0.2267     C
C       0.7188   0.8198   0.7733     C
C       0.7431   0.1561   0.2853     C
C       0.7431   0.8439   0.7147     C
H       0.7607   0.1669   0.1931     H
H       0.7607   0.8331   0.8069     H
P       0.7895      0.5      0.0     P
C       0.8379   0.1118   0.2949     C
C       0.8379   0.8882   0.7051     C
O       0.8574   0.4299    0.147     O
O       0.8574   0.5701    0.853     O
Mo     0.86157  0.34121  0.93563    Mo
Mo     0.86157  0.65879  0.06437    Mo
O       0.8619   0.3058   0.0224     O
O       0.8619   0.6942   0.9776     O
O       0.8646   0.4392   0.0059     O
O       0.8646   0.5608   0.9941     O
O       0.8698   0.0738     0.25     O
O       0.8698   0.9262     0.75     O
O       0.8753   0.4116   0.8741     O
O       0.8753   0.5884   0.1259     O
Mo     0.87806  0.35085  0.09446    Mo
Mo     0.87806  0.64915  0.90554    Mo
O       0.8783   0.1055   0.3475     O
O       0.8783   0.8945   0.6525     O
Mo     0.93223  0.06261  0.50902    Mo
Mo     0.93223  0.93739  0.49098    Mo
O       0.9568   0.0106   0.4351     O
O       0.9568   0.9894   0.5649     O
O       0.9741    0.141   0.4544     O
O       0.9741    0.859   0.5456     O
O       0.9807   0.1193   0.5804     O
O       0.9807   0.8807   0.4196     O
La     0.99751  0.00601  0.32349    La
La     0.99751  0.99399  0.67651    La
