data_I
_chemical_name_common  '/home/zhangsd/repos/MofS-CGCNN/ML/data/TSD/clean_cifs/WATPIT_clean'
_cell_length_a  8.79990
_cell_length_b 10.84750
_cell_length_c 16.81320
_cell_angle_alpha 76.60000
_cell_angle_beta  82.10500
_cell_angle_gamma 90.13500
_space_group_name_H-M_alt      'P 1'


loop_
_space_group_symop_operation_xyz
  'x, y, z' 

loop_
_atom_site_label
_atom_site_fract_x
_atom_site_fract_y
_atom_site_fract_z
_atom_site_type_symbol
O       0.0068   0.0668   0.8202     O
C        0.013   0.9918   0.9623     C
C       0.0158   0.0966   0.8868     C
O       0.0219   0.2099   0.8919     O
H       0.0272   0.5859   0.0441     H
H       0.0306   0.9102   0.9554     H
Cd     0.03256  0.71391  0.24521    Cd
C       0.0391   0.5517   0.9979     C
O       0.0771    0.786   0.3617     O
O       0.0927   0.5792   0.3805     O
C       0.1008   0.6778   0.4055     C
H       0.1108   0.5945   0.5304     H
C        0.138   0.6692   0.4906     C
O       0.1445   0.5881    0.857     O
C       0.1472     0.62    0.924     C
O       0.1782   0.6698    0.655     O
C       0.2059     0.76    0.512     C
N       0.2242   0.3367   0.7081     N
O       0.2321   0.7066   0.9312     O
H       0.2328   0.8347   0.4722     H
H       0.2412   0.2903   0.6009     H
C       0.2433   0.7519   0.5968     C
H       0.2572   0.3974   0.8057     H
Cd     0.27796  0.73983  0.75806    Cd
H       0.2815   0.7181   0.0817     H
H       0.2852   0.3068   0.2034     H
N       0.2865   0.7725   0.1845     N
C       0.2936   0.3301   0.6329     C
H       0.2945   0.0358   0.7821     H
C       0.3029   0.3936   0.7531     C
H       0.3365   0.8456   0.2748     H
O       0.3392   0.8296    0.607     O
C       0.3403   0.7626   0.1084     C
H       0.3405   0.0763   0.9219     H
H        0.349   0.1086   0.1837     H
H       0.3643   0.5128   0.2219     H
H       0.3681   0.1141   0.2743     H
C       0.3734   0.8391   0.2214     C
H        0.387   0.5256   0.3734     H
C       0.3929   0.2873   0.1946     C
H        0.399    0.865   0.8506     H
C       0.4036   0.0222   0.7715     C
C       0.4086   0.1472   0.2166     C
N       0.4297   0.8866   0.7981     N
H       0.4314   0.3201   0.1366     H
C       0.4338   0.1148   0.8947     C
H       0.4356   0.0495   0.7124     H
C       0.4372   0.3794    0.602     C
H        0.446    0.331   0.2967     H
C       0.4491    0.447   0.7251     C
C       0.4708   0.4892   0.2192     C
N       0.4783   0.3497   0.2449     N
H       0.4805   0.4816   0.8375     H
C        0.481   0.8162   0.0674     C
H       0.4821   0.3725   0.5499     H
H       0.4829   0.1945   0.9851     H
C       0.4848   0.5609   0.3522     C
C       0.4885   0.1026   0.8144     C
C       0.5115   0.8974   0.1856     C
C       0.5152   0.4391   0.6478     C
H       0.5171   0.8055   0.0149     H
H       0.5179   0.6275   0.4501     H
C        0.519   0.1838   0.9326     C
H       0.5195   0.5184   0.1625     H
N       0.5217   0.6503   0.7551     N
C       0.5292   0.5108   0.7808     C
C       0.5509    0.553   0.2749     C
H        0.554    0.669   0.7033     H
C       0.5628   0.6206    0.398     C
H       0.5644   0.9505   0.2876     H
C       0.5662   0.8852   0.1053     C
H       0.5686   0.6799   0.8634     H
N       0.5703   0.1134   0.2019     N
C       0.5914   0.8528   0.7834     C
C       0.5964   0.9778   0.2285     C
H        0.601    0.135   0.1494     H
C       0.6071   0.7127   0.8054     C
H        0.613   0.4744   0.6266     H
C       0.6266   0.1609   0.7786     C
H       0.6319   0.8859   0.7257     H
H       0.6357   0.4872   0.7781     H
H        0.651   0.8914   0.8163     H
H       0.6595   0.9237   0.0781     H
C       0.6597   0.2374   0.8916     C
O       0.6608   0.1704    0.393     O
H       0.6635   0.1544   0.7252     H
C       0.6971   0.6064   0.2469     C
H       0.7055   0.9642   0.2179     H
C       0.7064   0.6699   0.3671     C
N       0.7135   0.2275   0.8155     N
H       0.7148   0.6932   0.7966     H
H       0.7185   0.2819   0.9183     H
Cd     0.72204  0.26017  0.24194    Cd
H       0.7428   0.6026   0.1943     H
C       0.7567   0.2481   0.4032     C
H       0.7588   0.7097   0.3991     H
H       0.7672   0.1653   0.5278     H
O       0.7679   0.2934   0.0688     O
N       0.7758   0.6633   0.2919     N
C       0.7941     0.24    0.488     C
O       0.8218   0.3302    0.345     O
C       0.8528     0.38    0.076     C
O       0.8555   0.4119    0.143     O
C        0.862   0.3308   0.5094     C
H       0.8892   0.4055   0.4696     H
C       0.8992   0.3222   0.5945     C
O       0.9073   0.4208   0.6195     O
O       0.9229    0.214   0.6383     O
C       0.9609   0.4483   0.0021     C
Cd     0.96744  0.28609  0.75479    Cd
H       0.9694   0.0898   0.0446     H
H       0.9728   0.4141   0.9559     H
O       0.9781   0.7901   0.1081     O
C       0.9842   0.9034   0.1132     C
C        0.987   0.0082   0.0377     C
O       0.9932   0.9332   0.1798     O
