data_I
_chemical_name_common  '/home/zhangsd/repos/MofS-CGCNN/ML/data/TSD/clean_cifs/WAYMEQ_SL'
_cell_length_a 16.78070
_cell_length_b  6.61250
_cell_length_c 12.71430
_cell_angle_alpha 90.00000
_cell_angle_beta  90.00000
_cell_angle_gamma 90.00000
_space_group_name_H-M_alt      'P 1'


loop_
_space_group_symop_operation_xyz
  'x, y, z' 

loop_
_atom_site_label
_atom_site_fract_x
_atom_site_fract_y
_atom_site_fract_z
_atom_site_type_symbol
O          0.0     -0.0   0.3079     O
H          0.0      0.0  0.38655     H
Al        -0.0     0.25     0.25    Al
H          0.0      0.5  0.11405     H
O          0.0      0.5   0.1927     O
Al        -0.0     0.75     0.25    Al
O       0.0762   0.3486   0.3478     O
O       0.0762   0.6514   0.3478     O
O       0.0882   0.1623   0.1652     O
O       0.0882   0.8377   0.1652     O
C        0.114      0.5   0.3918     C
C       0.1211      0.0   0.1312     C
H      0.17551  0.15277  0.46344     H
H      0.17551  0.84723  0.46344     H
C       0.1814      0.5    0.468     C
H      0.18901  0.34758  0.07062     H
H      0.18901  0.65242  0.07062     H
C       0.1946      0.0   0.0662     C
C       0.2047    0.302   0.4865     C
C       0.2047    0.698   0.4865     C
C       0.2181   0.1982   0.0476     C
C       0.2181   0.8018   0.0476     C
C       0.2819   0.3018   0.5476     C
C       0.2819   0.6982   0.5476     C
C       0.2953    0.198   0.9865     C
C       0.2953    0.802   0.9865     C
C       0.3054      0.5   0.5662     C
H      0.31099  0.15242  0.57062     H
H      0.31099  0.84758  0.57062     H
C       0.3186     -0.0    0.968     C
H      0.32449  0.34723  0.96344     H
H      0.32449  0.65277  0.96344     H
C       0.3789      0.5   0.6312     C
C        0.386     -0.0   0.8918     C
O       0.4118   0.3377   0.6652     O
O       0.4118   0.6623   0.6652     O
O       0.4238   0.1514   0.8478     O
O       0.4238   0.8486   0.8478     O
H          0.5      0.0  0.61405     H
O          0.5     -0.0   0.6927     O
Al         0.5     0.25     0.75    Al
O          0.5      0.5   0.8079     O
H          0.5      0.5  0.88655     H
Al         0.5     0.75     0.75    Al
O       0.5762   0.1514   0.8478     O
O       0.5762   0.8486   0.8478     O
O       0.5882   0.3377   0.6652     O
O       0.5882   0.6623   0.6652     O
C        0.614     -0.0   0.8918     C
C       0.6211      0.5   0.6312     C
H      0.67551  0.34723  0.96344     H
H      0.67551  0.65277  0.96344     H
C       0.6814     -0.0    0.968     C
H      0.68901  0.15242  0.57062     H
H      0.68901  0.84758  0.57062     H
C       0.6946      0.5   0.5662     C
C       0.7047    0.198   0.9865     C
C       0.7047    0.802   0.9865     C
C       0.7181   0.3018   0.5476     C
C       0.7181   0.6982   0.5476     C
C       0.7819   0.1982   0.0476     C
C       0.7819   0.8018   0.0476     C
C       0.7953    0.302   0.4865     C
C       0.7953    0.698   0.4865     C
C       0.8054     -0.0   0.0662     C
H      0.81099  0.34758  0.07062     H
H      0.81099  0.65242  0.07062     H
C       0.8186      0.5    0.468     C
H      0.82449  0.15277  0.46344     H
H      0.82449  0.84723  0.46344     H
C       0.8789      0.0   0.1312     C
C        0.886      0.5   0.3918     C
O       0.9118   0.1623   0.1652     O
O       0.9118   0.8377   0.1652     O
O       0.9238   0.3486   0.3478     O
O       0.9238   0.6514   0.3478     O
