data_I
_chemical_name_common  '/home/zhangsd/repos/MofS-CGCNN/ML/data/TSD/clean_cifs/WAYMIU_manual'
_cell_length_a  6.56030
_cell_length_b 15.98460
_cell_length_c 13.44410
_cell_angle_alpha 90.00000
_cell_angle_beta  90.00000
_cell_angle_gamma 90.00000
_space_group_name_H-M_alt      'P 1'


loop_
_space_group_symop_operation_xyz
  'x, y, z' 

loop_
_atom_site_label
_atom_site_fract_x
_atom_site_fract_y
_atom_site_fract_z
_atom_site_type_symbol
H     -0.00724  0.50377  0.62882     H
O     -0.00607  0.50371  0.69305     O
H     -0.00516  0.00542  0.36402     H
O     -0.00514  0.00467  0.29987     O
C     -0.00471  0.89519  0.13114     C
C     -0.00453  0.68558  0.92769     C
C      -0.0044  0.82489  0.05855     C
C     -0.00434  0.61228  0.85908     C
C     -0.00289  0.39186  0.85769     C
C     -0.00222  0.31763  0.92475     C
C     -0.00213  0.10874  0.12894     C
C     -0.00154   0.1781  0.05512     C
H       0.1669   0.3167  0.54784     H
H      0.16702  0.19604  0.43588     H
O      0.16814  0.92345  0.16185     O
O      0.16857  0.58292  0.82988     O
O      0.17001  0.42137  0.82924     O
H      0.17014  0.68583  0.54288     H
O      0.17042  0.08071  0.15975     O
H      0.17045  0.80599  0.43035     H
C      0.17957   0.7214   0.9602     C
C       0.1798  0.79032  0.02447     C
C      0.18257  0.28125  0.95596     C
C      0.18273  0.21216  0.02013     C
Al     0.24402   0.5027   0.7461    Al
Al     0.24461  0.00306  0.24645    Al
C      0.31109  0.29015  0.52475     C
C      0.31128  0.22104  0.46067     C
C      0.31412  0.71188  0.51963     C
C      0.31443   0.7808  0.45533     C
O      0.32219  0.08221  0.33171     O
O       0.3228  0.42401  0.66023     O
H      0.32367  0.69653  0.93516     H
H      0.32384  0.81644   0.0483     H
O      0.32415  0.58019   0.6593     O
O      0.32503  0.92179  0.32948     O
H      0.32689  0.30655  0.93093     H
H      0.32701  0.18606  0.04347     H
H      0.49297  0.50424  0.86374     H
O      0.49404  0.50392  0.79971     O
C      0.49518  0.11172  0.36008     C
O      0.49525  0.00479  0.19327     O
H      0.49552  0.00573  0.12915     H
C      0.49552  0.18493  0.42861     C
C      0.49553  0.32474  0.55871     C
C      0.49571  0.39517  0.63091     C
C      0.49711  0.60849   0.6287     C
C      0.49777  0.67774  0.55476     C
C      0.49825  0.89157  0.35713     C
C      0.49868  0.81729  0.42412     C
H      0.66679  0.69667  0.93499     H
H      0.66716  0.81668   0.0479     H
O      0.66783   0.0822  0.33109     O
O      0.66786   0.4234  0.66193     O
H      0.66997  0.30625  0.93116     H
O      0.67036  0.58076  0.65937     O
H      0.67067  0.18595  0.04338     H
O      0.67103  0.92167  0.32894     O
C      0.67963  0.22083  0.46092     C
C      0.67966  0.28995  0.52495     C
C      0.68242  0.71173  0.51994     C
C      0.68293  0.78079  0.45556     C
Al     0.74482  0.50292  0.74655    Al
Al     0.74492  0.00313  0.24597    Al
C       0.8111  0.72149  0.96003     C
C      0.81118  0.79041  0.02433     C
C      0.81389  0.28106  0.95609     C
C      0.81433  0.21211  0.02018     C
O      0.82201  0.58251  0.83135     O
O       0.8221   0.9239  0.16063     O
H      0.82375  0.31627   0.5484     H
H      0.82387  0.19573  0.43623     H
O      0.82455  0.42236  0.82992     O
O      0.82478  0.08084  0.15944     O
H      0.82673  0.68567  0.54345     H
H      0.82749  0.80599  0.43057     H
