data_I
_chemical_name_common  '/home/zhangsd/repos/MofS-CGCNN/ML/data/TSD/clean_cifs/WECFAN01_clean'
_cell_length_a  8.27600
_cell_length_b 14.36000
_cell_length_c 14.75000
_cell_angle_alpha 90.00000
_cell_angle_beta  90.00000
_cell_angle_gamma 99.74600
_space_group_name_H-M_alt      'P 1'


loop_
_space_group_symop_operation_xyz
  'x, y, z' 

loop_
_atom_site_label
_atom_site_fract_x
_atom_site_fract_y
_atom_site_fract_z
_atom_site_type_symbol
H       0.0039   0.7649   0.4243     H
H       0.0066   0.1605   0.8018     H
H       0.0106   0.6789   0.2961     H
C       0.0319    0.313   0.9852     C
O        0.041   0.8424   0.7829     O
C       0.0494   0.2179   0.6303     C
H       0.0595   0.6591   0.5767     H
C       0.0599   0.8661   0.3269     C
C       0.0611   0.8814   0.2356     C
O       0.0651   0.9002   0.6422     O
N       0.0698    0.244   0.0369     N
H       0.0709   0.4965   0.4133     H
H       0.0739   0.6932   0.0381     H
C       0.0835   0.5019   0.4786     C
C       0.0886   0.3003   0.6854     C
Co     0.09275  0.87991  0.91761    Co
C       0.1028   0.9015   0.7228     C
O       0.1066   0.0501   0.0706     O
H       0.1098   0.4376   0.9261     H
H        0.131   0.4485   0.4996     H
C       0.1409   0.3924   0.9646     C
H       0.1478   0.2857   0.7381     H
C       0.1484   0.9759   0.0958     C
H       0.1511   0.1982   0.6121     H
H       0.1525   0.9249   0.4435     H
H       0.1551   0.3495   0.6514     H
C       0.1585   0.9322   0.3809     C
C       0.1634   0.9595   0.1974     C
C       0.1642   0.6639   0.5523     C
O       0.1735    0.909   0.0476     O
C       0.2004   0.5934    0.501     C
C       0.2218    0.257   0.0697     C
C       0.2356   0.9808   0.7551     C
N       0.2377   0.9936   0.8468     N
H       0.2477   0.7899   0.6063     H
H       0.2523   0.2101   0.1063     H
N       0.2623   0.0064   0.3468     N
C       0.2644   0.0192   0.2551     C
C       0.2782    0.743   0.5697     C
C       0.2996   0.4066    0.001     C
O       0.3265    0.091   0.5476     O
C       0.3358   0.3361   0.0523     C
C       0.3366   0.0405   0.6974     C
C       0.3415   0.0678   0.8809     C
H       0.3449   0.6505   0.1514     H
H       0.3475   0.0751   0.9435     H
H       0.3489   0.8018   0.1121     H
C       0.3516   0.0241   0.5958     C
H       0.3522   0.7143   0.2381     H
C       0.3591   0.6076   0.4646     C
H        0.369   0.5515   0.9996     H
H       0.3902   0.5624   0.4261     H
O       0.3934   0.9499   0.5706     O
C       0.3972   0.0985   0.2228     C
Co     0.40725  0.12009  0.41761    Co
C       0.4114   0.6997   0.1854     C
C       0.4165   0.4981   0.9786     C
H       0.4261   0.3068   0.5381     H
H       0.4291   0.5035   0.9133     H
N       0.4302    0.756   0.5369     N
O       0.4349   0.0998   0.1422     O
C       0.4389   0.1186   0.7356     C
C       0.4401   0.1339   0.8269     C
H       0.4405   0.3409   0.0767     H
C       0.4506   0.7821   0.1303     C
O        0.459   0.1576   0.2829     O
C       0.4681    0.687   0.4852     C
H       0.4894   0.3211   0.7961     H
H       0.4934   0.8395   0.3018     H
H       0.4961   0.2351   0.9243     H
H       0.5039   0.7649   0.0757     H
H       0.5066   0.1605   0.6982     H
H       0.5106   0.6789   0.2039     H
C       0.5319    0.313   0.5148     C
O        0.541   0.8424   0.7171     O
C       0.5494   0.2179   0.8697     C
H       0.5595   0.6591   0.9233     H
C       0.5599   0.8661   0.1731     C
C       0.5611   0.8814   0.2644     C
O       0.5651   0.9002   0.8578     O
N       0.5698    0.244   0.4631     N
H       0.5709   0.4965   0.0867     H
H       0.5739   0.6932   0.4619     H
C       0.5835   0.5019   0.0214     C
C       0.5886   0.3003   0.8146     C
Co     0.59275  0.87991  0.58239    Co
C       0.6028   0.9015   0.7772     C
O       0.6066   0.0501   0.4294     O
H       0.6098   0.4376   0.5739     H
H        0.631   0.4485   0.0004     H
C       0.6409   0.3924   0.5354     C
H       0.6478   0.2857   0.7619     H
C       0.6484   0.9759   0.4042     C
H       0.6511   0.1982   0.8879     H
H       0.6525   0.9249   0.0565     H
H       0.6551   0.3495   0.8486     H
C       0.6585   0.9322   0.1191     C
C       0.6634   0.9595   0.3026     C
C       0.6642   0.6639   0.9477     C
O       0.6735    0.909   0.4524     O
C       0.7004   0.5934    0.999     C
C       0.7218    0.257   0.4303     C
C       0.7356   0.9808   0.7449     C
N       0.7377   0.9936   0.6532     N
H       0.7477   0.7899   0.8937     H
H       0.7523   0.2101   0.3937     H
N       0.7623   0.0064   0.1532     N
C       0.7644   0.0192   0.2449     C
C       0.7782    0.743   0.9303     C
C       0.7996   0.4066    0.499     C
O       0.8265    0.091   0.9524     O
C       0.8358   0.3361   0.4477     C
C       0.8366   0.0405   0.8026     C
C       0.8415   0.0678   0.6191     C
H       0.8449   0.6505   0.3486     H
H       0.8475   0.0751   0.5565     H
H       0.8489   0.8018   0.3879     H
C       0.8516   0.0241   0.9042     C
H       0.8522   0.7143   0.2619     H
C       0.8591   0.6076   0.0354     C
H        0.869   0.5515   0.5004     H
H       0.8902   0.5624   0.0739     H
O       0.8934   0.9499   0.9294     O
C       0.8972   0.0985   0.2772     C
Co     0.90725  0.12009  0.08239    Co
C       0.9114   0.6997   0.3146     C
C       0.9165   0.4981   0.5214     C
H       0.9261   0.3068   0.9619     H
H       0.9291   0.5035   0.5867     H
N       0.9302    0.756   0.9631     N
O       0.9349   0.0998   0.3578     O
C       0.9389   0.1186   0.7644     C
C       0.9401   0.1339   0.6731     C
H       0.9405   0.3409   0.4233     H
C       0.9506   0.7821   0.3697     C
O        0.959   0.1576   0.2171     O
C       0.9681    0.687   0.0148     C
H       0.9894   0.3211   0.7039     H
H       0.9934   0.8395   0.1982     H
H       0.9961   0.2351   0.5757     H
