data_I
_chemical_name_common  '/home/zhangsd/repos/MofS-CGCNN/ML/data/TSD/clean_cifs/WEHHEY_clean'
_cell_length_a 12.16000
_cell_length_b 26.33100
_cell_length_c 26.46800
_cell_angle_alpha 90.00000
_cell_angle_beta  90.00000
_cell_angle_gamma 90.00000
_space_group_name_H-M_alt      'P 1'


loop_
_space_group_symop_operation_xyz
  'x, y, z' 

loop_
_atom_site_label
_atom_site_fract_x
_atom_site_fract_y
_atom_site_fract_z
_atom_site_type_symbol
H       0.0048   0.1319   0.6263     H
H       0.0048   0.3681   0.6263     H
H       0.0048   0.6319   0.8737     H
H       0.0048   0.8681   0.8737     H
O       0.0075  0.07229  0.55305     O
O       0.0075  0.42771  0.55305     O
O       0.0075  0.57229  0.94695     O
O       0.0075  0.92771  0.94695     O
Zn     0.01045     0.25  0.30355    Zn
Zn     0.01045     0.75  0.19645    Zn
C       0.0251  0.18072  0.21378     C
C       0.0251  0.31928  0.21378     C
C       0.0251  0.68072  0.28622     C
C       0.0251  0.81928  0.28622     C
O       0.0465   0.0605  0.94968     O
O       0.0465   0.4395  0.94968     O
O       0.0465   0.5605  0.55032     O
O       0.0465   0.9395  0.55032     O
C       0.0546  0.11786  0.14343     C
C       0.0546  0.38214  0.14343     C
C       0.0546  0.61786  0.35657     C
C       0.0546  0.88214  0.35657     C
O       0.0615  0.19591  0.69256     O
O       0.0615  0.30409  0.69256     O
O       0.0615  0.69591  0.80744     O
O       0.0615  0.80409  0.80744     O
O       0.0647   0.1976  0.25434     O
O       0.0647   0.3024  0.25434     O
O       0.0647   0.6976  0.24566     O
O       0.0647   0.8024  0.24566     O
C       0.0713  0.05198  0.07508     C
C       0.0713  0.44802  0.07508     C
C       0.0713  0.55198  0.42492     C
C       0.0713  0.94802  0.42492     C
Zn     0.08493  0.04039  0.49294    Zn
Zn     0.08493  0.45961  0.49294    Zn
Zn     0.08493  0.54039  0.00706    Zn
Zn     0.08493  0.95961  0.00706    Zn
C        0.088  0.13798  0.18927     C
C        0.088  0.36202  0.18927     C
C        0.088  0.63798  0.31073     C
C        0.088  0.86202  0.31073     C
O         0.09  0.19647  0.83149     O
O         0.09  0.30353  0.83149     O
O         0.09  0.69647  0.66851     O
O         0.09  0.80353  0.66851     O
H       0.1029   0.1258   0.8885     H
H       0.1029   0.3742   0.8885     H
H       0.1029   0.6258   0.6115     H
H       0.1029   0.8742   0.6115     H
C       0.1103  0.07679  0.12336     C
C       0.1103  0.42321  0.12336     C
C       0.1103  0.57679  0.37664     C
C       0.1103  0.92321  0.37664     C
O       0.1203  0.01188  0.06189     O
O       0.1203  0.48812  0.06189     O
O       0.1203  0.51188  0.43811     O
O       0.1203  0.98812  0.43811     O
C        0.135  0.03984  0.93822     C
C        0.135  0.46016  0.93822     C
C        0.135  0.53984  0.56178     C
C        0.135  0.96016  0.56178     C
C       0.1631  0.10916   0.8745     C
C       0.1631  0.39084   0.8745     C
C       0.1631  0.60916   0.6255     C
C       0.1631  0.89084   0.6255     C
Zn     0.16448     0.25  0.72288    Zn
Zn     0.16448     0.75  0.77712    Zn
C        0.173  0.17751  0.80971     C
C        0.173  0.32249  0.80971     C
C        0.173  0.67751  0.69029     C
C        0.173  0.82249  0.69029     C
O       0.1744  0.00049  0.95712     O
O       0.1744  0.49951  0.95712     O
O       0.1744  0.50049  0.54288     O
O       0.1744  0.99951  0.54288     O
C       0.1748  0.11766  0.21484     C
C       0.1748  0.38234  0.21484     C
C       0.1748  0.61766  0.28516     C
C       0.1748  0.88234  0.28516     C
H       0.1964   0.1315   0.2456     H
H       0.1964   0.3685   0.2456     H
H       0.1964   0.6315   0.2544     H
H       0.1964   0.8685   0.2544     H
C       0.1988  0.06374  0.89528     C
C       0.1988  0.43626  0.89528     C
C       0.1988  0.56374  0.60472     C
C       0.1988  0.93626  0.60472     C
C       0.2001  0.05541  0.14904     C
C       0.2001  0.44459  0.14904     C
C       0.2001  0.55541  0.35096     C
C       0.2001  0.94459  0.35096     C
C       0.2163  0.13017  0.83281     C
C       0.2163  0.36983  0.83281     C
C       0.2163  0.63017  0.66719     C
C       0.2163  0.86983  0.66719     C
O        0.219  0.19437  0.77127     O
O        0.219  0.30563  0.77127     O
O        0.219  0.69437  0.72873     O
O        0.219  0.80563  0.72873     O
C       0.2312  0.07623  0.19501     C
C       0.2312  0.42377  0.19501     C
C       0.2312  0.57623  0.30499     C
C       0.2312  0.92377  0.30499     C
H       0.2378   0.0279   0.1355     H
H       0.2378   0.4721   0.1355     H
H       0.2378   0.5279   0.3645     H
H       0.2378   0.9721   0.3645     H
C       0.2882  0.03906  0.87462     C
C       0.2882  0.46094  0.87462     C
C       0.2882  0.53906  0.62538     C
C       0.2882  0.96094  0.62538     C
C       0.3052  0.10476  0.81129     C
C       0.3052  0.39524  0.81129     C
C       0.3052  0.60476  0.68871     C
C       0.3052  0.89524  0.68871     C
H       0.3142   0.0093   0.8892     H
H       0.3142   0.4907   0.8892     H
H       0.3142   0.5093   0.6108     H
H       0.3142   0.9907   0.6108     H
O        0.315   0.0583  0.22405     O
O        0.315   0.4417  0.22405     O
O        0.315   0.5583  0.27595     O
O        0.315   0.9417  0.27595     O
H       0.3356   0.0097   0.3057     H
H       0.3356   0.4903   0.3057     H
H       0.3356   0.5097   0.1943     H
H       0.3356   0.9903   0.1943     H
C       0.3394  0.05883  0.83182     C
C       0.3394  0.44117  0.83182     C
C       0.3394  0.55883  0.66818     C
C       0.3394  0.94117  0.66818     C
H       0.3413   0.1184   0.7835     H
H       0.3413   0.3816   0.7835     H
H       0.3413   0.6184   0.7165     H
H       0.3413   0.8816   0.7165     H
C       0.3814  0.01801  0.20624     C
C       0.3814  0.48199  0.20624     C
C       0.3814  0.51801  0.29376     C
C       0.3814  0.98199  0.29376     C
H       0.4198   0.0517   0.7417     H
H       0.4198   0.4483   0.7417     H
H       0.4198   0.5517   0.7583     H
H       0.4198   0.9483   0.7583     H
O       0.4232  0.02959  0.81314     O
O       0.4232  0.47041  0.81314     O
O       0.4232  0.52959  0.68686     O
O       0.4232  0.97041  0.68686     O
H        0.427   0.0296   0.1784     H
H        0.427   0.4704   0.1784     H
H        0.427   0.5296   0.3216     H
H        0.427   0.9704   0.3216     H
C       0.4537      0.0     0.25     C
C       0.4537      0.5     0.25     C
C       0.4748  0.04408  0.76712     C
C       0.4748  0.45592  0.76712     C
C       0.4748  0.54408  0.73288     C
C       0.4748  0.95592  0.73288     C
H       0.4805   0.0741   0.2723     H
H       0.4805   0.4259   0.2723     H
H       0.4805   0.5741   0.2277     H
H       0.4805   0.9259   0.2277     H
H       0.5195   0.0741   0.7723     H
H       0.5195   0.4259   0.7723     H
H       0.5195   0.5741   0.7277     H
H       0.5195   0.9259   0.7277     H
C       0.5252  0.04408  0.26712     C
C       0.5252  0.45592  0.26712     C
C       0.5252  0.54408  0.23288     C
C       0.5252  0.95592  0.23288     C
C       0.5463      0.0     0.75     C
C       0.5463      0.5     0.75     C
H        0.573   0.0296   0.6784     H
H        0.573   0.4704   0.6784     H
H        0.573   0.5296   0.8216     H
H        0.573   0.9704   0.8216     H
O       0.5768  0.02959  0.31314     O
O       0.5768  0.47041  0.31314     O
O       0.5768  0.52959  0.18686     O
O       0.5768  0.97041  0.18686     O
H       0.5802   0.0517   0.2417     H
H       0.5802   0.4483   0.2417     H
H       0.5802   0.5517   0.2583     H
H       0.5802   0.9483   0.2583     H
C       0.6186  0.01801  0.70624     C
C       0.6186  0.48199  0.70624     C
C       0.6186  0.51801  0.79376     C
C       0.6186  0.98199  0.79376     C
H       0.6587   0.1184   0.2835     H
H       0.6587   0.3816   0.2835     H
H       0.6587   0.6184   0.2165     H
H       0.6587   0.8816   0.2165     H
C       0.6606  0.05883  0.33182     C
C       0.6606  0.44117  0.33182     C
C       0.6606  0.55883  0.16818     C
C       0.6606  0.94117  0.16818     C
H       0.6644   0.0097   0.8057     H
H       0.6644   0.4903   0.8057     H
H       0.6644   0.5097   0.6943     H
H       0.6644   0.9903   0.6943     H
O        0.685   0.0583  0.72405     O
O        0.685   0.4417  0.72405     O
O        0.685   0.5583  0.77595     O
O        0.685   0.9417  0.77595     O
H       0.6858   0.0093   0.3892     H
H       0.6858   0.4907   0.3892     H
H       0.6858   0.5093   0.1108     H
H       0.6858   0.9907   0.1108     H
C       0.6948  0.10476  0.31129     C
C       0.6948  0.39524  0.31129     C
C       0.6948  0.60476  0.18871     C
C       0.6948  0.89524  0.18871     C
C       0.7118  0.03906  0.37462     C
C       0.7118  0.46094  0.37462     C
C       0.7118  0.53906  0.12538     C
C       0.7118  0.96094  0.12538     C
H       0.7622   0.0279   0.6355     H
H       0.7622   0.4721   0.6355     H
H       0.7622   0.5279   0.8645     H
H       0.7622   0.9721   0.8645     H
C       0.7688  0.07623  0.69501     C
C       0.7688  0.42377  0.69501     C
C       0.7688  0.57623  0.80499     C
C       0.7688  0.92377  0.80499     C
O        0.781  0.19437  0.27127     O
O        0.781  0.30563  0.27127     O
O        0.781  0.69437  0.22873     O
O        0.781  0.80563  0.22873     O
C       0.7837  0.13017  0.33281     C
C       0.7837  0.36983  0.33281     C
C       0.7837  0.63017  0.16719     C
C       0.7837  0.86983  0.16719     C
C       0.7999  0.05541  0.64904     C
C       0.7999  0.44459  0.64904     C
C       0.7999  0.55541  0.85096     C
C       0.7999  0.94459  0.85096     C
C       0.8012  0.06374  0.39528     C
C       0.8012  0.43626  0.39528     C
C       0.8012  0.56374  0.10472     C
C       0.8012  0.93626  0.10472     C
H       0.8036   0.1315   0.7456     H
H       0.8036   0.3685   0.7456     H
H       0.8036   0.6315   0.7544     H
H       0.8036   0.8685   0.7544     H
C       0.8252  0.11766  0.71484     C
C       0.8252  0.38234  0.71484     C
C       0.8252  0.61766  0.78516     C
C       0.8252  0.88234  0.78516     C
O       0.8256  0.00049  0.45712     O
O       0.8256  0.49951  0.45712     O
O       0.8256  0.50049  0.04288     O
O       0.8256  0.99951  0.04288     O
C        0.827  0.17751  0.30971     C
C        0.827  0.32249  0.30971     C
C        0.827  0.67751  0.19029     C
C        0.827  0.82249  0.19029     C
Zn     0.83552     0.25  0.22288    Zn
Zn     0.83552     0.75  0.27712    Zn
C       0.8369  0.10916   0.3745     C
C       0.8369  0.39084   0.3745     C
C       0.8369  0.60916   0.1255     C
C       0.8369  0.89084   0.1255     C
C        0.865  0.03984  0.43822     C
C        0.865  0.46016  0.43822     C
C        0.865  0.53984  0.06178     C
C        0.865  0.96016  0.06178     C
O       0.8797  0.01188  0.56189     O
O       0.8797  0.48812  0.56189     O
O       0.8797  0.51188  0.93811     O
O       0.8797  0.98812  0.93811     O
C       0.8897  0.07679  0.62336     C
C       0.8897  0.42321  0.62336     C
C       0.8897  0.57679  0.87664     C
C       0.8897  0.92321  0.87664     C
H       0.8971   0.1258   0.3885     H
H       0.8971   0.3742   0.3885     H
H       0.8971   0.6258   0.1115     H
H       0.8971   0.8742   0.1115     H
O         0.91  0.19647  0.33149     O
O         0.91  0.30353  0.33149     O
O         0.91  0.69647  0.16851     O
O         0.91  0.80353  0.16851     O
C        0.912  0.13798  0.68927     C
C        0.912  0.36202  0.68927     C
C        0.912  0.63798  0.81073     C
C        0.912  0.86202  0.81073     C
Zn     0.91507  0.04039  0.99294    Zn
Zn     0.91507  0.45961  0.99294    Zn
Zn     0.91507  0.54039  0.50706    Zn
Zn     0.91507  0.95961  0.50706    Zn
C       0.9287  0.05198  0.57508     C
C       0.9287  0.44802  0.57508     C
C       0.9287  0.55198  0.92492     C
C       0.9287  0.94802  0.92492     C
O       0.9353   0.1976  0.75434     O
O       0.9353   0.3024  0.75434     O
O       0.9353   0.6976  0.74566     O
O       0.9353   0.8024  0.74566     O
O       0.9385  0.19591  0.19256     O
O       0.9385  0.30409  0.19256     O
O       0.9385  0.69591  0.30744     O
O       0.9385  0.80409  0.30744     O
C       0.9454  0.11786  0.64343     C
C       0.9454  0.38214  0.64343     C
C       0.9454  0.61786  0.85657     C
C       0.9454  0.88214  0.85657     C
O       0.9535   0.0605  0.44968     O
O       0.9535   0.4395  0.44968     O
O       0.9535   0.5605  0.05032     O
O       0.9535   0.9395  0.05032     O
C       0.9749  0.18072  0.71378     C
C       0.9749  0.31928  0.71378     C
C       0.9749  0.68072  0.78622     C
C       0.9749  0.81928  0.78622     C
Zn     0.98955     0.25  0.80355    Zn
Zn     0.98955     0.75  0.69645    Zn
O       0.9925  0.07229  0.05305     O
O       0.9925  0.42771  0.05305     O
O       0.9925  0.57229  0.44695     O
O       0.9925  0.92771  0.44695     O
H       0.9952   0.1319   0.1263     H
H       0.9952   0.3681   0.1263     H
H       0.9952   0.6319   0.3737     H
H       0.9952   0.8681   0.3737     H
