data_I
_chemical_name_common  '/home/zhangsd/repos/MofS-CGCNN/ML/data/TSD/clean_cifs/WEVQOD01_clean'
_cell_length_a 14.47830
_cell_length_b 14.47830
_cell_length_c 15.29300
_cell_angle_alpha 90.00000
_cell_angle_beta  90.00000
_cell_angle_gamma 120.00000
_space_group_name_H-M_alt      'P 1'


loop_
_space_group_symop_operation_xyz
  'x, y, z' 

loop_
_atom_site_label
_atom_site_fract_x
_atom_site_fract_y
_atom_site_fract_z
_atom_site_type_symbol
Cu         0.0      0.5      0.0    Cu
Cu         0.0      0.5      0.5    Cu
O       0.0533   0.4398   0.4101     O
O       0.0533   0.4398   0.5899     O
O       0.0533   0.6135   0.0899     O
O       0.0533   0.6135   0.9101     O
H       0.0813   0.3621   0.2688     H
H       0.0813   0.3621   0.7312     H
H       0.0813   0.7192   0.2312     H
H       0.0813   0.7192   0.7688     H
C       0.1311   0.4835   0.3619     C
C       0.1311   0.4835   0.6381     C
C       0.1311   0.6476   0.1381     C
C       0.1311   0.6476   0.8619     C
C       0.1459   0.4058   0.3046     C
C       0.1459   0.4058   0.6954     C
C       0.1459   0.7401   0.1954     C
C       0.1459   0.7401   0.8046     C
H       0.1599   0.3575   0.3409     H
H       0.1599   0.3575   0.6591     H
H       0.1599   0.8024   0.1591     H
H       0.1599   0.8024   0.8409     H
O       0.1942   0.5804   0.3556     O
O       0.1942   0.5804   0.6444     O
O       0.1942   0.6138   0.1444     O
O       0.1942   0.6138   0.8556     O
H       0.1976   0.3575   0.1591     H
H       0.1976   0.3575   0.8409     H
H       0.1976   0.8401   0.3409     H
H       0.1976   0.8401   0.6591     H
O       0.2352   0.4704     0.25     O
O       0.2352   0.4704     0.75     O
O       0.2352   0.7648     0.25     O
O       0.2352   0.7648     0.75     O
C       0.2599   0.4058   0.1954     C
C       0.2599   0.4058   0.8046     C
C       0.2599   0.8541   0.3046     C
C       0.2599   0.8541   0.6954     C
H       0.2808   0.3621   0.2312     H
H       0.2808   0.3621   0.7688     H
H       0.2808   0.9187   0.2688     H
H       0.2808   0.9187   0.7312     H
Gd     0.33333  0.66667     0.25    Gd
Gd     0.33333  0.66667     0.75    Gd
C       0.3524   0.4835   0.1381     C
C       0.3524   0.4835   0.8619     C
C       0.3524   0.8689   0.3619     C
C       0.3524   0.8689   0.6381     C
H       0.3575   0.1599   0.1591     H
H       0.3575   0.1599   0.8409     H
H       0.3575   0.1976   0.3409     H
H       0.3575   0.1976   0.6591     H
H       0.3621   0.0813   0.2312     H
H       0.3621   0.0813   0.7688     H
H       0.3621   0.2808   0.2688     H
H       0.3621   0.2808   0.7312     H
O       0.3862   0.5804   0.1444     O
O       0.3862   0.5804   0.8556     O
O       0.3862   0.8058   0.3556     O
O       0.3862   0.8058   0.6444     O
O       0.3865   0.4398   0.0899     O
O       0.3865   0.4398   0.9101     O
O       0.3865   0.9467   0.4101     O
O       0.3865   0.9467   0.5899     O
C       0.4058   0.1459   0.1954     C
C       0.4058   0.1459   0.8046     C
C       0.4058   0.2599   0.3046     C
C       0.4058   0.2599   0.6954     C
O       0.4196   0.6138   0.3556     O
O       0.4196   0.6138   0.6444     O
O       0.4196   0.8058   0.1444     O
O       0.4196   0.8058   0.8556     O
O       0.4398   0.0533   0.0899     O
O       0.4398   0.0533   0.9101     O
O       0.4398   0.3865   0.4101     O
O       0.4398   0.3865   0.5899     O
O       0.4704   0.2352     0.25     O
O       0.4704   0.2352     0.75     O
C       0.4835   0.1311   0.1381     C
C       0.4835   0.1311   0.8619     C
C       0.4835   0.3524   0.3619     C
C       0.4835   0.3524   0.6381     C
Cu         0.5      0.0      0.0    Cu
Cu         0.5      0.0      0.5    Cu
Cu         0.5      0.5      0.0    Cu
Cu         0.5      0.5      0.5    Cu
C       0.5165   0.6476   0.3619     C
C       0.5165   0.6476   0.6381     C
C       0.5165   0.8689   0.1381     C
C       0.5165   0.8689   0.8619     C
O       0.5296   0.7648     0.25     O
O       0.5296   0.7648     0.75     O
O       0.5602   0.6135   0.4101     O
O       0.5602   0.6135   0.5899     O
O       0.5602   0.9467   0.0899     O
O       0.5602   0.9467   0.9101     O
O       0.5804   0.1942   0.1444     O
O       0.5804   0.1942   0.8556     O
O       0.5804   0.3862   0.3556     O
O       0.5804   0.3862   0.6444     O
C       0.5942   0.7401   0.3046     C
C       0.5942   0.7401   0.6954     C
C       0.5942   0.8541   0.1954     C
C       0.5942   0.8541   0.8046     C
O       0.6135   0.0533   0.4101     O
O       0.6135   0.0533   0.5899     O
O       0.6135   0.5602   0.0899     O
O       0.6135   0.5602   0.9101     O
O       0.6138   0.1942   0.3556     O
O       0.6138   0.1942   0.6444     O
O       0.6138   0.4196   0.1444     O
O       0.6138   0.4196   0.8556     O
H       0.6379   0.7192   0.2688     H
H       0.6379   0.7192   0.7312     H
H       0.6379   0.9187   0.2312     H
H       0.6379   0.9187   0.7688     H
H       0.6425   0.8024   0.3409     H
H       0.6425   0.8024   0.6591     H
H       0.6425   0.8401   0.1591     H
H       0.6425   0.8401   0.8409     H
C       0.6476   0.1311   0.3619     C
C       0.6476   0.1311   0.6381     C
C       0.6476   0.5165   0.1381     C
C       0.6476   0.5165   0.8619     C
Gd     0.66667  0.33333     0.25    Gd
Gd     0.66667  0.33333     0.75    Gd
H       0.7192   0.0813   0.2688     H
H       0.7192   0.0813   0.7312     H
H       0.7192   0.6379   0.2312     H
H       0.7192   0.6379   0.7688     H
C       0.7401   0.1459   0.3046     C
C       0.7401   0.1459   0.6954     C
C       0.7401   0.5942   0.1954     C
C       0.7401   0.5942   0.8046     C
O       0.7648   0.2352     0.25     O
O       0.7648   0.2352     0.75     O
O       0.7648   0.5296     0.25     O
O       0.7648   0.5296     0.75     O
H       0.8024   0.1599   0.3409     H
H       0.8024   0.1599   0.6591     H
H       0.8024   0.6425   0.1591     H
H       0.8024   0.6425   0.8409     H
O       0.8058   0.3862   0.1444     O
O       0.8058   0.3862   0.8556     O
O       0.8058   0.4196   0.3556     O
O       0.8058   0.4196   0.6444     O
H       0.8401   0.1976   0.1591     H
H       0.8401   0.1976   0.8409     H
H       0.8401   0.6425   0.3409     H
H       0.8401   0.6425   0.6591     H
C       0.8541   0.2599   0.1954     C
C       0.8541   0.2599   0.8046     C
C       0.8541   0.5942   0.3046     C
C       0.8541   0.5942   0.6954     C
C       0.8689   0.3524   0.1381     C
C       0.8689   0.3524   0.8619     C
C       0.8689   0.5165   0.3619     C
C       0.8689   0.5165   0.6381     C
H       0.9187   0.2808   0.2312     H
H       0.9187   0.2808   0.7688     H
H       0.9187   0.6379   0.2688     H
H       0.9187   0.6379   0.7312     H
O       0.9467   0.3865   0.0899     O
O       0.9467   0.3865   0.9101     O
O       0.9467   0.5602   0.4101     O
O       0.9467   0.5602   0.5899     O
