data_I
_chemical_name_common  '/home/zhangsd/repos/MofS-CGCNN/ML/data/TSD/clean_cifs/WICQOP_clean'
_cell_length_a 24.00000
_cell_length_b 15.52200
_cell_length_c 16.52300
_cell_angle_alpha 90.00000
_cell_angle_beta  133.51700
_cell_angle_gamma 90.00000
_space_group_name_H-M_alt      'P 1'


loop_
_space_group_symop_operation_xyz
  'x, y, z' 

loop_
_atom_site_label
_atom_site_fract_x
_atom_site_fract_y
_atom_site_fract_z
_atom_site_type_symbol
H        0.004    0.161    0.593     H
H        0.004    0.839    0.093     H
H       0.0092   0.3898   0.0486     H
H       0.0092   0.6102   0.5486     H
H       0.0199   0.2945   0.2958     H
H       0.0199   0.7055   0.7958     H
N       0.0312   0.1866   0.6591     N
N       0.0312   0.8134   0.1591     N
H       0.0339   0.2665   0.8061     H
H       0.0339   0.7335   0.3061     H
N       0.0425   0.1905   0.1901     N
N       0.0425   0.8095   0.6901     N
H        0.056    0.165    0.157     H
H        0.056    0.835    0.657     H
C       0.0625   0.3089   0.3072     C
C       0.0625   0.6911   0.8072     C
H       0.0676   0.3935   0.6043     H
H       0.0676   0.6065   0.1043     H
C       0.0819   0.2611   0.2589     C
C       0.0819   0.7389   0.7589     C
H       0.0836   0.0383   0.6764     H
H       0.0836   0.9617   0.1764     H
H       0.0842    0.273    0.546     H
H       0.0842    0.727    0.046     H
H       0.0891   0.1271   0.4843     H
H       0.0891   0.8729   0.9843     H
H       0.0944   0.4108   0.4043     H
H       0.0944   0.5892   0.9043     H
C       0.0989   0.1499   0.7545     C
C       0.0989   0.8501   0.2545     C
C        0.108   0.3787   0.3726     C
C        0.108   0.6213   0.8726     C
H       0.1099   0.4702   0.7553     H
H       0.1099   0.5298   0.2553     H
C       0.1163   0.3831    0.674     C
C       0.1163   0.6169    0.174     C
C       0.1167   0.0668   0.7446     C
C       0.1167   0.9332   0.2446     C
N       0.1348   0.2696   0.5974     N
N       0.1348   0.7304   0.0974     N
C       0.1397   0.1398   0.5216     C
C       0.1397   0.8602   0.0216     C
C       0.1426   0.4296   0.7651     C
C       0.1426   0.5704   0.2651     C
H       0.1436   0.2464   0.8662     H
H       0.1436   0.7536   0.3662     H
C       0.1467   0.2861   0.2793     C
C       0.1467   0.7139   0.7793     C
C       0.1516   0.1903   0.8564     C
C       0.1516   0.8097   0.3564     C
H       0.1575   0.0371   0.4709     H
H       0.1575   0.9629   0.9709     H
H       0.1615   0.2554   0.2483     H
H       0.1615   0.7446   0.7483     H
C       0.1635   0.3194   0.6871     C
C       0.1635   0.6806   0.1871     C
N       0.1703   0.4031   0.3935     N
N       0.1703   0.5969   0.8935     N
C       0.1753   0.2134   0.5862     C
C       0.1753   0.7866   0.0862     C
C       0.1818   0.0863   0.5146     C
C       0.1818   0.9137   0.0146     C
C       0.1826   0.0284   0.8353     C
C       0.1826   0.9716   0.3353     C
C        0.188   0.3564   0.3455     C
C        0.188   0.6436   0.8455     C
H       0.1936   0.0263   0.3264     H
H       0.1936   0.9737   0.8264     H
N       0.2129     0.42   0.8676     N
N       0.2129     0.58   0.3676     N
C       0.2165   0.1456   0.9429     C
C       0.2165   0.8544   0.4429     C
H       0.2282   0.3161   0.0697     H
H       0.2282   0.6839   0.5697     H
H       0.2306   0.3727   0.3578     H
H       0.2306   0.6273   0.8578     H
N       0.2324    0.064   0.9361     N
N       0.2324    0.936   0.4361     N
C       0.2366   0.3089   0.7926     C
C       0.2366   0.6911   0.2926     C
Co      0.2409  0.49134  0.00112    Co
Co      0.2409  0.50866  0.50112    Co
C       0.2507   0.2313   0.6365     C
C       0.2507   0.7687   0.1365     C
H       0.2521   0.1736   0.0113     H
H       0.2521   0.8264   0.5113     H
N       0.2556   0.0992   0.5658     N
N       0.2556   0.9008   0.0658     N
C       0.2583   0.3609    0.879     C
C       0.2583   0.6391    0.379     C
H       0.2702    0.268   0.8051     H
H       0.2702    0.732   0.3051     H
H       0.2755   0.2813   0.6779     H
H       0.2755   0.7187   0.1779     H
H       0.2757   0.1579   0.4358     H
H       0.2757   0.8421   0.9358     H
C       0.2802   0.3264   0.1306     C
C       0.2802   0.6736   0.6306     C
C       0.2871   0.1732   0.6231     C
C       0.2871   0.8268   0.1231     C
H        0.292   0.2306    0.223     H
H        0.292   0.7694    0.723     H
H       0.3076   0.3541   0.9491     H
H       0.3076   0.6459   0.4491     H
N       0.3137   0.3925   0.1231     N
N       0.3137   0.6075   0.6231     N
H       0.3139   0.2476    0.373     H
H       0.3139   0.7524    0.873     H
C       0.3181   0.2741   0.2219     C
C       0.3181   0.7259   0.7219     C
C       0.3228   0.1479    0.458     C
C       0.3228   0.8521    0.958     C
Co     0.32874  0.00102  0.08671    Co
Co     0.32874  0.99898  0.58671    Co
H       0.3367    0.186   0.6558     H
H       0.3367    0.814   0.1558     H
N       0.3401   0.4407   0.5562     N
N       0.3401   0.5593   0.0562     N
C       0.3448   0.2012   0.4182     C
C       0.3448   0.7988   0.9182     C
H       0.3503   0.3754   0.6668     H
H       0.3503   0.6246   0.1668     H
H       0.3537   0.4888   0.4614     H
H       0.3537   0.5112   0.9614     H
H       0.3565   0.1126   0.9616     H
H       0.3565   0.8874   0.4616     H
N       0.3658   0.0818   0.5276     N
N       0.3658   0.9182   0.0276     N
C       0.3738   0.3848   0.6405     C
C       0.3738   0.6152   0.1405     C
C       0.3755   0.4506   0.5199     C
C       0.3755   0.5494   0.0199     C
C       0.3893   0.4018   0.2092     C
C       0.3893   0.5982   0.7092     C
C       0.3927   0.1373   0.0321     C
C       0.3927   0.8627   0.5321     C
C       0.3962   0.2868   0.3129     C
C       0.3962   0.7132   0.8129     C
N       0.4004   0.1036   0.1153     N
N       0.4004   0.8964   0.6153     N
C       0.4137   0.1861   0.4453     C
C       0.4137   0.8139   0.9453     C
H       0.4144   0.4444   0.2048     H
H       0.4144   0.5556   0.7048     H
H       0.4257   0.2257   0.9843     H
H       0.4257   0.7743   0.4843     H
C       0.4327   0.3515   0.3047     C
C       0.4327   0.6485   0.8047     C
C       0.4345   0.2048    0.045     C
C       0.4345   0.7952    0.545     C
C       0.4347    0.072     0.56     C
C       0.4347    0.928     0.06     C
N       0.4402    0.236   0.4078     N
N       0.4402    0.764   0.9078     N
C       0.4414   0.3396    0.692     C
C       0.4414   0.6604    0.192     C
C       0.4417   0.4085   0.5627     C
C       0.4417   0.5915   0.0627     C
C       0.4538    0.141   0.2142     C
C       0.4538    0.859   0.7142     C
C       0.4611   0.1206   0.5229     C
C       0.4611   0.8794   0.0229     C
H       0.4614   0.1193   0.2737     H
H       0.4614   0.8807   0.7737     H
H       0.4633   0.3038   0.7527     H
H       0.4633   0.6962   0.2527     H
H       0.4634   0.4193   0.5339     H
H       0.4634   0.5807   0.0339     H
H       0.4668   0.0289   0.6117     H
H       0.4668   0.9711   0.1117     H
C       0.4756   0.3496   0.6492     C
C       0.4756   0.6504   0.1492     C
H       0.4853   0.3606   0.3625     H
H       0.4853   0.6394   0.8625     H
H       0.4903    0.237     0.45     H
H       0.4903    0.763     0.95     H
C       0.4908   0.2425   0.1505     C
C       0.4908   0.7575   0.6505     C
C       0.4985   0.2095    0.235     C
C       0.4985   0.7905    0.735     C
H        0.504    0.339    0.093     H
H        0.504    0.661    0.593     H
H       0.5092   0.1102   0.5486     H
H       0.5092   0.8898   0.0486     H
H       0.5199   0.2055   0.7958     H
H       0.5199   0.7945   0.2958     H
N       0.5312   0.3134   0.1591     N
N       0.5312   0.6866   0.6591     N
H       0.5339   0.2335   0.3061     H
H       0.5339   0.7665   0.8061     H
N       0.5425   0.3095   0.6901     N
N       0.5425   0.6905   0.1901     N
H        0.556    0.335    0.657     H
H        0.556    0.665    0.157     H
C       0.5625   0.1911   0.8072     C
C       0.5625   0.8089   0.3072     C
H       0.5676   0.1065   0.1043     H
H       0.5676   0.8935   0.6043     H
C       0.5819   0.2389   0.7589     C
C       0.5819   0.7611   0.2589     C
H       0.5836   0.4617   0.1764     H
H       0.5836   0.5383   0.6764     H
H       0.5842    0.227    0.046     H
H       0.5842    0.773    0.546     H
H       0.5891   0.3729   0.9843     H
H       0.5891   0.6271   0.4843     H
H       0.5944   0.0892   0.9043     H
H       0.5944   0.9108   0.4043     H
C       0.5989   0.3501   0.2545     C
C       0.5989   0.6499   0.7545     C
C        0.608   0.1213   0.8726     C
C        0.608   0.8787   0.3726     C
H       0.6099   0.0298   0.2553     H
H       0.6099   0.9702   0.7553     H
C       0.6163   0.1169    0.174     C
C       0.6163   0.8831    0.674     C
C       0.6167   0.4332   0.2446     C
C       0.6167   0.5668   0.7446     C
N       0.6348   0.2304   0.0974     N
N       0.6348   0.7696   0.5974     N
C       0.6397   0.3602   0.0216     C
C       0.6397   0.6398   0.5216     C
C       0.6426   0.0704   0.2651     C
C       0.6426   0.9296   0.7651     C
H       0.6436   0.2536   0.3662     H
H       0.6436   0.7464   0.8662     H
C       0.6467   0.2139   0.7793     C
C       0.6467   0.7861   0.2793     C
C       0.6516   0.3097   0.3564     C
C       0.6516   0.6903   0.8564     C
H       0.6575   0.4629   0.9709     H
H       0.6575   0.5371   0.4709     H
H       0.6615   0.2446   0.7483     H
H       0.6615   0.7554   0.2483     H
C       0.6635   0.1806   0.1871     C
C       0.6635   0.8194   0.6871     C
N       0.6703   0.0969   0.8935     N
N       0.6703   0.9031   0.3935     N
C       0.6753   0.2866   0.0862     C
C       0.6753   0.7134   0.5862     C
C       0.6818   0.4137   0.0146     C
C       0.6818   0.5863   0.5146     C
C       0.6826   0.4716   0.3353     C
C       0.6826   0.5284   0.8353     C
C        0.688   0.1436   0.8455     C
C        0.688   0.8564   0.3455     C
H       0.6936   0.4737   0.8264     H
H       0.6936   0.5263   0.3264     H
N       0.7129     0.08   0.3676     N
N       0.7129     0.92   0.8676     N
C       0.7165   0.3544   0.4429     C
C       0.7165   0.6456   0.9429     C
H       0.7282   0.1839   0.5697     H
H       0.7282   0.8161   0.0697     H
H       0.7306   0.1273   0.8578     H
H       0.7306   0.8727   0.3578     H
N       0.7324    0.436   0.4361     N
N       0.7324    0.564   0.9361     N
C       0.7366   0.1911   0.2926     C
C       0.7366   0.8089   0.7926     C
Co      0.7409  0.00866  0.50112    Co
Co      0.7409  0.99134  0.00112    Co
C       0.7507   0.2687   0.1365     C
C       0.7507   0.7313   0.6365     C
H       0.7521   0.3264   0.5113     H
H       0.7521   0.6736   0.0113     H
N       0.7556   0.4008   0.0658     N
N       0.7556   0.5992   0.5658     N
C       0.7583   0.1391    0.379     C
C       0.7583   0.8609    0.879     C
H       0.7702    0.232   0.3051     H
H       0.7702    0.768   0.8051     H
H       0.7755   0.2187   0.1779     H
H       0.7755   0.7813   0.6779     H
H       0.7757   0.3421   0.9358     H
H       0.7757   0.6579   0.4358     H
C       0.7802   0.1736   0.6306     C
C       0.7802   0.8264   0.1306     C
C       0.7871   0.3268   0.1231     C
C       0.7871   0.6732   0.6231     C
H        0.792   0.2694    0.723     H
H        0.792   0.7306    0.223     H
H       0.8076   0.1459   0.4491     H
H       0.8076   0.8541   0.9491     H
N       0.8137   0.1075   0.6231     N
N       0.8137   0.8925   0.1231     N
H       0.8139   0.2524    0.873     H
H       0.8139   0.7476    0.373     H
C       0.8181   0.2259   0.7219     C
C       0.8181   0.7741   0.2219     C
C       0.8228   0.3521    0.958     C
C       0.8228   0.6479    0.458     C
Co     0.82874  0.49898  0.58671    Co
Co     0.82874  0.50102  0.08671    Co
H       0.8367    0.314   0.1558     H
H       0.8367    0.686   0.6558     H
N       0.8401   0.0593   0.0562     N
N       0.8401   0.9407   0.5562     N
C       0.8448   0.2988   0.9182     C
C       0.8448   0.7012   0.4182     C
H       0.8503   0.1246   0.1668     H
H       0.8503   0.8754   0.6668     H
H       0.8537   0.0112   0.9614     H
H       0.8537   0.9888   0.4614     H
H       0.8565   0.3874   0.4616     H
H       0.8565   0.6126   0.9616     H
N       0.8658   0.4182   0.0276     N
N       0.8658   0.5818   0.5276     N
C       0.8738   0.1152   0.1405     C
C       0.8738   0.8848   0.6405     C
C       0.8755   0.0494   0.0199     C
C       0.8755   0.9506   0.5199     C
C       0.8893   0.0982   0.7092     C
C       0.8893   0.9018   0.2092     C
C       0.8927   0.3627   0.5321     C
C       0.8927   0.6373   0.0321     C
C       0.8962   0.2132   0.8129     C
C       0.8962   0.7868   0.3129     C
N       0.9004   0.3964   0.6153     N
N       0.9004   0.6036   0.1153     N
C       0.9137   0.3139   0.9453     C
C       0.9137   0.6861   0.4453     C
H       0.9144   0.0556   0.7048     H
H       0.9144   0.9444   0.2048     H
H       0.9257   0.2743   0.4843     H
H       0.9257   0.7257   0.9843     H
C       0.9327   0.1485   0.8047     C
C       0.9327   0.8515   0.3047     C
C       0.9345   0.2952    0.545     C
C       0.9345   0.7048    0.045     C
C       0.9347    0.428     0.06     C
C       0.9347    0.572     0.56     C
N       0.9402    0.264   0.9078     N
N       0.9402    0.736   0.4078     N
C       0.9414   0.1604    0.192     C
C       0.9414   0.8396    0.692     C
C       0.9417   0.0915   0.0627     C
C       0.9417   0.9085   0.5627     C
C       0.9538    0.359   0.7142     C
C       0.9538    0.641   0.2142     C
C       0.9611   0.3794   0.0229     C
C       0.9611   0.6206   0.5229     C
H       0.9614   0.3807   0.7737     H
H       0.9614   0.6193   0.2737     H
H       0.9633   0.1962   0.2527     H
H       0.9633   0.8038   0.7527     H
H       0.9634   0.0807   0.0339     H
H       0.9634   0.9193   0.5339     H
H       0.9668   0.4711   0.1117     H
H       0.9668   0.5289   0.6117     H
C       0.9756   0.1504   0.1492     C
C       0.9756   0.8496   0.6492     C
H       0.9853   0.1394   0.8625     H
H       0.9853   0.8606   0.3625     H
H       0.9903    0.263     0.95     H
H       0.9903    0.737     0.45     H
C       0.9908   0.2575   0.6505     C
C       0.9908   0.7425   0.1505     C
C       0.9985   0.2905    0.735     C
C       0.9985   0.7095    0.235     C
