data_I
_chemical_name_common  '/home/zhangsd/repos/MofS-CGCNN/ML/data/TSD/clean_cifs/WIDWOX_clean'
_cell_length_a 24.36870
_cell_length_b 24.36870
_cell_length_c 47.32200
_cell_angle_alpha 90.00000
_cell_angle_beta  90.00000
_cell_angle_gamma 90.00000
_space_group_name_H-M_alt      'P 1'


loop_
_space_group_symop_operation_xyz
  'x, y, z' 

loop_
_atom_site_label
_atom_site_fract_x
_atom_site_fract_y
_atom_site_fract_z
_atom_site_type_symbol
C       0.0003   0.8835  0.84916     C
C       0.0004   0.1323   0.8063     C
N       0.0008   0.1707  0.78144     N
C       0.0016   0.3844   0.0055     C
C       0.0017   0.6015  0.62104     C
H       0.0035   0.0691   0.2997     H
Ag     0.00353  0.31087  0.21287    Ag
Ni     0.00407  0.74293  0.79525    Ni
C       0.0043   0.8582   0.5689     C
N       0.0055   0.4876  0.16503     N
H       0.0056   0.5677   0.7492     H
H       0.0059   0.4215    0.999     H
C        0.007   0.4036   0.3052     C
C       0.0087    0.101  0.28805     C
H       0.0093   0.9684   0.2809     H
H       0.0102   0.3369   0.4605     H
C       0.0112   0.6522  0.48084     C
H       0.0117   0.7459   0.6004     H
H       0.0118    0.153    0.823     H
N       0.0124   0.5055  0.41503     N
C       0.0128   0.1495  0.09913     C
H       0.0129   0.3757   0.3192     H
O        0.013    0.324  0.70806     O
H        0.013   0.3636   0.1155     H
H       0.0131   0.5665   0.8134     H
S      0.01334  0.32247   0.2654     S
H       0.0135    0.276   0.0004     H
H       0.0145   0.0332    0.833     H
N       0.0188   0.7958  0.82435     N
C       0.0195   0.7114   0.4915     C
S      0.01955  0.78565  0.69756     S
H       0.0197   0.0737   0.7609     H
H       0.0209    0.246   0.0722     H
O       0.0214   0.5722  0.88042     O
C       0.0219   0.4135   0.3928     C
C       0.0234   0.6052  0.65105     C
H       0.0238   0.0902   0.2702     H
C       0.0241   0.2494   0.0924     C
C       0.0243   0.0507   0.7772     C
H       0.0246   0.3243   0.9429     H
H       0.0247   0.0531   0.2263     H
C       0.0251   0.6201  0.78109     C
H       0.0252   0.0762   0.1753     H
C       0.0253   0.1641  0.33006     C
H       0.0259   0.8811   0.7851     H
H       0.0266   0.4258   0.1201     H
Ni     0.02693  0.81556  0.65471    Ni
H       0.0279   0.6173   0.5189     H
H       0.0281   0.7349   0.4758     H
N       0.0286   0.4066  0.94434     N
C       0.0286   0.6662   0.9636     C
O       0.0308   0.1212  0.05239     O
H       0.0311   0.5916   0.6085     H
C       0.0314   0.3525   0.9572     C
H       0.0316   0.9907   0.2191     H
H       0.0332   0.0145    0.167     H
H       0.0332   0.1167   0.1049     H
S       0.0334  0.37577  0.17521     S
O       0.0349   0.0894   0.3625     O
H        0.035   0.3724   0.0143     H
N       0.0371   0.8465  0.61743     N
H        0.038   0.6493   0.9813     H
H       0.0387   0.7043   0.9641     H
C       0.0388   0.5807  0.75778     C
C       0.0392   0.0859  0.80247     C
O       0.0411   0.7508   0.3277     O
H       0.0418   0.4166   0.2984     H
C       0.0423   0.5489  0.66188     C
H       0.0431   0.6693   0.3632     H
N       0.0435    0.239  0.74053     N
O       0.0442   0.3681  0.39161     O
Ni     0.04422  0.56512  0.43659    Ni
O       0.0461   0.8709   0.9933     O
H       0.0465   0.2806   0.0969     H
C        0.048   0.0518  0.82824     C
C       0.0486    0.141  0.30293     C
C       0.0489   0.4577  0.41188     C
H       0.0492   0.7122   0.5048     H
C       0.0497   0.1991  0.10402     C
O       0.0502   0.8886   0.8496     O
H       0.0503    0.441   0.5154     H
H       0.0504   0.6838   0.6473     H
C       0.0507   0.0243   0.2228     C
O       0.0515   0.8405  0.56093     O
C       0.0518    0.048  0.17176     C
H       0.0531   0.0247   0.7737     H
H       0.0543   0.4416   0.4307     H
H       0.0548   0.1823   0.3406     H
O       0.0556   0.9108   0.0362     O
S      0.05595   0.2059  0.14264     S
H       0.0563   0.8729   0.7332     H
C       0.0564    0.302   0.6992     C
Ag     0.05688  0.17482  0.22745    Ag
S      0.05738  0.20134   0.2794     S
H       0.0584   0.5543   0.6807     H
H       0.0588   0.0749   0.8437     H
H        0.059   0.5503   0.7654     H
H       0.0592   0.6963   0.3921     H
C       0.0603   0.8864   0.3108     C
H       0.0607   0.5991   0.7438     H
C       0.0623   0.6348   0.9373     C
N       0.0641   0.6993  0.80904     N
Ni     0.06512  0.45578  0.18659    Ni
C       0.0662   0.6494   0.6529     C
H       0.0665   0.4869   0.5634     H
O       0.0667   0.5871  0.93706     O
H       0.0677   0.4944   0.4992     H
O        0.069   0.3675  0.55245     O
H       0.0691   0.0035   0.7003     H
C       0.0704   0.6707   0.3778     C
O       0.0711   0.3416   0.8903     O
H       0.0712   0.2952   0.8403     H
O       0.0714   0.8995    0.337     O
O       0.0722   0.4786  0.63042     O
C       0.0735   0.8859   0.0142     C
H       0.0737   0.0197   0.2391     H
Ni     0.07376  0.18774  0.76773    Ni
H       0.0741   0.7815   0.7512     H
H       0.0742   0.5266   0.3701     H
H       0.0745   0.8889   0.7025     H
H       0.0746   0.6349   0.3861     H
H       0.0749   0.0588   0.1563     H
S       0.0761  0.62913  0.46366     S
H       0.0762   0.0252   0.8247     H
H       0.0785   0.5059    0.249     H
C       0.0786   0.6486  0.79301     C
H       0.0792    0.652    0.672     H
C       0.0807   0.4612  0.50778     C
O       0.0812   0.3125   0.6773     O
La     0.08148  0.37847  0.63724    La
C       0.0819   0.2557  0.71938     C
H       0.0829   0.0994   0.6804     H
H       0.0834   0.5418   0.5484     H
H       0.0836   0.7027   0.5614     H
C       0.0839   0.8678  0.71898     C
C       0.0859   0.0392  0.19753     C
H       0.0859   0.8439   0.4805     H
O       0.0863   0.6684   0.9145     O
C       0.0865   0.5219   0.6428     C
O       0.0871   0.4333  0.68706     O
C       0.0871   0.8075  0.71115     C
H       0.0881   0.2338   0.8451     H
H       0.0883   0.7795   0.0306     H
O       0.0891   0.8906   0.2885     O
C       0.0892   0.3441   0.9703     C
O       0.0892   0.9444   0.4638     O
O       0.0894   0.0349   0.6375     O
H       0.0898   0.2236   0.7076     H
H       0.0902   0.0238   0.7298     H
C       0.0909   0.7505   0.3265     C
H       0.0916   0.4689   0.3585     H
Ag     0.09285  0.29808  0.15645    Ag
H       0.0932   0.6392   0.5595     H
N       0.0934   0.5286  0.19434     N
H       0.0944   0.6686   0.5889     H
H       0.0962   0.6405   0.6406     H
C       0.0964    0.507   0.5552     C
C       0.0986   0.2679   0.8365     C
H       0.0991   0.4393   0.4938     H
H       0.0994   0.0829   0.3196     H
H       0.0996   0.3192   0.7641     H
O       0.1005   0.9286    0.163     O
C        0.101   0.0087  0.71195     C
C       0.1014   0.7754  0.73699     C
C       0.1015   0.4983  0.37104     C
H       0.1018   0.3127   0.3184     H
H       0.1021   0.2628   0.8165     H
H       0.1026   0.1183   0.7104     H
H       0.1026   0.6584   0.7772     H
H       0.1029   0.7371   0.7324     H
C       0.1033   0.6722   0.5693     C
N       0.1034   0.8276  0.66133     N
C       0.1036   0.1142   0.3075     C
S      0.10465  0.12083  0.79345     S
C       0.1052   0.4766  0.40105     C
H       0.1055   0.1857   0.0722     H
O        0.107   0.3004   0.9748     O
C       0.1073   0.1895   0.0924     C
Ag     0.10745  0.35251  0.24987    Ag
O       0.1085   0.6185  0.83878     O
C       0.1087   0.3894   0.5635     C
H       0.1087   0.7732   0.3684     H
O       0.1094   0.9109   0.2115     O
C       0.1106   0.6087   0.8135     C
H       0.1111   0.9255   0.7975     H
O       0.1114   0.9498   0.6504     O
H        0.113   0.3493   0.1013     H
O       0.1135   0.6494  0.14559     O
H       0.1135   0.8498    0.069     H
C       0.1136   0.9397   0.1892     C
C       0.1141   0.9265   0.4858     C
C       0.1142   0.1036   0.6925     C
O       0.1148   0.6169    0.223     O
O       0.1154    0.755   0.3042     O
C       0.1156   0.5016   0.2555     C
C       0.1165   0.9997  0.65084     C
H       0.1167   0.0332   0.8951     H
O       0.1169   0.3852    0.973     O
H       0.1173   0.4721   0.2689     H
H       0.1183   0.1026   0.2896     H
O       0.1185   0.3915  0.58878     O
H       0.1187   0.3566    0.739     H
H       0.1188   0.8798   0.7261     H
H       0.1189   0.9741   0.7149     H
H       0.1199    0.646   0.3277     H
C       0.1201   0.4749  0.53109     C
H       0.1202   0.8812   0.7739     H
C       0.1203   0.8611   0.4865     C
S      0.12083  0.10465  0.20655     S
O       0.1212   0.0308  0.94761     O
La     0.12153  0.58148  0.88724    La
H       0.1217   0.8288   0.4315     H
H       0.1222   0.1566   0.1004     H
C       0.1225   0.3454   0.8899     C
C       0.1239   0.6887  0.36544     C
S      0.12423   0.5334  0.42521     S
H       0.1243   0.5129   0.5692     H
C        0.125   0.7486   0.3543     C
C       0.1255   0.7993  0.68707     C
O       0.1256    0.767  0.61482     O
C       0.1266   0.7767   0.0261     C
H        0.127   0.7599    0.683     H
H       0.1271   0.9437   0.7668     H
H       0.1276    0.535   0.2643     H
H       0.1283     0.14   0.3161     H
C       0.1283   0.3258  0.75063     C
O       0.1291   0.9539   0.5067     O
S      0.12913   0.4239  0.21366     S
Ag      0.1297  0.70674  0.44115    Ag
H       0.1303   0.2201   0.0971     H
H       0.1308   0.7686   0.0063     H
H       0.1314   0.3112   0.3479     H
O       0.1319   0.5442  0.64161     O
C       0.1322   0.9161  0.78102     C
C       0.1323   0.0004   0.1937     C
N       0.1324   0.8462  0.51635     N
O       0.1325    0.569  0.80245     O
H       0.1326    0.644   0.0876     H
C       0.1348   0.4377   0.6873     C
H       0.1349   0.4254   0.1361     H
C        0.135   0.3028  0.32814     C
C       0.1359    0.275  0.73208     C
H       0.1364    0.513   0.3655     H
H       0.1365   0.7871   0.7439     H
O       0.1371   0.7986  0.81571     O
H       0.1377   0.2618   0.8891     H
C       0.1389   0.8797   0.0135     C
H       0.1392   0.4068   0.3095     H
Ag      0.1397   0.1603  0.16268    Ag
H         0.14   0.1283   0.6839     H
H       0.1405   0.4038   0.3906     H
C        0.141   0.0486  0.69707     C
H       0.1415   0.2642   0.3259     H
C       0.1418   0.9957   0.9311     C
H       0.1429   0.7479   0.0371     H
H       0.1434   0.6187    0.989     H
H        0.144   0.3674   0.8376     H
C       0.1457   0.6486    0.343     C
H        0.146   0.3801   0.0777     H
Ag     0.14749  0.60745  0.49987    Ag
C       0.1475   0.5314   0.2072     C
C       0.1486   0.3543    0.093     C
C       0.1486   0.4214  0.54301     C
H       0.1493    0.462   0.7313     H
O       0.1494   0.3865  0.89559     O
C       0.1494   0.4338   0.4029     C
C       0.1495   0.0128  0.90087     C
H         0.15   0.7058   0.0901     H
H       0.1502   0.8865    0.431     H
H       0.1507    0.613   0.3513     H
C       0.1515   0.8453   0.0641     C
H        0.152   0.4208    0.422     H
C       0.1522   0.4888  0.23084     C
H        0.153   0.0118    0.177     H
C       0.1532   0.2865  0.84859     C
N       0.1535   0.9629  0.88257     N
N       0.1538   0.8676  0.98365     N
S      0.15451  0.21651  0.75529     S
C       0.1546   0.6225   0.1399     C
C       0.1547   0.2941  0.88032     C
C       0.1547   0.8485   0.4359     C
Ag     0.15584  0.22204  0.26866    Ag
C       0.1559   0.5892   0.2203     C
H       0.1561   0.9141   0.0195     H
C       0.1564   0.8335   0.0331     C
H       0.1566   0.1222   0.8996     H
N       0.1576   0.7833  0.56148     N
H       0.1584   0.3974   0.5272     H
O       0.1584   0.5711   0.1403     O
O       0.1595   0.9485  0.93907     O
Ag      0.1603   0.1397  0.83732    Ag
Ni     0.16095  0.77355  0.52076    Ni
C       0.1611   0.6702   0.0836     C
H       0.1617   0.3198   0.0858     H
H       0.1619   0.3335   0.7604     H
H       0.1631   0.5102   0.7105     H
C       0.1641   0.0253  0.66994     C
C       0.1658    0.682  0.56604     C
C       0.1662   0.4714   0.7136     C
H       0.1665   0.6619   0.0104     H
C       0.1665   0.8436   0.4669     C
H       0.1666   0.8152   0.0747     H
H       0.1674   0.6714   0.0636     H
O       0.1684   0.4137   0.6645     O
H       0.1686   0.4056   0.3389     H
H       0.1693   0.4569   0.1132     H
C       0.1702   0.3389   0.8336     C
N       0.1707   0.0008  0.21856     N
C       0.1707   0.4296   0.1278     C
C       0.1707   0.7453   0.6093     C
H       0.1712   0.8783   0.0685     H
H       0.1714   0.3326   0.8136     H
C       0.1722   0.3967   0.3193     C
N       0.1724   0.8966  0.83867     N
H       0.1726   0.3116   0.6979     H
C       0.1742   0.6283  0.00063     C
Ag     0.17482  0.05688  0.77255    Ag
S      0.17549  0.77081  0.47583     S
H       0.1757   0.5246   0.1929     H
S      0.17599  0.69066  0.39416     S
O        0.176    0.513  0.95806     O
S      0.17753  0.51334   0.5154     S
H       0.1802   0.6617   0.3358     H
C       0.1806   0.8143  0.80705     C
H       0.1808   0.5996   0.0141     H
C       0.1813   0.2815  0.71024     C
C        0.182   0.3342  0.31604     C
H       0.1823   0.0548   0.6594     H
S      0.18271  0.68855  0.52777     S
N       0.1831   0.7657  0.34837     N
C       0.1832   0.7383  0.57789     C
H       0.1838   0.4496   0.3973     H
H       0.1844   0.2484   0.6994     H
Ni     0.18444  0.97307  0.84529    Ni
H       0.1848   0.8334   0.4253     H
H       0.1857   0.1055   0.9278     H
C       0.1857   0.8194  0.69295     C
H       0.1873   0.6018   0.5684     H
O       0.1875   0.5812   0.9273     O
Ni     0.18774  0.07376  0.23227    Ni
H       0.1884   0.6726   0.9479     H
S      0.18855  0.31729  0.27777     S
C       0.1887   0.3761  0.11544     C
H       0.1888   0.6314   0.5979     H
Ag     0.18913  0.50353  0.46287    Ag
C       0.1895   0.1073   0.9076     C
S      0.19066  0.32401  0.14416     S
C       0.1925   0.9129  0.78885     C
H       0.1963   0.4408   0.1421     H
C       0.1972    0.635  0.57814     C
C        0.198   0.5564   0.9492     C
C       0.1991   0.0497  0.89598     C
N       0.1993   0.4359  0.55904     N
O       0.1996    0.607   0.2248     O
C       0.2007   0.8745  0.81293     C
S      0.20134  0.05738   0.7206     S
O       0.2014   0.8629  0.68429     O
Ag     0.20192  0.59285  0.40645    Ag
H       0.2027   0.4164   0.3114     H
N       0.2028   0.7127  0.14012     N
O       0.2032   0.7233  0.62615     O
S      0.20376  0.23224  0.84056     S
N       0.2042   0.9812  0.67565     N
H       0.2043   0.4613   0.7141     H
H       0.2048   0.5712   0.0903     H
H       0.2058     0.35   0.8401     H
S       0.2059  0.05595  0.85736     S
C       0.2059   0.6547  0.13032     C
Ag     0.20674   0.3703  0.19115    Ag
H       0.2113   0.7154   0.9697     H
C       0.2114   0.4805   0.2415     C
H       0.2122   0.4508   0.2548     H
N       0.2127   0.2972  0.89012     N
H       0.2129   0.8635   0.7561     H
O       0.2134   0.7843  0.70622     O
C       0.2135   0.6532  0.09859     C
S      0.21435  0.98045  0.80244     S
H       0.2154   0.2887   0.7197     H
O       0.2157   0.7866  0.79378     O
S      0.21651  0.15451  0.24471     S
N       0.2167   0.8424  0.93852     N
C       0.2185   0.6813  0.96024     C
H       0.2185   0.9259   0.7488     H
H       0.2194   0.5465   0.3469     H
H       0.2201   0.1303   0.9029     H
H       0.2205   0.9117   0.4694     H
Ag     0.22204  0.15584  0.73134    Ag
H        0.223   0.7414   0.5755     H
O       0.2233   0.2968  0.37615     O
C       0.2233   0.8734   0.4739     C
H       0.2236   0.0898   0.2924     H
H        0.224   0.5135   0.2504     H
C       0.2246   0.8986  0.76301     C
C        0.225   0.6359  0.98208     C
Ni     0.22645  0.83905  0.97924    Ni
H       0.2268   0.8913   0.1316     H
S      0.22919  0.82451  0.02417     S
H       0.2314   0.8692   0.4937     H
C       0.2321   0.5986   0.0865     C
S      0.23224  0.20376  0.15944     S
Ag     0.23242  0.23702  0.78945    Ag
O        0.233   0.8744  0.88518     O
H       0.2338   0.0881   0.1549     H
N       0.2343   0.8169  0.15163     N
H       0.2349   0.4719   0.2258     H
Ni     0.23553  0.74759   0.3771    Ni
H       0.2358   0.6415   0.5759     H
Ag     0.23702  0.23242  0.21055    Ag
H       0.2371   0.3971   0.4824     H
H       0.2372   0.6021   0.0665     H
H       0.2382   0.6377   0.1391     H
C       0.2383   0.3168  0.32789     C
N        0.239   0.0435  0.25947     N
H       0.2401    0.873    0.817     H
H       0.2414    0.277   0.3255     H
Ni     0.24293  0.49593  0.54525    Ni
C       0.2443   0.5819  0.96938     C
O        0.245   0.8846   0.1958     O
C       0.2453   0.3293   0.3593     C
H       0.2459   0.4883   0.3504     H
H        0.246   0.0209   0.9278     H
Ni     0.24759  0.26447   0.1271    Ni
H       0.2479   0.3571   0.7871     H
H       0.2484   0.1844   0.3006     H
C       0.2486    0.375   0.1043     C
O       0.2492   0.9589   0.1723     O
C       0.2494   0.0241   0.9076     C
C       0.2495   0.9091   0.1735     C
C       0.2505   0.4091   0.0765     C
C       0.2506   0.5241   0.3424     C
O       0.2508   0.4589   0.0777     O
C       0.2514    0.875   0.1457     C
H       0.2516   0.6844   0.9494     H
H       0.2521   0.8571   0.4629     H
Ni     0.25241  0.76447   0.1229    Ni
H        0.254   0.5209   0.3222     H
H       0.2541   0.9883   0.8996     H
C       0.2547   0.8293   0.8907     C
O        0.255   0.3846   0.0542     O
C       0.2557   0.0819  0.28062     C
Ni     0.25707  0.99593  0.70475    Ni
H       0.2586    0.777   0.9245     H
H       0.2599    0.373    0.433     H
N        0.261   0.5435  0.99053     N
C       0.2617   0.8168  0.92211     C
H       0.2618   0.1377   0.1109     H
H       0.2628   0.1021   0.1835     H
H       0.2629   0.8971   0.7676     H
Ag     0.26298  0.73242  0.03945    Ag
H       0.2642   0.1415   0.6741     H
Ni     0.26447  0.24759   0.8729    Ni
H       0.2651   0.9719   0.0242     H
N       0.2657   0.3169  0.09837     N
H       0.2662   0.5881   0.0951     H
O        0.267   0.3744  0.36482     O
Ag     0.26758  0.73702  0.46055    Ag
S      0.26776  0.70376  0.09056     S
C       0.2679   0.0986   0.1635     C
H       0.2686   0.3692   0.7563     H
S      0.27081  0.32451  0.22583     S
H       0.2732   0.3913   0.1184     H
Ni     0.27355  0.33905  0.27076    Ni
C        0.275   0.1359  0.26792     C
C       0.2754   0.3986  0.48699     C
H        0.276   0.0135   0.9996     H
H       0.2764   0.5898   0.9576     H
C       0.2767   0.3734   0.7761     C
O       0.2767   0.7968  0.87385     O
H        0.277   0.2414   0.6745     H
Ag     0.27796  0.65584  0.51866    Ag
H       0.2795   0.4117   0.7806     H
H       0.2799   0.6303   0.3471     H
H       0.2806   0.0465   0.9031     H
C       0.2815   0.1813  0.28976     C
H       0.2815   0.4259   0.5012     H
N       0.2833   0.3424  0.31148     N
S      0.28349  0.65451  0.00529     S
O       0.2843   0.2866  0.45622     O
H       0.2846   0.7887   0.5303     H
S      0.28565  0.48045  0.44756     S
C       0.2865   0.1532  0.15141     C
O       0.2866   0.2843  0.54378     O
H       0.2871   0.3635   0.4939     H
N       0.2873   0.7972  0.35988     N
H       0.2878   0.9508   0.9952     H
C       0.2886   0.9805   0.0085     C
H       0.2887   0.2154   0.2803     H
Ag     0.29326   0.8703  0.05885    Ag
C       0.2941   0.1547  0.11968     C
S       0.2941  0.55595  0.39264     S
H       0.2942     0.85   0.4099     H
H       0.2952   0.0712   0.1597     H
H       0.2957   0.9613   0.5359     H
N       0.2958   0.4812  0.57435     N
S      0.29624  0.73224  0.40944     S
O       0.2968   0.2233  0.62385     O
N       0.2972   0.2127  0.10988     N
H       0.2973   0.9164   0.9386     H
Ag     0.29808  0.09285  0.84355    Ag
O       0.2986   0.3629  0.56571     O
S      0.29866  0.55738   0.5294     S
C       0.2993   0.3745  0.43707     C
O       0.3004    0.107   0.0252     O
N       0.3007   0.9359  0.69096     N
C       0.3009   0.5497  0.35402     C
C        0.302   0.0564   0.3008     C
C       0.3028    0.135  0.67186     C
H       0.3037   0.9408   0.1079     H
C       0.3075   0.4129  0.46115     C
S      0.30934  0.82401  0.10584     S
C       0.3105   0.6073   0.3424     C
Ag     0.31087  0.00353  0.78713    Ag
H       0.3112   0.1314   0.6521     H
C       0.3113   0.8761  0.13456     C
S      0.31145  0.81729  0.97223     S
H       0.3116   0.1726   0.3021     H
Ni     0.31226  0.57376  0.01773    Ni
O       0.3125   0.0812   0.3227     O
H       0.3127   0.1018   0.6816     H
C       0.3143   0.3194  0.55705     C
H       0.3143   0.6055   0.3222     H
H       0.3152   0.3334   0.8247     H
Ni     0.31556  0.47307  0.40471    Ni
H       0.3156   0.7484   0.5506     H
H       0.3162   0.9496   0.8527     H
C       0.3168   0.2383  0.67211     C
N       0.3169   0.2657  0.90163     N
S      0.31729  0.18855  0.72223     S
H       0.3177   0.5548   0.5906     H
C        0.318   0.8342  0.93396     C
C       0.3187   0.7815  0.53976     C
H       0.3192   0.0996   0.2359     H
C       0.3194   0.3143  0.44295     C
H       0.3198   0.1617   0.9142     H
S      0.32247  0.01334   0.7346     S
O        0.324    0.013  0.29194     O
S      0.32401  0.19066  0.85584     S
H       0.3243   0.0246   0.0571     H
S      0.32451  0.27081  0.77417     S
Ag     0.32518  0.55688  0.47745    Ag
C       0.3258   0.1283  0.24937     C
H       0.3274   0.8116   0.5521     H
N       0.3276   0.3966  0.41133     N
C       0.3278   0.8967   0.9307     C
H       0.3286   0.8326   0.4364     H
H       0.3288   0.3783   0.1815     H
C       0.3293   0.2453   0.6407     C
N       0.3293   0.5008  0.03144     N
C       0.3293   0.9296   0.1222     C
C       0.3298   0.8389   0.4164     C
H       0.3307   0.9569   0.1368     H
H       0.3314   0.9056   0.9111     H
O       0.3316   0.9137   0.5855     O
H       0.3326   0.1714   0.1864     H
H       0.3334   0.3152   0.1753     H
H       0.3335   0.1619   0.2396     H
C       0.3335   0.3436   0.7831     C
C       0.3338   0.9714   0.5364     C
C       0.3342    0.182  0.68396     C
C       0.3359   0.5253  0.58006     C
H       0.3369   0.0102   0.5395     H
H       0.3381   0.8335   0.4896     H
H       0.3383   0.8198   0.1642     H
C       0.3389   0.1702   0.1664     C
Ni     0.33905  0.27355  0.72924    Ni
Ag      0.3397   0.6397  0.41268    Ag
O       0.3405   0.4485  0.31093     O
O       0.3416   0.0711   0.1097     O
H       0.3416   0.8974   0.7228     H
N       0.3424   0.2833  0.68852     N
H       0.3434   0.6222   0.3504     H
C       0.3436   0.3335   0.2169     C
H       0.3439   0.4141   0.2305     H
C       0.3441   0.0892   0.0297     C
Ag     0.34416  0.72204  0.98134    Ag
C       0.3453   0.3485   0.8141     C
C       0.3453   0.7941  0.36968     C
C       0.3454   0.1225   0.1101     C
S      0.34549  0.71651  0.49471     S
N       0.3462   0.3676  0.26635     N
N       0.3465   0.4629  0.36743     N
C       0.3468   0.7865  0.40141     C
H        0.347   0.5118    0.073     H
C       0.3478   0.9888  0.01916     C
H        0.348   0.9208    0.828     H
C       0.3485   0.3453   0.1859     C
H       0.3493    0.113   0.8987     H
H       0.3498   0.3865    0.819     H
H         0.35   0.2058   0.1599     H
C       0.3505   0.5128  0.34913     C
O       0.3506   0.8865  0.35441     O
C       0.3506   0.9338   0.8471     C
H       0.3507    0.962   0.5187     H
C       0.3514   0.8543    0.157     C
C       0.3514   0.9214  0.70699     C
C       0.3525   0.0314   0.0428     C
Ag     0.35251  0.10745  0.75013    Ag
H        0.354   0.8801   0.1723     H
C       0.3543   0.1486    0.907     C
H        0.356   0.8674   0.4124     H
H       0.3566   0.1187    0.261     H
H       0.3571   0.2479   0.2129     H
C       0.3582   0.4957   0.3189     C
H       0.3585   0.7642   0.9241     H
C        0.359   0.5486  0.55293     C
H       0.3595   0.9038   0.8594     H
H         0.36   0.6283   0.5661     H
Ag      0.3603   0.6603  0.08732    Ag
H       0.3608   0.9068   0.9405     H
C       0.3611   0.3797   0.2365     C
H       0.3623   0.7618   0.3609     H
O       0.3629   0.2986  0.43429     O
H       0.3635   0.2871   0.5061     H
H       0.3636    0.013   0.8845     H
C       0.3641    0.775  0.51792     C
C        0.365   0.8028  0.92186     C
H       0.3651   0.9254   0.1139     H
C       0.3652   0.9377   0.5627     C
H       0.3674    0.144   0.1624     H
O       0.3675    0.069  0.44755     O
N       0.3676   0.3462  0.73365     N
C       0.3677   0.5004   0.0563     C
C       0.3678   0.4161  0.46898     C
O       0.3681   0.0442  0.60839     O
H       0.3686   0.8112   0.9021     H
H       0.3692   0.2686   0.2437     H
H       0.3697   0.7201   0.1529     H
Ag      0.3703  0.20674  0.80885    Ag
S      0.37087   0.9239  0.03634     S
O       0.3709   0.4539   0.7433     O
H       0.3717     0.64   0.9339     H
C       0.3717   0.8258  0.49937     C
H       0.3724    0.035   0.9857     H
H       0.3729   0.4437   0.4832     H
H        0.373   0.2599    0.567     H
C       0.3734   0.2767   0.2239     C
O       0.3744    0.267  0.63518     O
C       0.3745   0.2993  0.56293     C
C        0.375   0.2486   0.8957     C
H       0.3757   0.0129   0.6808     H
S      0.37577   0.0334  0.82479     S
C       0.3761   0.1887  0.88456     C
C       0.3775   0.8454   0.3601     C
H       0.3778   0.6566   0.1496     H
H       0.3783   0.3288   0.8185     H
La     0.37847  0.08148  0.36276    La
O       0.3788   0.5308  0.30239     O
S      0.37917  0.60465  0.04345     S
C       0.3797   0.3611   0.7635     C
H       0.3798   0.3812   0.4761     H
C       0.3799   0.9749  0.71891     C
H       0.3801    0.146   0.9223     H
H       0.3811   0.4741   0.5351     H
H       0.3812   0.3798   0.5239     H
H       0.3813   0.8566    0.511     H
O       0.3815   0.8915  0.66122     O
H       0.3817   0.6026   0.9604     H
H       0.3827   0.9721   0.9811     H
O       0.3831   0.8852    0.277     O
H       0.3833   0.5332   0.3549     H
C       0.3835   0.4997  0.59916     C
C       0.3844   0.0016   0.9945     C
O       0.3846    0.255   0.9458     O
O       0.3852   0.1169    0.027     O
C       0.3858   0.6036   0.5575     C
C       0.3859   0.4265   0.7642     C
C       0.3864   0.4397   0.0608     C
O       0.3865   0.1494  0.10441     O
H       0.3865   0.3498    0.181     H
H        0.387   0.8493   0.1487     H
O       0.3886   0.4498   0.5996     O
H       0.3889   0.4255   0.4525     H
C       0.3894   0.1087   0.4365     C
O       0.3906   0.4109   0.0385     O
H       0.3913   0.2732   0.8816     H
C       0.3913   0.8894   0.6865     C
O       0.3915   0.1185  0.41122     O
Ag     0.39255  0.85251  0.00013    Ag
C       0.3927   0.6895   0.1576     C
O        0.393   0.8004   0.2752     O
H       0.3945   0.6857   0.1778     H
C       0.3948   0.9766  0.84895     C
S      0.39535  0.62083  0.45655     S
C       0.3964   0.6142   0.9425     C
N       0.3966   0.3276  0.58867     N
C       0.3967   0.1722   0.6807     C
H       0.3971   0.2371   0.5176     H
H       0.3974   0.1584   0.4728     H
H       0.3974   0.6183   0.5396     H
H       0.3979   0.7628   0.4335     H
H       0.3982   0.8127   0.9316     H
C       0.3985   0.9983  0.87896     C
C       0.3986   0.2754  0.51301     C
C        0.399   0.5087  0.53805     C
O       0.3995   0.4286    0.087     O
H       0.4004   0.8192   0.4859     H
H       0.4006   0.5829   0.9304     H
H       0.4009   0.9393   0.7562     H
C       0.4014   0.7679   0.4135     C
C       0.4036    0.007   0.6948     C
H       0.4038   0.1405   0.6094     H
H       0.4056   0.1686   0.6611     H
N       0.4066   0.0286  0.05566     N
H       0.4068   0.1392   0.6905     H
Ag     0.40715  0.79808  0.09355    Ag
H       0.4084   0.9689   0.8915     H
C       0.4091   0.2505   0.9235     C
H       0.4098   0.5238   0.5202     H
H       0.4102   0.7236   0.5424     H
O       0.4106   0.5349   0.6125     O
O       0.4108   0.4444   0.7862     O
C       0.4108   0.8441   0.2797     C
O       0.4109   0.3906   0.9615     O
H       0.4117   0.2795   0.2194     H
H       0.4119   0.7338   0.4049     H
C       0.4129   0.3075  0.53885     C
O       0.4129   0.9333  0.56294     O
C       0.4135   0.0219   0.6072     C
O       0.4137   0.1684   0.3355     O
H       0.4141   0.3439   0.7695     H
C       0.4141   0.5392  0.05247     C
C       0.4161   0.3678  0.53102     C
H       0.4164   0.2027   0.6886     H
H       0.4166   0.0418   0.7016     H
H       0.4171   0.5994   0.5696     H
C       0.4181   0.7557  0.53062     C
La     0.41852  0.87847  0.61276    La
O       0.4188   0.8125   0.5727     O
C       0.4193   0.9612  0.74222     C
H       0.4208    0.152    0.578     H
C       0.4214   0.1486  0.45699     C
H       0.4215   0.0059    0.001     H
H       0.4238   0.5252   0.4253     H
S       0.4239  0.12913  0.78634     S
H       0.4251   0.5588   0.0937     H
H       0.4254   0.1349   0.8639     H
H       0.4255   0.3889   0.5475     H
H       0.4258   0.0266   0.8799     H
H       0.4259   0.2815   0.4988     H
Ni     0.42624  0.68774  0.48227    Ni
H       0.4263   0.5197   0.0109     H
C       0.4265   0.3859   0.2358     C
O       0.4278   0.9786  0.61958     O
O       0.4286   0.3995    0.913     O
H       0.4288   0.7952   0.4097     H
O       0.4289   0.8416   0.3597     O
C       0.4296   0.1707   0.8722     C
H       0.4309   0.5035   0.5497     H
O        0.431   0.8675  0.69755     O
H       0.4323   0.9944   0.7508     H
O       0.4333   0.0871  0.31294     O
H       0.4335   0.9869   0.6866     H
C       0.4338   0.1494   0.5971     C
Ni     0.43488  0.95578  0.06341    Ni
N       0.4359   0.1993  0.44096     N
C       0.4377   0.1348   0.3127     C
H       0.4393   0.0991   0.5062     H
C       0.4397   0.3864   0.9392     C
H       0.4408   0.1963   0.8579     H
H        0.441   0.0503   0.4846     H
H       0.4412   0.5749   0.4063     H
H       0.4416   0.0543   0.5693     H
S      0.44262  0.70134   0.9706     S
Ag     0.44312  0.67482  0.02255    Ag
C       0.4436    0.802   0.5508     C
H       0.4437   0.3729   0.5168     H
S      0.44405   0.7059  0.10736     S
O       0.4444   0.4108   0.2138     O
H       0.4452   0.6823   0.9094     H
H       0.4457   0.9416   0.8193     H
H       0.4469   0.5247   0.4763     H
C       0.4482    0.548  0.07824     C
O       0.4485   0.3405  0.68907     O
C       0.4493   0.5243   0.0272     C
H       0.4496   0.1838   0.6027     H
H       0.4497    0.941   0.7346     H
O       0.4498   0.3886   0.4004     O
C       0.4503   0.6991  0.14598     C
H       0.4508   0.2122   0.7452     H
C       0.4511   0.9577  0.83812     C
C       0.4514    0.641  0.94707     C
C        0.452   0.5518  0.42176     C
H       0.4535   0.7806   0.1531     H
O       0.4539   0.3709   0.2567     O
Ni     0.45578  0.06512  0.81341    Ni
O       0.4558   0.8681  0.85839     O
N       0.4565    0.739  0.50947     N
H       0.4569   0.1693   0.8868     H
C       0.4577   0.0489  0.58812     C
H       0.4582   0.9166   0.9516     H
O       0.4589   0.2508   0.9223     O
C       0.4608   0.5859  0.44753     C
C       0.4612   0.0807  0.49222     C
H       0.4613   0.2043   0.2859     H
H        0.462   0.1493   0.2687     H
N       0.4629   0.3465  0.63257     N
H        0.465   0.8724   0.2357     H
O       0.4651   0.5894   0.8875     O
S       0.4666  0.87577  0.07479     S
H       0.4668   0.5145    0.083     H
H       0.4668   0.6167   0.1451     H
H       0.4684   0.4907   0.0309     H
C       0.4686   0.8525   0.2928     C
H       0.4689   0.0916   0.6415     H
O       0.4692   0.6212  0.19761     O
C       0.4714   0.1662   0.2864     C
N       0.4714   0.9066  0.30566     N
H       0.4719   0.2349   0.7742     H
H       0.4721   0.1173   0.7311     H
Ni     0.47307  0.31556  0.59529    Ni
H       0.4734   0.9258   0.1299     H
H       0.4741   0.3811   0.4649     H
C       0.4747   0.6641  0.91994     C
H       0.4748   0.5762   0.0747     H
C       0.4749   0.1201  0.46891     C
H       0.4753   0.5531   0.0237     H
H       0.4754   0.8243   0.3071     H
C       0.4757   0.5507   0.4728     C
C       0.4759   0.7494   0.1576     C
H       0.4762   0.5902   0.9798     H
C       0.4766   0.1052  0.59895     C
C       0.4781   0.9135   0.8572     C
O       0.4786   0.0722  0.36958     O
H       0.4791    0.746   0.1778     H
H       0.4803   0.5737   0.4891     H
S      0.48045  0.28565  0.55244     S
C       0.4805   0.2114   0.7585     C
N       0.4812   0.2958  0.42565     N
H       0.4855   0.5332    0.417     H
H       0.4865    0.776   0.2496     H
S      0.48666  0.82247   0.9846     S
H       0.4869   0.0665   0.4366     H
O        0.487    0.824  0.54194     O
H        0.487   0.8636   0.1345     H
H       0.4871   0.8757   0.9308     H
C       0.4872   0.6495  0.15087     C
N       0.4876   0.0055  0.83497     N
H       0.4882    0.653    0.427     H
H       0.4883   0.2459   0.6496     H
C       0.4888   0.1522  0.76916     C
H       0.4898   0.8369   0.7895     H
H       0.4907   0.4684   0.9691     H
C       0.4913    0.601  0.96195     C
C        0.493   0.9036   0.9448     C
H       0.4941   0.9215    0.251     H
H       0.4944   0.0677   0.5008     H
N       0.4945   0.9876  0.08497     N
C       0.4957   0.3582   0.6811     C
Ni     0.49593  0.24293  0.45475    Ni
Ag     0.49647  0.81087  0.03713    Ag
H       0.4965   0.5691   0.9503     H
C       0.4983   0.1015  0.62896     C
C       0.4984   0.8844   0.2445     C
N       0.4992   0.6707  0.46856     N
C       0.4996   0.6323   0.4437     C
C       0.4997   0.3835  0.40084     C
C       0.5003   0.6165  0.90084     C
C       0.5004   0.3677   0.9437     C
N       0.5008   0.3293  0.96856     N
C       0.5016   0.1156   0.7445     C
C       0.5017   0.8985  0.12896     C
H       0.5035   0.4309   0.4503     H
Ag     0.50353  0.18913  0.53713    Ag
Ni     0.50407  0.75707  0.95475    Ni
C       0.5043   0.6418   0.1811     C
N       0.5055   0.0124  0.58497     N
H       0.5056   0.9323   0.0008     H
H       0.5059   0.0785    0.751     H
C        0.507   0.0964   0.4448     C
C       0.5087    0.399  0.46195     C
H       0.5093   0.5316   0.4691     H
H       0.5102   0.1631   0.2895     H
C       0.5112   0.8478  0.26916     C
H       0.5117   0.7541   0.1496     H
H       0.5118    0.347    0.927     H
N       0.5124   0.9945  0.33497     N
C       0.5128   0.3505  0.65087     C
H       0.5129   0.1243   0.4308     H
H        0.513   0.1364   0.6345     H
O        0.513    0.176  0.04194     O
H       0.5131   0.9335   0.9366     H
S      0.51334  0.17753   0.4846     S
H       0.5135    0.224   0.7496     H
H       0.5145   0.4668    0.917     H
N       0.5188   0.7042  0.92565     N
C       0.5195   0.7886   0.2585     C
S      0.51955  0.71435  0.05244     S
H       0.5197   0.4263   0.9891     H
H       0.5209    0.254   0.6778     H
O       0.5214   0.9278  0.86958     O
C       0.5219   0.0865   0.3572     C
C       0.5234   0.8948  0.09895     C
H       0.5238   0.4098   0.4798     H
C       0.5241   0.2506   0.6576     C
C       0.5243   0.4493   0.9728     C
H       0.5246   0.1757   0.8071     H
H       0.5247   0.4469   0.5237     H
C       0.5251   0.8799  0.96891     C
H       0.5252   0.4238   0.5747     H
C       0.5253   0.3359  0.41994     C
H       0.5259   0.6189   0.9649     H
H       0.5266   0.0742   0.6299     H
Ni     0.52693  0.68444  0.09529    Ni
H       0.5279   0.8827   0.2311     H
H       0.5281   0.7651   0.2742     H
N       0.5286   0.0934  0.80566     N
C       0.5286   0.8338   0.7864     C
O       0.5308   0.3788  0.69761     O
H       0.5311   0.9084   0.1415     H
C       0.5314   0.1475   0.7928     C
H       0.5316   0.5093   0.5309     H
H       0.5332   0.3833   0.6451     H
H       0.5332   0.4855    0.583     H
S       0.5334  0.12423  0.57479     S
O       0.5349   0.4106   0.3875     O
H        0.535   0.1276   0.7357     H
N       0.5371   0.6535  0.13257     N
H        0.538   0.8507   0.7687     H
H       0.5387   0.7957   0.7859     H
C       0.5388   0.9193  0.99222     C
C       0.5392   0.4141  0.94753     C
O       0.5411   0.7492   0.4223     O
H       0.5418   0.0834   0.4516     H
C       0.5423   0.9511  0.08812     C
H       0.5431   0.8307   0.3868     H
N       0.5435    0.261  0.00947     N
O       0.5442   0.1319  0.35839     O
Ni     0.54422  0.93488  0.31341    Ni
O       0.5461   0.6291   0.7567     O
H       0.5465   0.2194   0.6531     H
C        0.548   0.4482  0.92176     C
C       0.5486    0.359  0.44707     C
C       0.5489   0.0423  0.33812     C
H       0.5492   0.7878   0.2452     H
C       0.5497   0.3009  0.64598     C
O       0.5502   0.6114   0.9004     O
H       0.5503    0.059   0.2346     H
H       0.5504   0.8162   0.1027     H
C       0.5507   0.4757   0.5272     C
O       0.5515   0.6595  0.18907     O
C       0.5518    0.452  0.57824     C
H       0.5531   0.4753   0.9763     H
H       0.5543   0.0584   0.3193     H
H       0.5548   0.3177   0.4094     H
O       0.5556   0.5892   0.7138     O
S      0.55595   0.2941  0.60736     S
H       0.5563   0.6271   0.0168     H
C       0.5564    0.198   0.0508     C
Ag     0.55688  0.32518  0.52255    Ag
S      0.55738  0.29866   0.4706     S
H       0.5584   0.9457   0.0693     H
H       0.5588   0.4251   0.9063     H
H        0.559   0.9497   0.9846     H
H       0.5592   0.8037   0.3579     H
C       0.5603   0.6136   0.4392     C
H       0.5607   0.9009   0.0062     H
C       0.5623   0.8652   0.8127     C
N       0.5641   0.8007  0.94096     N
Ni     0.56512  0.04422  0.56341    Ni
C       0.5662   0.8506   0.0971     C
H       0.5665   0.0131   0.1866     H
O       0.5667   0.9129  0.81294     O
H       0.5677   0.0056   0.2508     H
O        0.569   0.1325  0.19755     O
H       0.5691   0.4965   0.0497     H
C       0.5704   0.8293   0.3722     C
O       0.5711   0.1584   0.8597     O
H       0.5712   0.2048   0.9097     H
O       0.5714   0.6005    0.413     O
O       0.5722   0.0214  0.11958     O
C       0.5735   0.6141   0.7358     C
H       0.5737   0.4803   0.5109     H
Ni     0.57376  0.31226  0.98227    Ni
H       0.5741   0.7185   0.9988     H
H       0.5742   0.9734   0.3799     H
H       0.5745   0.6111   0.0475     H
H       0.5746   0.8651   0.3639     H
H       0.5749   0.4412   0.5937     H
S       0.5761  0.87087  0.28634     S
H       0.5762   0.4748   0.9253     H
H       0.5785   0.9941    0.501     H
C       0.5786   0.8514  0.95699     C
H       0.5792    0.848    0.078     H
C       0.5807   0.0388  0.24222     C
O       0.5812   0.1875   0.0727     O
La     0.58148  0.12153  0.11276    La
C       0.5819   0.2443  0.03062     C
H       0.5829   0.4006   0.0696     H
H       0.5834   0.9582   0.2016     H
H       0.5836   0.7973   0.1886     H
C       0.5839   0.6322  0.03102     C
C       0.5859   0.4608  0.55247     C
H       0.5859   0.6561   0.2695     H
O       0.5863   0.8316   0.8355     O
C       0.5865   0.9781   0.1072     C
O       0.5871   0.0667  0.06294     O
C       0.5871   0.6925  0.03885     C
H       0.5881   0.2662   0.9049     H
H       0.5883   0.7205   0.7194     H
O       0.5891   0.6094   0.4615     O
C       0.5892   0.1559   0.7797     C
O       0.5892   0.5556   0.2862     O
O       0.5894   0.4651   0.1125     O
H       0.5898   0.2764   0.0424     H
H       0.5902   0.4762   0.0202     H
C       0.5909   0.7495   0.4235     C
H       0.5916   0.0311   0.3915     H
Ag     0.59285  0.20192  0.59355    Ag
H       0.5932   0.8608   0.1905     H
N       0.5934   0.9714  0.55566     N
H       0.5944   0.8314   0.1611     H
H       0.5962   0.8595   0.1094     H
C       0.5964    0.993   0.1948     C
C       0.5986   0.2321   0.9135     C
H       0.5991   0.0607   0.2562     H
H       0.5994   0.4171   0.4304     H
H       0.5996   0.1808   0.9859     H
O       0.6005   0.5714    0.587     O
C        0.601   0.4913  0.03805     C
C       0.6014   0.7246  0.01301     C
C       0.6015   0.0017  0.37896     C
H       0.6018   0.1873   0.4316     H
H       0.6021   0.2372   0.9335     H
H       0.6026   0.3817   0.0396     H
H       0.6026   0.8416   0.9728     H
H       0.6029   0.7629   0.0176     H
C       0.6033   0.8278   0.1807     C
N       0.6034   0.6724  0.08867     N
C       0.6036   0.3858   0.4425     C
S      0.60465  0.37917  0.95655     S
C       0.6052   0.0234  0.34895     C
H       0.6055   0.3143   0.6778     H
O        0.607   0.1996   0.7752     O
C       0.6073   0.3105   0.6576     C
Ag     0.60745  0.14749  0.50013    Ag
O       0.6085   0.8815  0.91122     O
C       0.6087   0.1106   0.1865     C
H       0.6087   0.7268   0.3816     H
O       0.6094   0.5891   0.5385     O
C       0.6106   0.8913   0.9365     C
H       0.6111   0.5745   0.9525     H
O       0.6114   0.5502   0.0996     O
H        0.613   0.1507   0.6487     H
H       0.6135   0.6502    0.681     H
O       0.6135   0.8506  0.60441     O
C       0.6136   0.5603   0.5608     C
C       0.6141   0.5735   0.2642     C
C       0.6142   0.3964   0.0575     C
O       0.6148   0.8831    0.527     O
O       0.6154    0.745   0.4458     O
C       0.6156   0.9984   0.4945     C
C       0.6165   0.5003  0.09916     C
H       0.6167   0.4668   0.8549     H
O       0.6169   0.1148    0.777     O
H       0.6173   0.0279   0.4811     H
H       0.6183   0.3974   0.4604     H
O       0.6185   0.1085  0.16122     O
H       0.6187   0.1434    0.011     H
H       0.6188   0.6202   0.0239     H
H       0.6189   0.5259   0.0351     H
H       0.6199    0.854   0.4223     H
C       0.6201   0.0251  0.21891     C
H       0.6202   0.6188   0.9761     H
C       0.6203   0.6389   0.2635     C
S      0.62083  0.39535  0.54345     S
O       0.6212   0.4692  0.80239     O
La     0.62153  0.91852  0.86276    La
H       0.6217   0.6712   0.3185     H
H       0.6222   0.3434   0.6496     H
C       0.6225   0.1546   0.8601     C
C       0.6239   0.8113  0.38456     C
S      0.62423   0.9666  0.32479     S
H       0.6243   0.9871   0.1808     H
C        0.625   0.7514   0.3957     C
C       0.6255   0.7007  0.06293     C
O       0.6256    0.733  0.13518     O
C       0.6266   0.7233   0.7239     C
H        0.627   0.7401    0.067     H
H       0.6271   0.5563   0.9832     H
H       0.6276    0.965   0.4857     H
C       0.6283   0.1742  0.99937     C
H       0.6283     0.36   0.4339     H
O       0.6291   0.5461   0.2433     O
S      0.62913   0.0761  0.53634     S
Ag      0.6297  0.79326  0.30885    Ag
H       0.6303   0.2799   0.6529     H
H       0.6308   0.7314   0.7437     H
H       0.6314   0.1888   0.4021     H
O       0.6319   0.9558  0.10839     O
C       0.6322   0.5839  0.96898     C
C       0.6323   0.4996   0.5563     C
N       0.6324   0.6538  0.23365     N
O       0.6325    0.931  0.94755     O
H       0.6326    0.856   0.6624     H
C       0.6348   0.0623   0.0627     C
H       0.6349   0.0746   0.6139     H
C        0.635   0.1972  0.42186     C
C       0.6359    0.225  0.01792     C
H       0.6364    0.987   0.3845     H
H       0.6365   0.7129   0.0061     H
O       0.6371   0.7014  0.93429     O
H       0.6377   0.2382   0.8609     H
C       0.6389   0.6203   0.7365     C
H       0.6392   0.0932   0.4405     H
Ag      0.6397   0.3397  0.58732    Ag
H         0.64   0.3717   0.0661     H
H       0.6405   0.0962   0.3594     H
C        0.641   0.4514  0.05293     C
H       0.6415   0.2358   0.4241     H
C       0.6418   0.5043   0.8189     C
H       0.6429   0.7521   0.7129     H
H       0.6434   0.8813    0.761     H
H        0.644   0.1326   0.9124     H
C       0.6457   0.8514    0.407     C
H        0.646   0.1199   0.6723     H
Ag     0.64749  0.89255  0.25013    Ag
C       0.6475   0.9686   0.5428     C
C       0.6486   0.0786  0.20699     C
C       0.6486   0.1457    0.657     C
H       0.6493    0.038   0.0187     H
C       0.6494   0.0662   0.3471     C
O       0.6494   0.1135  0.85441     O
C       0.6495   0.4872  0.84913     C
H         0.65   0.7942   0.6599     H
H       0.6502   0.6135    0.319     H
H       0.6507    0.887   0.3987     H
C       0.6515   0.6547   0.6859     C
H        0.652   0.0792    0.328     H
C       0.6522   0.0112  0.51916     C
H        0.653   0.4882    0.573     H
C       0.6532   0.2135  0.90141     C
N       0.6535   0.5371  0.86743     N
N       0.6538   0.6324  0.76635     N
S      0.65451  0.28349  0.99471     S
C       0.6546   0.8775   0.6101     C
C       0.6547   0.2059  0.86968     C
C       0.6547   0.6515   0.3141     C
Ag     0.65584  0.27796  0.48134    Ag
C       0.6559   0.9108   0.5297     C
H       0.6561   0.5859   0.7305     H
C       0.6564   0.6665   0.7169     C
H       0.6566   0.3778   0.8504     H
N       0.6576   0.7167  0.18852     N
H       0.6584   0.1026   0.2228     H
O       0.6584   0.9289   0.6097     O
O       0.6595   0.5515  0.81093     O
Ag      0.6603   0.3603  0.91268    Ag
Ni     0.66095  0.72645  0.22924    Ni
C       0.6611   0.8298   0.6664     C
H       0.6617   0.1802   0.6642     H
H       0.6619   0.1665   0.9896     H
H       0.6631   0.9898   0.0395     H
C       0.6641   0.4747  0.08006     C
C       0.6658    0.818  0.18396     C
C       0.6662   0.0286   0.0364     C
C       0.6665   0.6564   0.2831     C
H       0.6665   0.8381   0.7396     H
H       0.6666   0.6848   0.6753     H
H       0.6674   0.8286   0.6864     H
O       0.6684   0.0863   0.0855     O
H       0.6686   0.0944   0.4111     H
H       0.6693   0.0431   0.6368     H
C       0.6702   0.1611   0.9164     C
C       0.6707   0.0704   0.6222     C
N       0.6707   0.4992  0.53144     N
C       0.6707   0.7547   0.1407     C
H       0.6712   0.6217   0.6815     H
H       0.6714   0.1674   0.9364     H
C       0.6722   0.1033   0.4307     C
N       0.6724   0.6034  0.91133     N
H       0.6726   0.1884   0.0521     H
C       0.6742   0.8717  0.74937     C
Ag     0.67482  0.44312  0.97745    Ag
S      0.67549  0.72919  0.27417     S
H       0.6757   0.9754   0.5571     H
S      0.67599  0.80934  0.35584     S
O        0.676    0.987  0.79194     O
S      0.67753  0.98666   0.2346     S
H       0.6802   0.8383   0.4142     H
C       0.6806   0.6857  0.94295     C
H       0.6808   0.9004   0.7359     H
C       0.6813   0.2185  0.03976     C
C        0.682   0.1658  0.43396     C
H       0.6823   0.4452   0.0906     H
S      0.68271  0.81145  0.22223     S
N       0.6831   0.7343  0.40163     N
C       0.6832   0.7617  0.17211     C
H       0.6838   0.0504   0.3527     H
H       0.6844   0.2516   0.0506     H
Ni     0.68444  0.52693  0.90471    Ni
H       0.6848   0.6666   0.3247     H
H       0.6857   0.3945   0.8222     H
C       0.6857   0.6806  0.05705     C
H       0.6873   0.8982   0.1816     H
O       0.6875   0.9188   0.8227     O
Ni     0.68774  0.42624  0.51773    Ni
H       0.6884   0.8274   0.8021     H
S      0.68855  0.18271  0.47223     S
C       0.6887   0.1239  0.63456     C
H       0.6888   0.8686   0.1521     H
Ag     0.68913  0.99647  0.28713    Ag
C       0.6895   0.3927   0.8424     C
S      0.69066  0.17599  0.60584     S
C       0.6925   0.5871  0.96115     C
H       0.6963   0.0592   0.6079     H
C       0.6972    0.865  0.17186     C
C        0.698   0.9436   0.8008     C
C       0.6991   0.4503  0.85402     C
N       0.6993   0.0641  0.19096     N
O       0.6996    0.893   0.5252     O
C       0.7007   0.6255  0.93707     C
S      0.70134  0.44262   0.0294     S
O       0.7014   0.6371  0.06571     O
Ag     0.70192  0.90715  0.34355    Ag
H       0.7027   0.0836   0.4386     H
N       0.7028   0.7873  0.60988     N
O       0.7032   0.7767  0.12385     O
S      0.70376  0.26776  0.90944     S
N       0.7042   0.5188  0.07435     N
H       0.7043   0.0387   0.0359     H
H       0.7048   0.9288   0.6597     H
H       0.7058     0.15   0.9099     H
S       0.7059  0.44405  0.89264     S
C       0.7059   0.8453  0.61968     C
Ag     0.70674   0.1297  0.55885    Ag
H       0.7113   0.7846   0.7803     H
C       0.7114   0.0195   0.5085     C
H       0.7122   0.0492   0.4952     H
N       0.7127   0.2028  0.85988     N
H       0.7129   0.6365   0.9939     H
O       0.7134   0.7157  0.04378     O
C       0.7135   0.8468  0.65141     C
S      0.71435  0.51955  0.94756     S
H       0.7154   0.2113   0.0303     H
O       0.7157   0.7134  0.95622     O
S      0.71651  0.34549  0.50529     S
N       0.7167   0.6576  0.81148     N
H       0.7185   0.5741   0.0012     H
C       0.7185   0.8187  0.78976     C
H       0.7194   0.9535   0.4031     H
H       0.7201   0.3697   0.8471     H
H       0.7205   0.5883   0.2806     H
Ag     0.72204  0.34416  0.01866    Ag
H        0.723   0.7586   0.1745     H
O       0.7233   0.2032  0.37385     O
C       0.7233   0.6266   0.2761     C
H       0.7236   0.4102   0.4576     H
H        0.724   0.9865   0.4996     H
C       0.7246   0.6014  0.98699     C
C        0.725   0.8641  0.76792     C
Ni     0.72645  0.66095  0.77076    Ni
H       0.7268   0.6087   0.6184     H
S      0.72919  0.67549  0.72583     S
H       0.7314   0.6308   0.2563     H
C       0.7321   0.9014   0.6635     C
S      0.73224  0.29624  0.59056     S
Ag     0.73242  0.26298  0.96055    Ag
O        0.733   0.6256  0.86482     O
H       0.7338   0.4119   0.5951     H
N       0.7343   0.6831  0.59837     N
H       0.7349   0.0281   0.5242     H
Ni     0.73553  0.75241   0.3729    Ni
H       0.7358   0.8585   0.1741     H
Ag     0.73702  0.26758  0.53945    Ag
H       0.7371   0.1029   0.2676     H
H       0.7372   0.8979   0.6835     H
H       0.7382   0.8623   0.6109     H
C       0.7383   0.1832  0.42211     C
N        0.739   0.4565  0.49053     N
H       0.7401    0.627    0.933     H
H       0.7414    0.223   0.4245     H
Ni     0.74293  0.00407  0.20475    Ni
C       0.7443   0.9181  0.78062     C
O        0.745   0.6154   0.5542     O
C       0.7453   0.1707   0.3907     C
H       0.7459   0.0117   0.3996     H
H        0.746   0.4791   0.8222     H
Ni     0.74759  0.23553   0.6229    Ni
H       0.7479   0.1429   0.9629     H
H       0.7484   0.3156   0.4494     H
C       0.7486    0.125   0.6457     C
O       0.7492   0.5411   0.5777     O
C       0.7494   0.4759   0.8424     C
C       0.7495   0.5909   0.5765     C
C       0.7505   0.0909   0.6735     C
C       0.7506   0.9759   0.4076     C
O       0.7508   0.0411   0.6723     O
C       0.7514    0.625   0.6043     C
H       0.7516   0.8156   0.8006     H
H       0.7521   0.6429   0.2871     H
Ni     0.75241  0.73553   0.6271    Ni
H        0.754   0.9791   0.4278     H
H       0.7541   0.5117   0.8504     H
C       0.7547   0.6707   0.8593     C
O        0.755   0.1154   0.6958     O
C       0.7557   0.4181  0.46938     C
Ni     0.75707  0.50407  0.04525    Ni
H       0.7586    0.723   0.8255     H
H       0.7599    0.127    0.317     H
N        0.761   0.9565  0.75947     N
C       0.7617   0.6832  0.82789     C
H       0.7618   0.3623   0.6391     H
H       0.7628   0.3979   0.5665     H
H       0.7629   0.6029   0.9824     H
Ag     0.76298  0.76758  0.71055    Ag
H       0.7642   0.3585   0.0759     H
Ni     0.76447  0.25241   0.8771    Ni
H       0.7651   0.5281   0.7258     H
N       0.7657   0.1831  0.65163     N
H       0.7662   0.9119   0.6549     H
O        0.767   0.1256  0.38518     O
Ag     0.76758  0.76298  0.28945    Ag
S      0.76776  0.79624  0.65944     S
C       0.7679   0.4014   0.5865     C
H       0.7686   0.1308   0.9937     H
S      0.77081  0.17549  0.52417     S
H       0.7732   0.1087   0.6316     H
Ni     0.77355  0.16095  0.47924    Ni
C        0.775   0.3641  0.48208     C
C       0.7754   0.1014  0.26301     C
H        0.776   0.4865   0.7504     H
H       0.7764   0.9102   0.7924     H
C       0.7767   0.1266   0.9739     C
O       0.7767   0.7032  0.87615     O
H        0.777   0.2586   0.0755     H
Ag     0.77796  0.84416  0.23134    Ag
H       0.7795   0.0883   0.9694     H
H       0.7799   0.8697   0.4029     H
H       0.7806   0.4535   0.8469     H
H       0.7815   0.0741   0.2488     H
C       0.7815   0.3187  0.46024     C
N       0.7833   0.1576  0.43852     N
S      0.78349  0.84549  0.74471     S
O       0.7843   0.2134  0.29378     O
H       0.7846   0.7113   0.2197     H
S      0.78565  0.01955  0.30244     S
C       0.7865   0.3468  0.59859     C
O       0.7866   0.2157  0.20622     O
H       0.7871   0.1365   0.2561     H
N       0.7873   0.7028  0.39012     N
H       0.7878   0.5492   0.7548     H
C       0.7886   0.5195   0.7415     C
H       0.7887   0.2846   0.4697     H
Ag     0.79326   0.6297  0.69115    Ag
C       0.7941   0.3453  0.63032     C
S       0.7941  0.94405  0.35736     S
H       0.7942     0.65   0.3401     H
H       0.7952   0.4288   0.5903     H
H       0.7957   0.5387   0.2141     H
N       0.7958   0.0188  0.17565     N
S      0.79624  0.76776  0.34056     S
O       0.7968   0.2767  0.12615     O
N       0.7972   0.2873  0.64012     N
H       0.7973   0.5836   0.8114     H
Ag     0.79808  0.40715  0.90645    Ag
O       0.7986   0.1371  0.18429     O
S      0.79866  0.94262   0.2206     S
C       0.7993   0.1255  0.31293     C
O       0.8004    0.393   0.7248     O
N       0.8007   0.5641  0.05904     N
C       0.8009   0.9503  0.39598     C
C        0.802   0.4436   0.4492     C
C       0.8028    0.365  0.07814     C
H       0.8037   0.5592   0.6421     H
C       0.8075   0.0871  0.28885     C
S      0.80934  0.67599  0.64416     S
C       0.8105   0.8927   0.4076     C
Ag     0.81087  0.49647  0.96287    Ag
H       0.8112   0.3686   0.0979     H
C       0.8113   0.6239  0.61544     C
S      0.81145  0.68271  0.77777     S
H       0.8116   0.3274   0.4479     H
Ni     0.81226  0.92624  0.73227    Ni
O       0.8125   0.4188   0.4273     O
H       0.8127   0.3982   0.0684     H
C       0.8143   0.1806  0.19295     C
H       0.8143   0.8945   0.4278     H
H       0.8152   0.1666   0.9253     H
Ni     0.81556  0.02693  0.34529    Ni
H       0.8156   0.7516   0.1994     H
H       0.8162   0.5504   0.8973     H
C       0.8168   0.2617  0.07789     C
N       0.8169   0.2343  0.84837     N
S      0.81729  0.31145  0.02777     S
H       0.8177   0.9452   0.1594     H
C        0.818   0.6658  0.81604     C
C       0.8187   0.7185  0.21024     C
H       0.8192   0.4004   0.5141     H
C       0.8194   0.1857  0.30705     C
H       0.8198   0.3383   0.8358     H
S      0.82247  0.48666   0.0154     S
O        0.824    0.487  0.45806     O
S      0.82401  0.30934  0.89416     S
H       0.8243   0.4754   0.6929     H
S      0.82451  0.22919  0.97583     S
Ag     0.82518  0.94312  0.27255    Ag
C       0.8258   0.3717  0.50063     C
H       0.8274   0.6884   0.1979     H
N       0.8276   0.1034  0.33867     N
C       0.8278   0.6033   0.8193     C
H       0.8286   0.6674   0.3136     H
H       0.8288   0.1217   0.5685     H
C       0.8293   0.2547   0.1093     C
C       0.8293   0.5704   0.6278     C
N       0.8293   0.9992  0.71856     N
C       0.8298   0.6611   0.3336     C
H       0.8307   0.5431   0.6132     H
H       0.8314   0.5944   0.8389     H
O       0.8316   0.5863   0.1645     O
H       0.8326   0.3286   0.5636     H
H       0.8334   0.1848   0.5747     H
C       0.8335   0.1564   0.9669     C
H       0.8335   0.3381   0.5104     H
C       0.8338   0.5286   0.2136     C
C       0.8342    0.318  0.06604     C
C       0.8359   0.9747  0.16994     C
H       0.8369   0.4898   0.2105     H
H       0.8381   0.6665   0.2604     H
H       0.8383   0.6802   0.5858     H
C       0.8389   0.3298   0.5836     C
Ni     0.83905  0.22645  0.02076    Ni
Ag      0.8397   0.8603  0.33732    Ag
O       0.8405   0.0515  0.43907     O
O       0.8416   0.4289   0.6403     O
H       0.8416   0.6026   0.0272     H
N       0.8424   0.2167  0.06148     N
H       0.8434   0.8778   0.3996     H
C       0.8436   0.1665   0.5331     C
H       0.8439   0.0859   0.5195     H
C       0.8441   0.4108   0.7203     C
Ag     0.84416  0.77796  0.76866    Ag
C       0.8453   0.1515   0.9359     C
C       0.8453   0.7059  0.38032     C
C       0.8454   0.3775   0.6399     C
S      0.84549  0.78349  0.25529     S
N       0.8462   0.1324  0.48365     N
N       0.8465   0.0371  0.38257     N
C       0.8468   0.7135  0.34859     C
H        0.847   0.9882    0.677     H
C       0.8478   0.5112  0.73084     C
H        0.848   0.5792    0.922     H
C       0.8485   0.1547   0.5641     C
H       0.8493    0.387   0.8513     H
H       0.8498   0.1135    0.931     H
H         0.85   0.2942   0.5901     H
C       0.8505   0.9872  0.40087     C
C       0.8506   0.5662   0.9029     C
O       0.8506   0.6135  0.39559     O
H       0.8507    0.538   0.2313     H
C       0.8514   0.5786  0.04301     C
C       0.8514   0.6457    0.593     C
C       0.8525   0.4686   0.7072     C
Ag     0.85251  0.39255  0.99987    Ag
H        0.854   0.6199   0.5777     H
C       0.8543   0.3514    0.843     C
H        0.856   0.6326   0.3376     H
H       0.8566   0.3813    0.489     H
H       0.8571   0.2521   0.5371     H
C       0.8582   0.0043   0.4311     C
H       0.8585   0.7358   0.8259     H
C        0.859   0.9514  0.19707     C
H       0.8595   0.5962   0.8906     H
H         0.86   0.8717   0.1839     H
Ag      0.8603   0.8397  0.66268    Ag
H       0.8608   0.5932   0.8095     H
C       0.8611   0.1203   0.5135     C
H       0.8623   0.7382   0.3891     H
O       0.8629   0.2014  0.31571     O
H       0.8635   0.2129   0.2439     H
H       0.8636    0.487   0.8655     H
C       0.8641    0.725  0.23208     C
C        0.865   0.6972  0.82814     C
H       0.8651   0.5746   0.6361     H
C       0.8652   0.5623   0.1873     C
H       0.8674    0.356   0.5876     H
O       0.8675    0.431  0.30245     O
N       0.8676   0.1538  0.01635     N
C       0.8677   0.9996   0.6937     C
C       0.8678   0.0839  0.28102     C
O       0.8681   0.4558  0.14161     O
H       0.8686   0.6888   0.8479     H
H       0.8692   0.2314   0.5063     H
H       0.8697   0.7799   0.5971     H
Ag      0.8703  0.29326  0.94115    Ag
S      0.87087   0.5761  0.71366     S
O       0.8709   0.0461   0.0067     O
C       0.8717   0.6742  0.25063     C
H       0.8717     0.86   0.8161     H
H       0.8724    0.465   0.7643     H
H       0.8729   0.0563   0.2668     H
H        0.873   0.2401    0.183     H
C       0.8734   0.2233   0.5261     C
O       0.8744    0.233  0.11482     O
C       0.8745   0.2007  0.18707     C
C        0.875   0.2514   0.8543     C
H       0.8757   0.4871   0.0692     H
S      0.87577   0.4666  0.92521     S
C       0.8761   0.3113  0.86544     C
C       0.8775   0.6546   0.3899     C
H       0.8778   0.8434   0.6004     H
H       0.8783   0.1712   0.9315     H
La     0.87847  0.41852  0.38724    La
O       0.8788   0.9692  0.44761     O
S      0.87917  0.89535  0.70655     S
C       0.8797   0.1389   0.9865     C
H       0.8798   0.1188   0.2739     H
C       0.8799   0.5251  0.03109     C
H       0.8801    0.354   0.8277     H
H       0.8811   0.0259   0.2149     H
H       0.8812   0.1202   0.2261     H
H       0.8813   0.6434    0.239     H
O       0.8815   0.6085  0.08878     O
H       0.8817   0.8974   0.7896     H
H       0.8827   0.5279   0.7689     H
O       0.8831   0.6148    0.473     O
H       0.8833   0.9668   0.3951     H
C       0.8835   0.0003  0.15084     C
C       0.8844   0.4984   0.7555     C
O       0.8846    0.245   0.8042     O
O       0.8852   0.3831    0.723     O
C       0.8858   0.8964   0.1925     C
C       0.8859   0.0735   0.9858     C
C       0.8864   0.0603   0.6892     C
H       0.8865   0.1502    0.569     H
O       0.8865   0.3506  0.64559     O
H        0.887   0.6507   0.6013     H
O       0.8886   0.0502   0.1504     O
H       0.8889   0.0745   0.2975     H
C       0.8894   0.3913   0.3135     C
O       0.8906   0.0891   0.7115     O
H       0.8913   0.2268   0.8684     H
C       0.8913   0.6106   0.0635     C
O       0.8915   0.3815  0.33878     O
Ag     0.89255  0.64749  0.74987    Ag
C       0.8927   0.8105   0.5924     C
O        0.893   0.6996   0.4748     O
H       0.8945   0.8143   0.5722     H
C       0.8948   0.5234  0.90105     C
S      0.89535  0.87917  0.29345     S
C       0.8964   0.8858   0.8075     C
N       0.8966   0.1724  0.16133     N
C       0.8967   0.3278   0.0693     C
H       0.8971   0.2629   0.2324     H
H       0.8974   0.3416   0.2772     H
H       0.8974   0.8817   0.2104     H
H       0.8979   0.7372   0.3165     H
H       0.8982   0.6873   0.8184     H
C       0.8985   0.5017  0.87104     C
C       0.8986   0.2246  0.23699     C
C        0.899   0.9913  0.21195     C
O       0.8995   0.0714    0.663     O
H       0.9004   0.6808   0.2641     H
H       0.9006   0.9171   0.8196     H
H       0.9009   0.5607   0.9938     H
C       0.9014   0.7321   0.3365     C
C       0.9036    0.493   0.0552     C
H       0.9038   0.3595   0.1406     H
H       0.9056   0.3314   0.0889     H
N       0.9066   0.4714  0.69434     N
H       0.9068   0.3608   0.0595     H
Ag     0.90715  0.70192  0.65645    Ag
H       0.9084   0.5311   0.8585     H
C       0.9091   0.2495   0.8265     C
H       0.9098   0.9762   0.2298     H
H       0.9102   0.7764   0.2076     H
O       0.9106   0.9651   0.1375     O
O       0.9108   0.0556   0.9638     O
C       0.9108   0.6559   0.4703     C
O       0.9109   0.1094   0.7885     O
H       0.9117   0.2205   0.5306     H
H       0.9119   0.7662   0.3451     H
C       0.9129   0.1925  0.21115     C
O       0.9129   0.5667  0.18706     O
C       0.9135   0.4781   0.1428     C
O       0.9137   0.3316   0.4145     O
H       0.9141   0.1561   0.9805     H
C       0.9141   0.9608  0.69753     C
C       0.9161   0.1322  0.21898     C
H       0.9164   0.2973   0.0614     H
H       0.9166   0.4582   0.0484     H
H       0.9171   0.9006   0.1804     H
C       0.9181   0.7443  0.21938     C
La     0.91852  0.62153  0.13724    La
O       0.9188   0.6875   0.1773     O
C       0.9193   0.5388  0.00778     C
H       0.9208    0.348    0.172     H
C       0.9214   0.3514  0.29301     C
H       0.9215   0.4941    0.749     H
H       0.9238   0.9748   0.3247     H
S       0.9239  0.37087  0.96366     S
H       0.9251   0.9412   0.6563     H
H       0.9254   0.3651   0.8861     H
H       0.9255   0.1111   0.2025     H
H       0.9258   0.4734   0.8701     H
H       0.9259   0.2185   0.2512     H
Ni     0.92624  0.81226  0.26773    Ni
H       0.9263   0.9803   0.7391     H
C       0.9265   0.1141   0.5142     C
O       0.9278   0.5214  0.13042     O
O       0.9286   0.1005    0.837     O
H       0.9288   0.7048   0.3403     H
O       0.9289   0.6584   0.3903     O
C       0.9296   0.3293   0.8778     C
H       0.9309   0.9965   0.2003     H
O        0.931   0.6325  0.05245     O
H       0.9323   0.5056   0.9992     H
O       0.9333   0.4129  0.43706     O
H       0.9335   0.5131   0.0634     H
C       0.9338   0.3506   0.1529     C
Ni     0.93488  0.54422  0.68659    Ni
N       0.9359   0.3007  0.30904     N
C       0.9377   0.3652   0.4373     C
H       0.9393   0.4009   0.2438     H
C       0.9397   0.1136   0.8108     C
H       0.9408   0.3037   0.8921     H
H        0.941   0.4497   0.2654     H
H       0.9412   0.9251   0.3437     H
H       0.9416   0.4457   0.1807     H
S      0.94262  0.79866   0.7794     S
Ag     0.94312  0.82518  0.72745    Ag
C       0.9436    0.698   0.1992     C
H       0.9437   0.1271   0.2332     H
S      0.94405   0.7941  0.64264     S
O       0.9444   0.0892   0.5362     O
H       0.9452   0.8177   0.8406     H
H       0.9457   0.5584   0.9307     H
H       0.9469   0.9753   0.2737     H
C       0.9482    0.952  0.67176     C
O       0.9485   0.1595  0.06093     O
C       0.9493   0.9757   0.7228     C
H       0.9496   0.3162   0.1473     H
H       0.9497    0.559   0.0154     H
O       0.9498   0.1114   0.3496     O
C       0.9503   0.8009  0.60402     C
H       0.9508   0.2878   0.0048     H
C       0.9511   0.5423  0.91188     C
C       0.9514    0.859  0.80293     C
C        0.952   0.9482  0.32824     C
H       0.9535   0.7194   0.5969     H
O       0.9539   0.1291   0.4933     O
Ni     0.95578  0.43488  0.93659    Ni
O       0.9558   0.6319  0.89161     O
N       0.9565    0.761  0.24053     N
H       0.9569   0.3307   0.8632     H
C       0.9577   0.4511  0.16188     C
H       0.9582   0.5834   0.7984     H
O       0.9589   0.2492   0.8277     O
C       0.9608   0.9141  0.30247     C
C       0.9612   0.4193  0.25778     C
H       0.9613   0.2957   0.4641     H
H        0.962   0.3507   0.4813     H
N       0.9629   0.1535  0.11743     N
H        0.965   0.6276   0.5143     H
O       0.9651   0.9106   0.8625     O
S       0.9666  0.62423  0.67521     S
H       0.9668   0.8833   0.6049     H
H       0.9668   0.9855    0.667     H
H       0.9684   0.0093   0.7191     H
C       0.9686   0.6475   0.4572     C
H       0.9689   0.4084   0.1085     H
O       0.9692   0.8788  0.55239     O
C       0.9714   0.3338   0.4636     C
N       0.9714   0.5934  0.44434     N
H       0.9719   0.2651   0.9758     H
H       0.9721   0.3827   0.0189     H
Ni     0.97307  0.18444  0.15471    Ni
H       0.9734   0.5742   0.6201     H
H       0.9741   0.1189   0.2851     H
C       0.9747   0.8359  0.83006     C
H       0.9748   0.9238   0.6753     H
C       0.9749   0.3799  0.28109     C
H       0.9753   0.9469   0.7263     H
H       0.9754   0.6757   0.4429     H
C       0.9757   0.9493   0.2772     C
C       0.9759   0.7506   0.5924     C
H       0.9762   0.9098   0.7702     H
C       0.9766   0.3948  0.15105     C
C       0.9781   0.5865   0.8928     C
O       0.9786   0.4278  0.38042     O
H       0.9791    0.754   0.5722     H
H       0.9803   0.9263   0.2609     H
S      0.98045  0.21435  0.19756     S
C       0.9805   0.2886   0.9915     C
N       0.9812   0.2042  0.32435     N
H       0.9855   0.9668    0.333     H
H       0.9865    0.724   0.5004     H
S      0.98666  0.67753   0.7654     S
H       0.9869   0.4335   0.3134     H
H        0.987   0.6364   0.6155     H
O        0.987    0.676  0.20806     O
H       0.9871   0.6243   0.8192     H
C       0.9872   0.8505  0.59913     C
N       0.9876   0.4945  0.91503     N
H       0.9882    0.847    0.323     H
H       0.9883   0.2541   0.1004     H
C       0.9888   0.3478  0.98084     C
H       0.9898   0.6631   0.9605     H
H       0.9907   0.0316   0.7809     H
C       0.9913    0.899  0.78805     C
C        0.993   0.5964   0.8052     C
H       0.9941   0.5785    0.499     H
H       0.9944   0.4323   0.2492     H
N       0.9945   0.5124  0.66503     N
C       0.9957   0.1418   0.0689     C
Ni     0.99593  0.25707  0.29525    Ni
Ag     0.99647  0.68913  0.71287    Ag
H       0.9965   0.9309   0.7997     H
C       0.9983   0.3985  0.12104     C
C       0.9984   0.6156   0.5055     C
N       0.9992   0.8293  0.28144     N
C       0.9996   0.8677   0.3063     C
C       0.9997   0.1165  0.34916     C
