data_I
_chemical_name_common  '/home/zhangsd/repos/MofS-CGCNN/ML/data/TSD/clean_cifs/WIFGOJ_clean'
_cell_length_a 18.28700
_cell_length_b 18.28700
_cell_length_c 18.28700
_cell_angle_alpha 105.11200
_cell_angle_beta  105.11200
_cell_angle_gamma 118.59400
_space_group_name_H-M_alt      'P 1'


loop_
_space_group_symop_operation_xyz
  'x, y, z' 

loop_
_atom_site_label
_atom_site_fract_x
_atom_site_fract_y
_atom_site_fract_z
_atom_site_type_symbol
Cl         0.0  0.15623  0.15603    Cl
C       0.0001   0.9998   0.7475     C
C       0.0002   0.7477   0.0003     C
Cl      0.0002  0.84397  0.84397    Cl
N       0.0033    0.352   0.2325     N
N       0.0049   0.9352   0.7003     N
Cl     0.00636   0.2392  0.84156    Cl
N       0.0092   0.4251   0.2231     N
C       0.0127   0.0118   0.4083     C
H       0.0188   0.0374   0.8722     H
N       0.0188   0.9488   0.4278     N
H       0.0204   0.6083   0.3611     H
H       0.0276   0.0523   0.3173     H
N       0.0414   0.4999   0.9593     N
N       0.0512    0.479     0.07     N
H       0.0584   0.2247   0.5653     H
C       0.0586   0.0587   0.8459     C
N       0.0594   0.6804   0.9592     N
N       0.0648   0.7651   0.0697     N
Cd     0.06857  0.85386  0.38283    Cd
C       0.0686   0.0674   0.3726     C
Cd     0.07124  0.86533  0.74215    Cd
N       0.0756   0.7048   0.7894     N
N       0.0756   0.8492   0.5586     N
C       0.0768   0.2722     0.48     C
N       0.0816   0.5411   0.0407     N
Cl      0.0841  0.44255  0.78885    Cl
H       0.0851   0.1233    0.861     H
N       0.0857   0.2952   0.3713     N
C        0.087   0.6449   0.3821     C
Cd     0.08855  0.57864  0.87753    Cd
N       0.1008   0.7226   0.0408     N
H       0.1026   0.1329   0.4095     H
C       0.1059   0.2796   0.5657     C
H       0.1076   0.6057   0.3841     H
H       0.1078   0.0515   0.8651     H
H       0.1117    0.053   0.3679     H
C       0.1136   0.6874   0.3226     C
H       0.1152   0.3339   0.6043     H
H       0.1165   0.6942   0.4383     H
N       0.1179   0.7638   0.3225     N
N       0.1195   0.7708   0.7675     N
N       0.1211   0.8597   0.6344     N
Cd     0.12318  0.32909  0.25785    Cd
N       0.1287   0.6756   0.8129     N
N       0.1297    0.866   0.5201     N
N        0.134   0.6541   0.2637     N
Cd     0.13467  0.87682  0.20591    Cd
N       0.1382   0.3249   0.4533     N
N       0.1403   0.7747   0.2614     N
Cd     0.14614  0.52897  0.21471    Cd
N       0.1508   0.7094   0.2264     N
Cl     0.15603      1.0  0.15623    Cl
H       0.1634   0.2852   0.5838     H
Cl       0.165  0.39776  0.15856    Cl
H       0.1652   0.1466   0.1278     H
H       0.1864   0.2427   0.1349     H
N        0.202   0.7861   0.7769     N
N       0.2046   0.8821   0.6459     N
C        0.207   0.7272   0.8056     C
C        0.209   0.8864   0.5738     C
Cd      0.2111  0.70118  0.12262    Cd
C       0.2128   0.2127   0.1541     C
N       0.2139   0.9908   0.4159     N
H       0.2216   0.7235   0.6159     H
N       0.2253   0.4867   0.3656     N
H       0.2269   0.0522   0.5633     H
N       0.2292   0.9967   0.3487     N
N       0.2349   0.3046   0.2997     N
N       0.2362   0.5587   0.3541     N
Cl      0.2392  0.00644  0.84144    Cl
H       0.2472   0.6593   0.6389     H
C       0.2523   0.2526   0.2525     C
Cl     0.25423  0.68102  0.00011    Cl
H       0.2559   0.6782   0.5617     H
H       0.2562   0.8883   0.9413     H
H       0.2623   0.2241    0.139     H
C       0.2628   0.7049   0.6179     C
H       0.2674   0.6638    0.784     H
C       0.2728   0.0784   0.4798     C
H       0.2758   0.1567   0.5803     H
H       0.2765   0.8924   0.4981     H
N       0.2774   0.3182   0.3782     N
C       0.2784    0.104   0.5638     C
C       0.2854   0.7216   0.8256     C
N       0.2856   0.9143   0.2095     N
H       0.2897   0.9724   0.0247     H
N       0.2906    0.517   0.4414     N
C       0.2951    0.913   0.5579     C
N       0.2952   0.0846   0.3708     N
Cl     0.29537    0.654  0.21157    Cl
Cd     0.29882  0.42144  0.50992    Cd
C        0.304   0.9314   0.9988     C
H       0.3045   0.7242   0.8809     H
N       0.3048   0.2351   0.2981     N
H       0.3058   0.7441   0.4223     H
H       0.3069   0.8974   0.0303     H
C       0.3126   0.6352   0.4262     C
Cd     0.31426  0.93143  0.78529    Cd
N       0.3151   0.8618   0.1867     N
Cl     0.31898  0.31909  0.57321    Cl
N       0.3196   0.2788    0.379     N
H       0.3218   0.8835   0.5777     H
N       0.3244   0.1373   0.4531     N
Cd     0.32907  0.12335  0.25784    Cd
H       0.3362   0.1202   0.6036     H
H       0.3364   0.7731   0.8253     H
H       0.3407   0.9796   0.5879     H
N       0.3459   0.6096   0.4799     N
Cl       0.346  0.55757  0.64137    Cl
N       0.3518   0.0039   0.2319     N
C       0.3551   0.7372   0.4421     C
C       0.3648    0.791   0.6774     C
N       0.3904   0.8703   0.7363     N
H       0.3917   0.7528   0.4121     H
H       0.3943   0.7784   0.5019     H
C       0.3956   0.9873   0.9991     C
Cl     0.39764   0.1648  0.15844    Cl
C       0.4032   0.9232   0.1954     C
N        0.409   0.9812     0.93     N
H       0.4204   0.8366   0.1218     H
Cd     0.42136  0.29889  0.50991    Cd
N        0.425   0.0087   0.2227     N
N       0.4413   0.7954   0.6775     N
Cl     0.44243   0.0838  0.78843    Cl
N       0.4589   0.4996   0.5405     N
C       0.4598   0.8941   0.1737     C
Cd     0.47103  0.68574  0.61717    Cd
N       0.4786   0.0505   0.0703     N
N        0.483   0.9244   0.7736     N
N       0.4871   0.2259   0.3666     N
H       0.4889   0.6636   0.4367     H
H       0.4891   0.8848   0.2187     H
N       0.5001   0.4594   0.5415     N
N       0.5004   0.0409   0.9593     N
H       0.5069   0.9416   0.1663     H
N       0.5133   0.8789   0.7386     N
N       0.5157   0.2896   0.4411     N
H       0.5166   0.7326   0.3964     H
N        0.521    0.591   0.5722     N
Cd     0.52891  0.14618  0.21461    Cd
C       0.5402   0.7146   0.4362     C
N       0.5406   0.0821   0.0407     N
Cl     0.55745   0.3463  0.64155    Cl
N       0.5576   0.2357   0.3529     N
N       0.5749    0.798   0.5841     N
H       0.5764   0.6955   0.4197     H
Cd     0.57856  0.08848  0.87738    Cd
H       0.5878   0.0834   0.3658     H
N       0.5917   0.5214   0.5719     N
C       0.5986    0.793   0.5202     C
Cl     0.60224   0.7608  0.76724    Cl
C       0.6035   0.6044   0.5917     C
N       0.6108   0.3468   0.4806     N
H       0.6294    0.027   0.3758     H
C       0.6338   0.3118    0.425     C
C        0.644   0.0867   0.3815     C
N        0.648   0.8805   0.6513     N
H       0.6512   0.2536   0.6242     H
N       0.6532   0.1338    0.264     N
Cl      0.6537  0.29525  0.21115    Cl
H       0.6594   0.4931   0.4347     H
H       0.6661   0.2704   0.7813     H
Cd     0.67091  0.92876  0.79409    Cd
N       0.6751   0.1284   0.8133     N
Cl     0.68091  0.25412  0.99989    Cl
N       0.6818     0.06   0.9592     N
N       0.6842   0.8713   0.5469     N
H       0.6851   0.7438   0.6321     H
Cd      0.6857  0.47109  0.61727    Cd
H       0.6875   0.1332   0.4393     H
C       0.6882   0.1132    0.322     C
H       0.6939   0.2482   0.5607     H
C       0.6948    0.696   0.6274     C
N       0.6954   0.9951   0.9303     N
Cd     0.70111  0.21102  0.12247    Cd
H       0.7014   0.5796   0.4162     H
Cl     0.70475   0.9159  0.35845    Cl
N       0.7048   0.0761   0.7905     N
C       0.7052   0.2625   0.6185     C
N       0.7104   0.1515   0.2261     N
N       0.7138   0.9244   0.6292     N
C       0.7139   0.5402   0.4343     C
H       0.7148   0.2986   0.8782     H
H       0.7176    0.222   0.6342     H
C       0.7204   0.2861   0.8263     C
N       0.7212   0.1002   0.0408     N
H       0.7234   0.6931   0.5905     H
C       0.7278   0.2078   0.8046     C
H       0.7296   0.5109   0.3957     H
H        0.735   0.7103   0.6827     H
C       0.7375    0.356   0.4427     C
Cl     0.74588  0.74577  0.42679    Cl
H       0.7464   0.3706   0.3976     H
C       0.7474   0.9999   0.9997     C
H       0.7518   0.3125   0.4457     H
H       0.7573   0.8922   0.9437     H
Cl      0.7608  0.60236  0.76716    Cl
N       0.7643   0.1172   0.3219     N
N       0.7649    0.063   0.0697     N
N        0.772   0.1199   0.7681     N
N       0.7741   0.1407   0.2612     N
H       0.7753   0.3406   0.8337     H
H       0.7759   0.9149   0.0382     H
H        0.778   0.4122   0.4956     H
N        0.786   0.2023   0.7773     N
C       0.7873   0.9414   0.0001     C
Cd     0.78898  0.91145  0.49009    Cd
C       0.7912   0.3662    0.678     C
C       0.7922   0.5968     0.52     C
N       0.7953   0.4424   0.6781     N
N       0.7977    0.575   0.5837     N
Cl      0.8352  0.99364  0.23284    Cl
H       0.8433   0.4236   0.1191     H
Cl     0.84377   0.9998  0.84377    Cl
N       0.8485   0.0746   0.5589     N
H       0.8534   0.9812   0.0186     H
Cd     0.85382  0.06843  0.38273    Cd
N       0.8593   0.1205   0.6334     N
N       0.8627   0.3158   0.1871     N
Cd     0.86551  0.07123  0.74216    Cd
N       0.8662   0.1302   0.5194     N
H       0.8668   0.3061   0.5543     H
H       0.8671   0.2766   0.9697     H
N       0.8698   0.3892    0.736     N
N       0.8716   0.6849   0.5467     N
Cd     0.87665  0.13449  0.20572    Cd
H       0.8767   0.7377   0.9618     H
N       0.8795   0.5129   0.7388     N
H       0.8798   0.4834    0.216     H
N       0.8801   0.6482   0.6521     N
N       0.8828   0.2047   0.6471     N
C       0.8868   0.2088    0.575     C
C        0.896   0.4598   0.1744     C
N       0.8998   0.9406    0.621     N
Cd     0.91152   0.7889  0.49008    Cd
C       0.9133   0.2948   0.5573     C
N       0.9154   0.2862   0.2106     N
Cl      0.9162  0.70463  0.35863    Cl
H       0.9166   0.2824   0.5044     H
N       0.9179   0.9586   0.4585     N
C       0.9216   0.4014   0.1944     C
N       0.9239   0.7144   0.6287     N
N       0.9254   0.4843   0.7739     N
Cd     0.92877  0.67093  0.79428    Cd
Cd     0.93157   0.3143  0.78539    Cd
C       0.9326   0.3052   0.0012     C
N        0.937   0.0067   0.7019     N
N         0.94   0.8992   0.6218     N
C       0.9413   0.7872   0.9999     C
H        0.947   0.3149   0.0587     H
H       0.9477    0.265   0.9753     H
H       0.9478   0.5111   0.1747     H
H       0.9485   0.8136   0.0563     H
N       0.9495   0.0198   0.4281     N
N       0.9591   0.9184   0.4595     N
H       0.9626   0.8348   0.9814     H
H        0.973   0.3488   0.6024     H
N       0.9802   0.4083   0.9297     N
C       0.9882   0.3965   0.0009     C
N       0.9913    0.214   0.4163     N
N       0.9933   0.6952   0.9303     N
Cl     0.99356    0.835  0.23276    Cl
N       0.9961    0.228   0.3479     N
