data_I
_chemical_name_common  '/home/zhangsd/repos/MofS-CGCNN/ML/data/TSD/clean_cifs/WIRMOB_clean'
_cell_length_a 18.97800
_cell_length_b 23.17000
_cell_length_c 23.47700
_cell_angle_alpha 87.73000
_cell_angle_beta  68.37800
_cell_angle_gamma 68.29900
_space_group_name_H-M_alt      'P 1'


loop_
_space_group_symop_operation_xyz
  'x, y, z' 

loop_
_atom_site_label
_atom_site_fract_x
_atom_site_fract_y
_atom_site_fract_z
_atom_site_type_symbol
C       0.0024   0.6886   0.9849     C
C       0.0024   0.8814   0.3083     C
C       0.0027   0.5472   0.8833     C
C       0.0027    0.607    0.209     C
C       0.0036    0.156   0.7826     C
H       0.0062   0.6411   0.2274     H
C       0.0065   0.4931   0.8445     C
C       0.0072   0.8609   0.1571     C
C       0.0074   0.5213   0.9432     C
H        0.012    0.343   0.0266     H
H       0.0145   0.0279   0.6791     H
C       0.0153   0.2022   0.0078     C
C       0.0161   0.9308   0.3264     C
H       0.0233   0.1437   0.5236     H
C       0.0242   0.7732   0.2925     C
C       0.0312   0.9459   0.5245     C
O       0.0349   0.0774   0.8489     O
C        0.036   0.2504   0.0247     C
H       0.0375   0.8634   0.5706     H
C       0.0396   0.7826   0.2248     C
H        0.041     0.16   0.0139     H
C       0.0435   0.7809   0.0177     C
C        0.045   0.8223   0.3166     C
H       0.0454   0.8703   0.0333     H
H       0.0469   0.5632   0.8615     H
C       0.0474   0.0351   0.4758     C
H       0.0527   0.2323    0.486     H
H       0.0534     0.87   0.6737     H
C        0.055   0.5294   0.1241     C
C       0.0552   0.4999   0.0266     C
H       0.0559   0.7297   0.2984     H
C       0.0578   0.1141   0.7231     C
C        0.058     0.58   0.1519     C
C       0.0581   0.8172   0.1072     C
C       0.0597   0.4144   0.7585     C
H       0.0598    0.326   0.1308     H
C       0.0604   0.6723   0.0106     C
C       0.0623   0.4671   0.7873     C
C       0.0629   0.5207   0.9672     C
C       0.0665   0.2079   0.6754     C
C       0.0728    0.826   0.0398     C
C       0.0729   0.8874   0.5512     C
C       0.0735   0.9216   0.3526     C
H       0.0761   0.2407   0.0425     H
C       0.0785   0.9794   0.5004     C
C       0.0814   0.1146   0.5053     C
C       0.0817   0.4034   0.0999     C
C       0.0819   0.7197   0.0271     C
H       0.0828   0.9558    0.365     H
H       0.0838   0.2846    0.634     H
H       0.0848   0.0675   0.9136     H
H       0.0856   0.6302   0.0172     H
C       0.0885   0.8918   0.6558     C
H       0.0897   0.0705   0.7285     H
C       0.0906   0.7385   0.1745     C
O        0.095   0.0702   0.4532     O
H       0.0965   0.0911    0.538     H
C       0.0975   0.7556   0.1155     C
H       0.0989   0.3948   0.7187     H
H       0.0992   0.5958   0.1306     H
C       0.1016    0.341   0.1092     C
C        0.102   0.0704   0.8686     C
H        0.103   0.4835   0.7662     H
C        0.103   0.8106   0.3426     C
H       0.1044   0.2258   0.8672     H
C        0.105   0.9077   0.5944     C
C         0.11   0.2083   0.4688     C
C       0.1101   0.4947   0.0601     C
C        0.112   0.2428   0.6398     C
C       0.1122   0.1487   0.6816     C
C       0.1168    0.861   0.3603     C
H        0.117   0.9512   0.8757     H
H       0.1182   0.1068   0.8595     H
H       0.1193   0.8995   0.7294     H
O        0.123   0.5434   0.9379     O
C        0.127   0.9103   0.6887     C
O       0.1319   0.6785   0.1833     O
H       0.1328   0.7692   0.3482     H
C       0.1356   0.1493   0.4767     C
H       0.1384   0.2806   0.4313     H
H       0.1406   0.5917   0.2398     H
C       0.1436   0.4252   0.0688     C
C       0.1456   0.7106   0.0556     C
H       0.1472   0.7635   0.4942     H
C       0.1515   0.9424   0.5695     C
C       0.1522   0.8498   0.4973     C
H       0.1544   0.5104   0.0378     H
H       0.1566   0.8535   0.3779     H
H       0.1585   0.2336    0.764     H
C       0.1612   0.2379    0.437     C
C       0.1622   0.2074   0.8456     C
C       0.1633   0.9493    0.503     C
C       0.1657   0.7997   0.0046     C
C       0.1662   0.9531   0.8463     C
H       0.1684   0.8411   0.1981     H
C        0.172   0.0121   0.8341     C
H       0.1733   0.6662    0.062     H
C       0.1762   0.9442   0.6625     C
C       0.1793   0.7874   0.4758     C
C       0.1828   0.3011   0.0867     C
H       0.1842   0.4749   0.8661     H
H       0.1843   0.8725    0.957     H
C       0.1869   0.9587   0.6041     C
H       0.1872   0.1736   0.9204     H
H       0.1917   0.5036   0.2883     H
C       0.1931   0.2176   0.6145     C
C       0.1939   0.2126   0.7846     C
C       0.1947   0.5784   0.2389     C
H       0.1963   0.2579   0.0914     H
C       0.1964   0.1212   0.6547     C
C       0.1971   0.4945   0.8957     C
H       0.1982   0.9738    0.484     H
C        0.199   0.8859   0.4713     C
H       0.2016   0.9568    0.685     H
C       0.2048   0.7389   0.0127     C
C       0.2107   0.1764   0.8776     C
C       0.2111   0.8305   0.9632     C
H       0.2114    0.705   0.1998     H
C       0.2121   0.6683    0.179     C
C       0.2199   0.1164   0.4572     C
H       0.2207   0.8435   0.0923     H
H       0.2208   0.9814   0.5863     H
H       0.2216   0.4617   0.9188     H
H       0.2224   0.2416    0.591     H
H       0.2247   0.8607   0.8241     H
C       0.2252   0.3848   0.0483     C
C       0.2254   0.5258   0.2677     C
C       0.2262   0.8254   0.1762     C
H       0.2265   0.0792   0.6584     H
C       0.2302   0.8996   0.8162     C
C       0.2334     0.16   0.6216     C
H       0.2407   0.0745   0.4661     H
C       0.2435   0.2072   0.4138     C
C       0.2436   0.6101   0.2095     C
C       0.2446   0.3219   0.0577     C
C       0.2449   0.0127   0.7912     C
H       0.2491   0.6626   0.1352     H
H       0.2507   0.0514   0.7822     H
H       0.2531   0.5666   0.9385     H
C       0.2537   0.7608   0.4275     C
H       0.2544   0.7992   0.2513     H
C       0.2555   0.5252   0.8621     C
C       0.2569   0.8276   0.1134     C
H       0.2674   0.3998    0.028     H
H       0.2725   0.7182   0.4123     H
O       0.2738   0.2912   0.3693     O
C       0.2742   0.8556   0.4238     C
C       0.2745    0.145   0.4244     C
C       0.2752   0.5622   0.8947     C
H       0.2762   0.4914   0.7785     H
C       0.2769    0.801   0.2081     C
C       0.2781   0.1872   0.7522     C
C       0.2871   0.7083   0.9835     C
C       0.2878   0.5181   0.8003     C
H       0.2916   0.1439   0.6029     H
C       0.2927   0.8004   0.9323     C
C       0.2955   0.1494   0.8447     C
O       0.2973   0.4121   0.3035     O
H       0.3003   0.2936   0.0441     H
H       0.3009    0.192   0.7097     H
C       0.3013   0.7945   0.4006     C
C       0.3029   0.9004   0.7745     C
C       0.3035    0.235   0.3753     C
C       0.3035   0.5066   0.2662     C
C        0.308   0.9585    0.762     C
H       0.3086   0.8781   0.4066     H
H       0.3106   0.1658   0.1039     H
H       0.3115   0.2255    0.182     H
H       0.3143   0.6667   0.9903     H
C        0.321   0.5909   0.2093     C
H       0.3231   0.8209   0.9035     H
C       0.3256   0.5919   0.8641     C
C       0.3277   0.1551   0.7823     C
C       0.3309   0.7414   0.9422     C
H        0.332   0.1219   0.4095     H
H        0.335   0.1086   0.9163     H
C       0.3369   0.4484   0.2938     C
C       0.3385   0.5494   0.7672     C
H       0.3391   0.6163   0.8869     H
C       0.3411   0.8064   0.0814     C
H       0.3415   0.3233   0.5714     H
Zn     0.34955  0.32581  0.31297    Zn
C       0.3505   0.5407   0.2381     C
H        0.352   0.7759   0.3667     H
H       0.3549   0.6129   0.1887     H
H       0.3571     0.96   0.7321     H
C       0.3579   0.5872   0.8001     C
C       0.3593    0.113   0.8714     C
C       0.3593   0.1719   0.0988     C
H       0.3595   0.5452   0.7234     H
H       0.3597   0.3261   0.6614     H
C       0.3599   0.2071   0.1462     C
C        0.361   0.7791   0.1762     C
H        0.363   0.8076   0.0381     H
O       0.3656   0.7905   0.7628     O
O       0.3661   0.2772   0.4652     O
O       0.3696   0.2811    0.232     O
C       0.3734   0.8411   0.7446     C
O       0.3788   0.1996   0.3535     O
H       0.3826   0.1023   0.0025     H
C       0.3838   0.2898   0.5783     C
H       0.3886   0.7212   0.9211     H
H       0.3896   0.4577   0.9454     H
C       0.3922   0.7839   0.1121     C
O       0.3934   0.1785   0.9615     O
C       0.3958   0.2914    0.631     C
O       0.3993   0.4387   0.3037     O
H       0.4019   0.7461   0.2464     H
H       0.4037   0.5292   0.2388     H
H       0.4046   0.9896    0.896     H
C       0.4088   0.6231   0.7676     C
C       0.4108   0.0508   0.8309     C
H       0.4148   0.2632   0.7364     H
C        0.417   0.1485   0.8567     C
H       0.4173   0.3614   0.9827     H
C       0.4206   0.1229   0.7556     C
C       0.4218   0.1235   0.9909     C
C       0.4223   0.4206   0.9176     C
O       0.4237   0.6546   0.8004     O
C       0.4256   0.7489   0.2012     C
C       0.4267   0.9928   0.8531     C
C       0.4272   0.1462   0.0454     C
C       0.4287   0.2378   0.4713     C
O       0.4307   0.6216   0.7097     O
C       0.4315   0.2148   0.1405     C
C       0.4333   0.2392   0.5347     C
C       0.4346   0.1749   0.8981     C
C        0.435   0.2507   0.1895     C
O       0.4357   0.8454   0.7046     O
C        0.439   0.3636   0.9396     C
H       0.4404   0.4639   0.8388     H
C       0.4423   0.0562   0.7691     C
H       0.4453   0.1268   0.7107     H
H       0.4473   0.8145   0.9151     H
C       0.4494   0.1532   0.7945     C
H       0.4519   0.8697   0.9929     H
H       0.4524   0.8375   0.3915     H
C       0.4534   0.4243    0.854     C
O        0.454   0.3025   0.3205     O
Zn     0.45708  0.37892  0.35788    Zn
C       0.4572   0.2458   0.6431     C
H       0.4574   0.0916   0.2814     H
Zn     0.46223  0.71716  0.76115    Zn
C       0.4683   0.2524   0.7015     C
H       0.4686   0.8458   0.4846     H
Zn      0.4688  0.22365  0.35395    Zn
O       0.4741   0.8028   0.2889     O
C       0.4754   0.9398   0.8113     C
H       0.4761   0.0937   0.9629     H
H       0.4772   0.6248   0.2286     H
C       0.4785   0.7882    0.186     C
C       0.4799   0.6857    0.165     C
C       0.4865   0.7571   0.0847     C
H       0.4865   0.8997   0.8256     H
H       0.4868   0.9919   0.3155     H
H       0.4869   0.2872   0.7009     H
C       0.4872   0.3092   0.8998     C
O       0.4874    0.201   0.4284     O
H       0.4898   0.2395   0.9604     H
C       0.4899   0.2073   0.8767     C
C       0.4912   0.0552   0.2527     C
C       0.4913   0.0039   0.7272     C
C       0.4944   0.8046   0.3997     C
C       0.4966   0.1897    0.545     C
O       0.4967   0.7498   0.8183     O
C        0.498   0.8162   0.9115     C
C       0.4985    0.628   0.1856     C
C       0.4987   0.8132   0.2274     C
C       0.4992   0.1505   0.0421     C
C       0.5008   0.8495   0.9579     C
C       0.5013   0.1868   0.7726     C
C       0.5015    0.372   0.8144     C
C        0.502   0.1838   0.0885     C
O       0.5033   0.2502   0.1817     O
C       0.5034   0.8103    0.455     C
C       0.5056   0.1954   0.6003     C
C       0.5087   0.9961   0.2728     C
C       0.5088   0.9448   0.7473     C
C       0.5101   0.7927   0.1233     C
H       0.5102   0.7605   0.0396     H
O       0.5126    0.799   0.5716     O
C       0.5128   0.6908   0.1002     C
H       0.5131   0.7128   0.2991     H
H       0.5132   0.0081   0.6845     H
H       0.5135   0.1003   0.1744     H
C       0.5135   0.2429   0.9153     C
C       0.5201   0.3143    0.835     C
C       0.5215   0.2118    0.814     C
H       0.5228   0.3752   0.7714     H
H       0.5239   0.9063   0.0371     H
C       0.5246   0.0602   0.1887     C
O       0.5259   0.1972   0.7111     O
Zn      0.5312  0.77635  0.64605    Zn
H       0.5314   0.1542   0.5154     H
C       0.5317   0.7476   0.2985     C
Zn     0.53777  0.28284  0.23885    Zn
H       0.5426   0.9084   0.7186     H
C       0.5428   0.7542   0.3569     C
Zn     0.54292  0.62108  0.64212    Zn
O        0.546   0.6975   0.6795     O
C       0.5466   0.5757    0.146     C
H       0.5476   0.1625   0.6085     H
H       0.5481   0.1303   0.0071     H
C       0.5506   0.8468   0.2055     C
H       0.5527   0.1855   0.0849     H
H       0.5547   0.8732   0.2893     H
C       0.5577   0.9438   0.2309     C
H       0.5596   0.5361   0.1612     H
C        0.561   0.6364   0.0604     C
O       0.5643   0.1546   0.2954     O
C        0.565   0.7493   0.8105     C
C       0.5654   0.8251   0.1019     C
C       0.5667   0.7608   0.4653     C
C       0.5685   0.7852   0.8595     C
O       0.5693   0.3784   0.2903     O
C       0.5713   0.7622   0.5287     C
C       0.5728   0.8538   0.9546     C
C       0.5733   0.0072   0.1469     C
C       0.5744   0.2511   0.7988     C
O       0.5763   0.3454   0.1996     O
C       0.5777   0.5794   0.0824     C
C       0.5782   0.8765   0.0091     C
C       0.5794   0.8771   0.2444     C
H       0.5827   0.6386   0.0173     H
C        0.583   0.8515   0.1433     C
H       0.5852   0.7368   0.2636     H
C       0.5892   0.9492   0.1691     C
C       0.5912   0.3769   0.2324     C
H       0.5954   0.0104    0.104     H
H       0.5963   0.4708   0.7612     H
H       0.5981   0.2539   0.7536     H
O       0.6007   0.5613   0.6963     O
C       0.6042   0.7086    0.369     C
O       0.6066   0.8215   0.0385     O
C       0.6078   0.2161   0.8879     C
H       0.6104   0.5423   0.0546     H
H       0.6114   0.2788   0.0789     H
C       0.6162   0.7102   0.4217     C
H       0.6174   0.8977   0.9975     H
O       0.6212   0.8004   0.6465     O
C       0.6266   0.1589   0.2554     C
O       0.6304   0.7189    0.768     O
O       0.6339   0.7228   0.5348     O
O       0.6344   0.2095   0.2372     O
H        0.637   0.1924   0.9619     H
C        0.639   0.2209   0.8238     C
C       0.6401   0.7929   0.8538     C
H       0.6403   0.6739   0.3386     H
H       0.6405   0.4548   0.2766     H
C       0.6407   0.8281   0.9012     C
C       0.6407    0.887   0.1286     C
C       0.6421   0.4128   0.1999     C
H       0.6429     0.04   0.2679     H
H       0.6451   0.3871   0.8113     H
H        0.648   0.2241   0.6333     H
C       0.6495   0.4593   0.7619     C
Zn     0.65045  0.67419  0.68703    Zn
H       0.6585   0.6767   0.4286     H
C       0.6589   0.1936   0.9186     C
H       0.6609   0.3837   0.1131     H
C       0.6615   0.4506   0.2328     C
C       0.6631   0.5516   0.7062     C
H        0.665   0.8914   0.0837     H
H        0.668   0.8781   0.5905     H
C       0.6691   0.2586   0.0578     C
C       0.6723   0.8449   0.2177     C
C       0.6744   0.4081   0.1359     C
H       0.6769   0.1791   0.0965     H
C        0.679   0.4091   0.7907     C
H       0.6857   0.3333   0.0097     H
H       0.6885   0.7745    0.818     H
H       0.6894   0.8342   0.8961     H
H       0.6914   0.1219   0.5934     H
C        0.692   0.0415    0.238     C
C       0.6965   0.4934   0.7338     C
C       0.6965    0.765   0.6247     C
C       0.6971   0.0996   0.2255     C
C       0.6987   0.2055   0.5994     C
H       0.6991    0.808   0.2903     H
H       0.6997   0.7064   0.9559     H
O       0.7027   0.5879   0.6965     O
C       0.7045   0.8506   0.1553     C
C       0.7073   0.1996   0.0677     C
H       0.7084   0.8561   0.3971     H
C       0.7122   0.4819   0.1997     C
C       0.7129   0.2917   0.0165     C
C       0.7219   0.8128   0.2478     C
C       0.7231    0.199   0.7919     C
H       0.7238   0.5086   0.2215     H
C       0.7248   0.4378   0.1053     C
C       0.7255    0.855   0.5756     C
C       0.7258   0.1444   0.5762     C
O       0.7262   0.7088   0.6307     O
H       0.7275   0.2818   0.5877     H
H       0.7326   0.6002    0.972     H
C       0.7431   0.1724   0.8866     C
C       0.7445   0.4748   0.1379     C
H       0.7456   0.2008   0.7487     H
C       0.7463   0.2392   0.5725     C
H       0.7469   0.4334   0.0615     H
H       0.7493   0.9486   0.2178     H
H       0.7509   0.3374   0.8648     H
C       0.7551   0.9873   0.2088     C
C       0.7554   0.6781   0.9423     C
C       0.7564   0.3899   0.7905     C
C       0.7565   0.7928   0.5862     C
H       0.7593   0.9255   0.5339     H
C       0.7666     0.84   0.3784     C
C       0.7698   0.1004   0.1838     C
H       0.7735   0.9208   0.3416     H
C       0.7738   0.1746   0.8238     C
C       0.7746   0.4742   0.7323     C
C       0.7748   0.6152   0.9517     C
H       0.7753   0.1393   0.1759     H
H       0.7776   0.7584    0.409     H
H       0.7784   0.5383   0.0812     H
H       0.7792   0.0186   0.4137     H
H       0.7793   0.1565   0.9077     H
C       0.7801   0.8836   0.5428     C
C       0.7879   0.3317    0.821     C
H       0.7886    0.295   0.8002     H
C       0.7889   0.1695   0.0368     C
C       0.7893   0.8236   0.1224     C
C       0.7952   0.2611   0.9873     C
H       0.7984   0.0432    0.315     H
C        0.801   0.1141   0.5287     C
H       0.8018   0.0262    0.516     H
C       0.8029   0.5055   0.1043     C
C       0.8036   0.8788   0.3453     C
H       0.8037   0.7421   0.9086     H
C       0.8053   0.4216   0.7611     C
C       0.8061   0.7874   0.2154     C
C       0.8069   0.7824   0.3855     C
H       0.8083   0.4964   0.7117     H
H       0.8128   0.8264   0.0796     H
C       0.8131   0.0413   0.3959     C
H       0.8157   0.1275    0.043     H
H       0.8158   0.5251   0.1339     H
C       0.8172   0.6989   0.9133     C
C       0.8207   0.2126   0.5242     C
C       0.8238   0.0558   0.3375     C
H       0.8267   0.3338    0.938     H
C        0.828   0.9879   0.1659     C
H       0.8316   0.1589   0.8019     H
C       0.8338   0.0469   0.1537     C
C       0.8343   0.2003   0.9954     C
C       0.8367   0.0507    0.497     C
C       0.8378   0.7926   0.1544     C
C       0.8388   0.7621    0.563     C
H       0.8415   0.7664    0.236     H
H       0.8434   0.1465   0.6221     H
H       0.8456   0.4896   0.9622     H
C       0.8478   0.1502   0.5027     C
C       0.8485   0.0576   0.4305     C
H       0.8528   0.2365   0.5058     H
C       0.8544   0.2894   0.9444     C
C       0.8564   0.5748   0.9312     C
H       0.8594   0.4083   0.7602     H
H       0.8616   0.7194   0.5687     H
C       0.8644   0.8507   0.5233     C
H       0.8672   0.2308   0.6518     H
O       0.8681   0.3215   0.8167     O
C        0.873   0.0897   0.3113     C
O        0.877   0.4566   0.0621     O
H       0.8807   0.1005   0.2706     H
H       0.8818   0.8932   0.1405     H
H        0.883   0.0488   0.1243     H
C       0.8832    0.139   0.6397     C
C       0.8878   0.8513   0.3184     C
C        0.888   0.7572   0.3602     C
C       0.8899   0.5053   0.9399     C
C         0.89   0.7917   0.5312     C
C        0.895   0.0923   0.4056     C
H       0.8956   0.7742   0.1328     H
C        0.897   0.1894   0.6574     C
H        0.897   0.5165   0.2338     H
C        0.898   0.9296   0.1314     C
C       0.8984    0.659   0.8908     C
H       0.9008   0.4042   0.8694     H
H       0.9011   0.6052   0.2813     H
C       0.9025   0.2444   0.8845     C
H       0.9035   0.9089    0.462     H
O        0.905   0.9298   0.5468     O
C       0.9094   0.2615   0.8255     C
H       0.9103   0.9295   0.2715     H
C       0.9115   0.1082   0.3442     C
H       0.9144   0.3698   0.9828     H
H       0.9152   0.9325   0.0864     H
H       0.9162   0.7154    0.366     H
H       0.9172   0.0442    0.635     H
C       0.9181   0.2803   0.9729     C
C       0.9183   0.5966   0.9001     C
C       0.9186   0.8854   0.4947     C
C       0.9215   0.0206   0.4996     C
H       0.9239   0.7593   0.9575     H
C       0.9265   0.0784   0.6474     C
C       0.9271   0.1126   0.4488     C
C       0.9272    0.174   0.9602     C
C       0.9335   0.7921   0.3246     C
C       0.9371   0.4793   0.0328     C
C       0.9377   0.5329   0.2127     C
C       0.9396   0.3277   0.9894     C
H       0.9402    0.674   0.8692     H
C       0.9403   0.5856   0.2415     C
C       0.9419   0.1828   0.8928     C
C        0.942     0.42   0.8481     C
C       0.9422   0.8859   0.2769     C
H       0.9441   0.2703   0.7016     H
C       0.9448   0.5001   0.9734     C
C        0.945   0.4706   0.8759     C
H       0.9466     0.13   0.3263     H
H       0.9473   0.7677    0.514     H
C       0.9526   0.9649   0.5242     C
H       0.9531   0.4368   0.1385     H
H       0.9546   0.1297   0.9667     H
C        0.955   0.1777   0.6834     C
C       0.9565   0.2191   0.9823     C
H        0.959     0.84   0.9861     H
C       0.9604   0.2174   0.7752     C
H       0.9625   0.1366   0.4294     H
C        0.964   0.7496   0.9753     C
O       0.9651   0.9226   0.1511     O
C       0.9688   0.0541   0.4755     C
C       0.9758   0.2268   0.7075     C
H       0.9767   0.8563   0.4764     H
C       0.9839   0.0692   0.6736     C
C       0.9847   0.7978   0.9922     C
H       0.9855   0.9721   0.3209     H
H        0.988    0.657   0.9734     H
C       0.9926   0.4787   0.0568     C
C       0.9928   0.1391   0.8429     C
C       0.9935   0.5069   0.1555     C
H       0.9938   0.3589   0.7726     H
C       0.9964    0.844   0.2174     C
C       0.9973    0.393    0.791     C
C       0.9973   0.4528   0.1167     C
C       0.9976   0.1186   0.6917     C
C       0.9976   0.3114   0.0151     C
