data_I
_chemical_name_common  '/home/zhangsd/repos/MofS-CGCNN/ML/data/TSD/clean_cifs/WIZKOH_clean'
_cell_length_a 15.65300
_cell_length_b 13.53300
_cell_length_c 13.61500
_cell_angle_alpha 90.00000
_cell_angle_beta  103.91800
_cell_angle_gamma 90.00000
_space_group_name_H-M_alt      'P 1'


loop_
_space_group_symop_operation_xyz
  'x, y, z' 

loop_
_atom_site_label
_atom_site_fract_x
_atom_site_fract_y
_atom_site_fract_z
_atom_site_type_symbol
C       0.0176   0.2299   0.1469     C
C       0.0176   0.2701   0.6469     C
C       0.0177   0.6749   0.8587     C
C       0.0177   0.8251   0.3587     C
H       0.0206   0.0336   0.6609     H
H       0.0206   0.4664   0.1609     H
H       0.0208   0.6745   0.3642     H
H       0.0208   0.8255   0.8642     H
C       0.0417   0.0995    0.662     C
C       0.0417   0.4005    0.162     C
H        0.104   0.5076    0.909     H
H        0.104   0.9924    0.409     H
C        0.106   0.2153    0.168     C
C        0.106   0.2847    0.668     C
C       0.1138   0.6564   0.8861     C
C       0.1138   0.8436   0.3861     C
H       0.1289   0.1502   0.1687     H
H       0.1289   0.3498   0.6687     H
C       0.1294   0.1148    0.684     C
C       0.1294   0.3852    0.184     C
C       0.1442   0.5603   0.9094     C
C       0.1442   0.9397   0.4094     C
H       0.1572   0.7043   0.3785     H
H       0.1572   0.7957   0.8785     H
N       0.1611   0.2072   0.6878     N
N       0.1611   0.2928   0.1878     N
H       0.1687   0.0603   0.6967     H
H       0.1687   0.4397   0.1967     H
C       0.1751   0.7289   0.8919     C
C       0.1751   0.7711   0.3919     C
C       0.2327   0.5435   0.9328     C
C       0.2327   0.9565   0.4328     C
H       0.2523   0.0225   0.4471     H
H       0.2523   0.4775   0.9471     H
C       0.2556   0.2199   0.7083     C
C       0.2556   0.2801   0.2083     C
H       0.2633   0.1645   0.3065     H
H       0.2633   0.3355   0.8065     H
C       0.2636   0.7051   0.9172     C
C       0.2636   0.7949   0.4172     C
H       0.2716   0.1112   0.6122     H
H       0.2716   0.3888   0.1122     H
N       0.2946   0.6144    0.937     N
N       0.2946   0.8856    0.437     N
C       0.2963   0.2075   0.2746     C
C       0.2963   0.2925   0.7746     C
C       0.3018   0.1589   0.6592     C
C       0.3018   0.3411   0.1592     C
H       0.3048   0.7428   0.4206     H
H       0.3048   0.7572   0.9206     H
C       0.3879   0.1999   0.2932     C
C       0.3879   0.3001   0.7932     C
O       0.3909   0.0488   0.3767     O
O       0.3909   0.4512   0.8767     O
C       0.3926    0.167   0.6784     C
C       0.3926    0.333   0.1784     C
O       0.3981   0.0303   0.5779     O
O       0.3981   0.4697   0.0779     O
Cu     0.42737  0.55758  0.97554    Cu
Cu     0.42737  0.94242  0.47554    Cu
C       0.4339   0.1262   0.3687     C
C       0.4339   0.3738   0.8687     C
C       0.4359   0.2368   0.7459     C
C       0.4359   0.2632   0.2459     C
C       0.4401    0.103   0.6207     C
C       0.4401    0.397   0.1207     C
O       0.4827   0.6274   0.8815     O
O       0.4827   0.8726   0.3815     O
O       0.4889   0.6452   0.0836     O
O       0.4889   0.8548   0.5836     O
H       0.4983   0.2419   0.7603     H
H       0.4983   0.2581   0.2603     H
H       0.5017   0.7419   0.7397     H
H       0.5017   0.7581   0.2397     H
O       0.5111   0.1452   0.4164     O
O       0.5111   0.3548   0.9164     O
O       0.5173   0.1274   0.6185     O
O       0.5173   0.3726   0.1185     O
C       0.5599    0.603   0.8793     C
C       0.5599    0.897   0.3793     C
C       0.5641   0.7368   0.7541     C
C       0.5641   0.7632   0.2541     C
C       0.5661   0.6262   0.1313     C
C       0.5661   0.8738   0.6313     C
Cu     0.57263  0.05758  0.52446    Cu
Cu     0.57263  0.44242  0.02446    Cu
O       0.6019   0.5303   0.9221     O
O       0.6019   0.9697   0.4221     O
C       0.6074    0.667   0.8216     C
C       0.6074    0.833   0.3216     C
O       0.6091   0.5488   0.1233     O
O       0.6091   0.9512   0.6233     O
C       0.6121   0.6999   0.2068     C
C       0.6121   0.8001   0.7068     C
H       0.6952   0.2428   0.0794     H
H       0.6952   0.2572   0.5794     H
C       0.6982   0.6589   0.8408     C
C       0.6982   0.8411   0.3408     C
C       0.7037   0.7075   0.2254     C
C       0.7037   0.7925   0.7254     C
N       0.7054   0.1144    0.563     N
N       0.7054   0.3856    0.063     N
H       0.7284   0.6112   0.8878     H
H       0.7284   0.8888   0.3878     H
C       0.7364   0.2051   0.5828     C
C       0.7364   0.2949   0.0828     C
H       0.7367   0.6645   0.1935     H
H       0.7367   0.8355   0.6935     H
C       0.7444   0.7199   0.7917     C
C       0.7444   0.7801   0.2917     C
H       0.7477   0.5225   0.0529     H
H       0.7477   0.9775   0.5529     H
C       0.7673   0.0435   0.5672     C
C       0.7673   0.4565   0.0672     C
C       0.8249   0.2289   0.6081     C
C       0.8249   0.2711   0.1081     C
H       0.8313   0.5603   0.8033     H
H       0.8313   0.9397   0.3033     H
N       0.8389   0.7072   0.8122     N
N       0.8389   0.7928   0.3122     N
H       0.8428   0.2043   0.1215     H
H       0.8428   0.2957   0.6215     H
C       0.8558   0.0603   0.5906     C
C       0.8558   0.4397   0.0906     C
C       0.8706   0.6148    0.816     C
C       0.8706   0.8852    0.316     C
H       0.8711   0.6502   0.3313     H
H       0.8711   0.8498   0.8313     H
C       0.8862   0.1564   0.6139     C
C       0.8862   0.3436   0.1139     C
C        0.894   0.7153    0.332     C
C        0.894   0.7847    0.832     C
H        0.896   0.0076    0.591     H
H        0.896   0.4924    0.091     H
C       0.9583   0.5995    0.838     C
C       0.9583   0.9005    0.338     C
H       0.9792   0.1745   0.1358     H
H       0.9792   0.3255   0.6358     H
H       0.9794   0.5336   0.8391     H
H       0.9794   0.9664   0.3391     H
C       0.9823   0.1749   0.6413     C
C       0.9823   0.3251   0.1413     C
C       0.9824   0.7299   0.3531     C
C       0.9824   0.7701   0.8531     C
