data_I
_chemical_name_common  '/home/zhangsd/repos/MofS-CGCNN/ML/data/TSD/clean_cifs/WOJZIG_clean'
_cell_length_a 24.57110
_cell_length_b 13.29630
_cell_length_c 14.73130
_cell_angle_alpha 90.00000
_cell_angle_beta  96.73500
_cell_angle_gamma 90.00000
_space_group_name_H-M_alt      'P 1'


loop_
_space_group_symop_operation_xyz
  'x, y, z' 

loop_
_atom_site_label
_atom_site_fract_x
_atom_site_fract_y
_atom_site_fract_z
_atom_site_type_symbol
H        0.002   0.3297   0.8806     H
H        0.002   0.6703   0.3806     H
C       0.0089   0.0944   0.5784     C
C       0.0089   0.9056   0.0784     C
C       0.0115    0.262   0.8847     C
C       0.0115    0.738   0.3847     C
C       0.0232   0.1957     0.58     C
C       0.0232   0.8043     0.08     C
H       0.0326    0.047   0.5584     H
H       0.0326    0.953   0.0584     H
C       0.0401   0.0635   0.8941     C
C       0.0401   0.9365   0.3941     C
H       0.0493   0.0043   0.3977     H
H       0.0493   0.9957   0.8977     H
C       0.0598   0.2314   0.8553     C
C       0.0598   0.7686   0.3553     C
C       0.0737   0.2281    0.539     C
C       0.0737   0.7719    0.039     C
C        0.076   0.1311   0.8613     C
C        0.076   0.8689   0.3613     C
H       0.0821   0.2784   0.8309     H
H       0.0821   0.7216   0.3309     H
O       0.0869   0.3197   0.5438     O
O       0.0869   0.6803   0.0438     O
O       0.1006    0.166   0.5007     O
O       0.1006    0.834   0.0007     O
C         0.13   0.0991   0.8366     C
C         0.13   0.9009   0.3366     C
H       0.1325   0.1922   0.7277     H
H       0.1325   0.8078   0.2277     H
H       0.1455   0.0122   0.4296     H
H       0.1455   0.9878   0.9296     H
C        0.153   0.1449   0.7636     C
C        0.153   0.8551   0.2636     C
C       0.1608    0.024   0.8849     C
C       0.1608    0.976   0.3849     C
Eu     0.17123   0.2925   0.4698    Eu
Eu     0.17123   0.7075   0.9698    Eu
O       0.1955   0.2343   0.6206     O
O       0.1955   0.7657   0.1206     O
O       0.2016   0.4396   0.5624     O
O       0.2016   0.5604   0.0624     O
C       0.2049   0.1214   0.7438     C
C       0.2049   0.8786   0.2438     C
C       0.2138   0.0024   0.8673     C
C       0.2138   0.9976   0.3673     C
O       0.2251    0.147   0.4576     O
O       0.2251    0.853   0.9576     O
O      0.22569   0.3507   0.3539     O
O      0.22569   0.6493   0.8539     O
C       0.2269   0.1724   0.6635     C
C       0.2269   0.8276   0.1635     C
H       0.2284   0.4616   0.2133     H
H       0.2284   0.5384   0.7133     H
C       0.2358   0.0519   0.7976     C
C       0.2358   0.9481   0.2976     C
C        0.248   0.0736   0.4232     C
C        0.248   0.9264   0.9232     C
C        0.252   0.4264   0.5768     C
C        0.252   0.5736   0.0768     C
C       0.2642   0.4481   0.2024     C
C       0.2642   0.5519   0.7024     C
H       0.2716   0.0384   0.7867     H
H       0.2716   0.9616   0.2867     H
C       0.2731   0.3276   0.3365     C
C       0.2731   0.6724   0.8365     C
O      0.27431   0.1493   0.6461     O
O      0.27431   0.8507   0.1461     O
O       0.2749    0.353   0.5424     O
O       0.2749    0.647   0.0424     O
C       0.2862   0.4976   0.1327     C
C       0.2862   0.5024   0.6327     C
C       0.2951   0.3786   0.2562     C
C       0.2951   0.6214   0.7562     C
O       0.2984   0.0604   0.4376     O
O       0.2984   0.9396   0.9376     O
O       0.3045   0.2657   0.3794     O
O       0.3045   0.7343   0.8794     O
Eu     0.32877   0.2075   0.5302    Eu
Eu     0.32877   0.7925   0.0302    Eu
C       0.3392    0.476   0.1151     C
C       0.3392    0.524   0.6151     C
C        0.347   0.3551   0.2364     C
C        0.347   0.6449   0.7364     C
H       0.3545   0.4878   0.5704     H
H       0.3545   0.5122   0.0704     H
H       0.3675   0.3078   0.2723     H
H       0.3675   0.6922   0.7723     H
C         0.37   0.4009   0.1634     C
C         0.37   0.5991   0.6634     C
O       0.3994    0.334   0.4993     O
O       0.3994    0.666   0.9993     O
O       0.4131   0.1803   0.4562     O
O       0.4131   0.8197   0.9562     O
H       0.4179   0.2216   0.1691     H
H       0.4179   0.7784   0.6691     H
C        0.424   0.3689   0.1387     C
C        0.424   0.6311   0.6387     C
C       0.4263   0.2719    0.461     C
C       0.4263   0.7281    0.961     C
C       0.4402   0.2686   0.1447     C
C       0.4402   0.7314   0.6447     C
H       0.4507   0.4957   0.6023     H
H       0.4507   0.5043   0.1023     H
C       0.4599   0.4365   0.1059     C
C       0.4599   0.5635   0.6059     C
H       0.4674    0.453   0.4416     H
H       0.4674    0.547   0.9416     H
C       0.4768   0.3043     0.42     C
C       0.4768   0.6957     0.92     C
C       0.4885    0.238   0.1153     C
C       0.4885    0.762   0.6153     C
C       0.4911   0.4056   0.4216     C
C       0.4911   0.5944   0.9216     C
H        0.498   0.1703   0.1194     H
H        0.498   0.8297   0.6194     H
H        0.502   0.1703   0.3806     H
H        0.502   0.8297   0.8806     H
C       0.5089   0.4056   0.0784     C
C       0.5089   0.5944   0.5784     C
C       0.5115    0.238   0.3847     C
C       0.5115    0.762   0.8847     C
C       0.5232   0.3043     0.08     C
C       0.5232   0.6957     0.58     C
H       0.5326    0.453   0.0584     H
H       0.5326    0.547   0.5584     H
C       0.5401   0.4365   0.3941     C
C       0.5401   0.5635   0.8941     C
H       0.5493   0.4957   0.8977     H
H       0.5493   0.5043   0.3977     H
C       0.5598   0.2686   0.3553     C
C       0.5598   0.7314   0.8553     C
C       0.5737   0.2719    0.039     C
C       0.5737   0.7281    0.539     C
C        0.576   0.3689   0.3613     C
C        0.576   0.6311   0.8613     C
H       0.5821   0.2216   0.3309     H
H       0.5821   0.7784   0.8309     H
O       0.5869   0.1803   0.0438     O
O       0.5869   0.8197   0.5438     O
O       0.6006    0.334   0.0007     O
O       0.6006    0.666   0.5007     O
C         0.63   0.4009   0.3366     C
C         0.63   0.5991   0.8366     C
H       0.6325   0.3078   0.2277     H
H       0.6325   0.6922   0.7277     H
H       0.6455   0.4878   0.9296     H
H       0.6455   0.5122   0.4296     H
C        0.653   0.3551   0.2636     C
C        0.653   0.6449   0.7636     C
C       0.6608    0.476   0.3849     C
C       0.6608    0.524   0.8849     C
Eu     0.67123   0.2075   0.9698    Eu
Eu     0.67123   0.7925   0.4698    Eu
O       0.6955   0.2657   0.1206     O
O       0.6955   0.7343   0.6206     O
O       0.7016   0.0604   0.0624     O
O       0.7016   0.9396   0.5624     O
C       0.7049   0.3786   0.2438     C
C       0.7049   0.6214   0.7438     C
C       0.7138   0.4976   0.3673     C
C       0.7138   0.5024   0.8673     C
O       0.7251    0.353   0.9576     O
O       0.7251    0.647   0.4576     O
O      0.72569   0.1493   0.8539     O
O      0.72569   0.8507   0.3539     O
C       0.7269   0.3276   0.1635     C
C       0.7269   0.6724   0.6635     C
H       0.7284   0.0384   0.7133     H
H       0.7284   0.9616   0.2133     H
C       0.7358   0.4481   0.2976     C
C       0.7358   0.5519   0.7976     C
C        0.748   0.4264   0.9232     C
C        0.748   0.5736   0.4232     C
C        0.752   0.0736   0.0768     C
C        0.752   0.9264   0.5768     C
C       0.7642   0.0519   0.7024     C
C       0.7642   0.9481   0.2024     C
H       0.7716   0.4616   0.2867     H
H       0.7716   0.5384   0.7867     H
C       0.7731   0.1724   0.8365     C
C       0.7731   0.8276   0.3365     C
O      0.77431   0.3507   0.1461     O
O      0.77431   0.6493   0.6461     O
O       0.7749    0.147   0.0424     O
O       0.7749    0.853   0.5424     O
C       0.7862   0.0024   0.6327     C
C       0.7862   0.9976   0.1327     C
C       0.7951   0.1214   0.7562     C
C       0.7951   0.8786   0.2562     C
O       0.7984   0.4396   0.9376     O
O       0.7984   0.5604   0.4376     O
O       0.8045   0.2343   0.8794     O
O       0.8045   0.7657   0.3794     O
Eu     0.82877   0.2925   0.0302    Eu
Eu     0.82877   0.7075   0.5302    Eu
C       0.8392    0.024   0.6151     C
C       0.8392    0.976   0.1151     C
C        0.847   0.1449   0.7364     C
C        0.847   0.8551   0.2364     C
H       0.8545   0.0122   0.0704     H
H       0.8545   0.9878   0.5704     H
H       0.8675   0.1922   0.7723     H
H       0.8675   0.8078   0.2723     H
C         0.87   0.0991   0.6634     C
C         0.87   0.9009   0.1634     C
O       0.8994    0.166   0.9993     O
O       0.8994    0.834   0.4993     O
O       0.9131   0.3197   0.9562     O
O       0.9131   0.6803   0.4562     O
H       0.9179   0.2784   0.6691     H
H       0.9179   0.7216   0.1691     H
C        0.924   0.1311   0.6387     C
C        0.924   0.8689   0.1387     C
C       0.9263   0.2281    0.961     C
C       0.9263   0.7719    0.461     C
C       0.9402   0.2314   0.6447     C
C       0.9402   0.7686   0.1447     C
H       0.9507   0.0043   0.1023     H
H       0.9507   0.9957   0.6023     H
C       0.9599   0.0635   0.6059     C
C       0.9599   0.9365   0.1059     C
H       0.9674    0.047   0.9416     H
H       0.9674    0.953   0.4416     H
C       0.9768   0.1957     0.92     C
C       0.9768   0.8043     0.42     C
C       0.9885    0.262   0.6153     C
C       0.9885    0.738   0.1153     C
C       0.9911   0.0944   0.9216     C
C       0.9911   0.9056   0.4216     C
H        0.998   0.3297   0.6194     H
H        0.998   0.6703   0.1194     H
