data_I
_chemical_name_common  '/home/zhangsd/repos/MofS-CGCNN/ML/data/TSD/clean_cifs/WOJZAY_clean'
_cell_length_a 24.84430
_cell_length_b 12.88360
_cell_length_c 15.05380
_cell_angle_alpha 90.00000
_cell_angle_beta  96.70900
_cell_angle_gamma 90.00000
_space_group_name_H-M_alt      'P 1'


loop_
_space_group_symop_operation_xyz
  'x, y, z' 

loop_
_atom_site_label
_atom_site_fract_x
_atom_site_fract_y
_atom_site_fract_z
_atom_site_type_symbol
H       0.0001   0.3391   0.8792     H
H       0.0001   0.6609   0.3792     H
C      0.00795   0.0972   0.5778     C
C      0.00795   0.9028   0.0778     C
C       0.0103   0.2697   0.8838     C
C       0.0103   0.7303   0.3838     C
C       0.0222   0.2007     0.58     C
C       0.0222   0.7993     0.08     C
H       0.0308   0.0485   0.5563     H
H       0.0308   0.9515   0.0563     H
C      0.04022   0.0653   0.8928     C
C      0.04022   0.9347   0.3928     C
H       0.0495   0.0047   0.3956     H
H       0.0495   0.9953   0.8956     H
C       0.0585   0.2388   0.8536     C
C       0.0585   0.7612   0.3536     C
C      0.07176   0.2346   0.5383     C
C      0.07176   0.7654   0.0383     C
C      0.07468    0.136   0.8593     C
C      0.07468    0.864   0.3593     C
H       0.0802   0.2876   0.8292     H
H       0.0802   0.7124   0.3292     H
O      0.08481   0.3293   0.5403     O
O      0.08481   0.6707   0.0403     O
O       0.0985   0.1679   0.5016     O
O       0.0985   0.8321   0.0016     O
C      0.12865   0.1036   0.8351     C
C      0.12865   0.8964   0.3351     C
H       0.1295   0.1976   0.7275     H
H       0.1295   0.8024   0.2275     H
H       0.1456   0.0047   0.4312     H
H       0.1456   0.9953   0.9312     H
C      0.15035   0.1505   0.7635     C
C      0.15035   0.8495   0.2635     C
C      0.16011   0.0306   0.8856     C
C      0.16011   0.9694   0.3856     C
Ce     0.17119  0.29696  0.46617    Ce
Ce     0.17119  0.70304  0.96617    Ce
O      0.19371   0.2411   0.6215     O
O      0.19371   0.7589   0.1215     O
O      0.20203   0.4527   0.5606     O
O      0.20203   0.5473   0.0606     O
C      0.20284   0.1278   0.7451     C
C      0.20284   0.8722   0.2451     C
C        0.213   0.0097   0.8689     C
C        0.213   0.9903   0.3689     C
C       0.2245   0.1785   0.6659     C
C       0.2245   0.8215   0.1659     C
O      0.22655   0.1394   0.4633     O
O      0.22655   0.8606   0.9633     O
O      0.22817   0.3443   0.3484     O
O      0.22817   0.6557   0.8484     O
H       0.2302    0.452   0.2103     H
H       0.2302    0.548   0.7103     H
C      0.23403   0.0601   0.7996     C
C      0.23403   0.9399   0.2996     C
C      0.24784   0.0639    0.427     C
C      0.24784   0.9361    0.927     C
C      0.25216   0.4361    0.573     C
C      0.25216   0.5639    0.073     C
C      0.26597   0.4399   0.2004     C
C      0.26597   0.5601   0.7004     C
H       0.2698    0.048   0.7897     H
H       0.2698    0.952   0.2897     H
O      0.27183   0.1557   0.6516     O
O      0.27183   0.8443   0.1516     O
O      0.27345   0.3606   0.5367     O
O      0.27345   0.6394   0.0367     O
C       0.2755   0.3215   0.3341     C
C       0.2755   0.6785   0.8341     C
C        0.287   0.4903   0.1311     C
C        0.287   0.5097   0.6311     C
C      0.29716   0.3722   0.2549     C
C      0.29716   0.6278   0.7549     C
O      0.29797   0.0473   0.4394     O
O      0.29797   0.9527   0.9394     O
O      0.30629   0.2589   0.3785     O
O      0.30629   0.7411   0.8785     O
Ce     0.32881  0.20304  0.53383    Ce
Ce     0.32881  0.79696  0.03383    Ce
C      0.33989   0.4694   0.1144     C
C      0.33989   0.5306   0.6144     C
C      0.34965   0.3495   0.2365     C
C      0.34965   0.6505   0.7365     C
H       0.3544   0.4953   0.5688     H
H       0.3544   0.5047   0.0688     H
H       0.3705   0.3024   0.2725     H
H       0.3705   0.6976   0.7725     H
C      0.37135   0.3964   0.1649     C
C      0.37135   0.6036   0.6649     C
O       0.4015   0.3321   0.4984     O
O       0.4015   0.6679   0.9984     O
O      0.41519   0.1707   0.4597     O
O      0.41519   0.8293   0.9597     O
H       0.4198   0.2124   0.1708     H
H       0.4198   0.7876   0.6708     H
C      0.42532    0.364   0.1407     C
C      0.42532    0.636   0.6407     C
C      0.42824   0.2654   0.4617     C
C      0.42824   0.7346   0.9617     C
C       0.4415   0.2612   0.1464     C
C       0.4415   0.7388   0.6464     C
H       0.4505   0.4953   0.6044     H
H       0.4505   0.5047   0.1044     H
C      0.45978   0.4347   0.1072     C
C      0.45978   0.5653   0.6072     C
H       0.4692   0.4515   0.4437     H
H       0.4692   0.5485   0.9437     H
C       0.4778   0.2993     0.42     C
C       0.4778   0.7007     0.92     C
C       0.4897   0.2303   0.1162     C
C       0.4897   0.7697   0.6162     C
C      0.49205   0.4028   0.4222     C
C      0.49205   0.5972   0.9222     C
H       0.4999   0.1609   0.1208     H
H       0.4999   0.8391   0.6208     H
H       0.5001   0.1609   0.3792     H
H       0.5001   0.8391   0.8792     H
C      0.50795   0.4028   0.0778     C
C      0.50795   0.5972   0.5778     C
C       0.5103   0.2303   0.3838     C
C       0.5103   0.7697   0.8838     C
C       0.5222   0.2993     0.08     C
C       0.5222   0.7007     0.58     C
H       0.5308   0.4515   0.0563     H
H       0.5308   0.5485   0.5563     H
C      0.54022   0.4347   0.3928     C
C      0.54022   0.5653   0.8928     C
H       0.5495   0.4953   0.8956     H
H       0.5495   0.5047   0.3956     H
C       0.5585   0.2612   0.3536     C
C       0.5585   0.7388   0.8536     C
C      0.57176   0.2654   0.0383     C
C      0.57176   0.7346   0.5383     C
C      0.57468    0.364   0.3593     C
C      0.57468    0.636   0.8593     C
H       0.5802   0.2124   0.3292     H
H       0.5802   0.7876   0.8292     H
O      0.58481   0.1707   0.0403     O
O      0.58481   0.8293   0.5403     O
O       0.5985   0.3321   0.0016     O
O       0.5985   0.6679   0.5016     O
C      0.62865   0.3964   0.3351     C
C      0.62865   0.6036   0.8351     C
H       0.6295   0.3024   0.2275     H
H       0.6295   0.6976   0.7275     H
H       0.6456   0.4953   0.9312     H
H       0.6456   0.5047   0.4312     H
C      0.65035   0.3495   0.2635     C
C      0.65035   0.6505   0.7635     C
C      0.66011   0.4694   0.3856     C
C      0.66011   0.5306   0.8856     C
Ce     0.67119  0.20304  0.96617    Ce
Ce     0.67119  0.79696  0.46617    Ce
O      0.69371   0.2589   0.1215     O
O      0.69371   0.7411   0.6215     O
O      0.70203   0.0473   0.0606     O
O      0.70203   0.9527   0.5606     O
C      0.70284   0.3722   0.2451     C
C      0.70284   0.6278   0.7451     C
C        0.713   0.4903   0.3689     C
C        0.713   0.5097   0.8689     C
C       0.7245   0.3215   0.1659     C
C       0.7245   0.6785   0.6659     C
O      0.72655   0.3606   0.9633     O
O      0.72655   0.6394   0.4633     O
O      0.72817   0.1557   0.8484     O
O      0.72817   0.8443   0.3484     O
H       0.7302    0.048   0.7103     H
H       0.7302    0.952   0.2103     H
C      0.73403   0.4399   0.2996     C
C      0.73403   0.5601   0.7996     C
C      0.74784   0.4361    0.927     C
C      0.74784   0.5639    0.427     C
C      0.75216   0.0639    0.073     C
C      0.75216   0.9361    0.573     C
C      0.76597   0.0601   0.7004     C
C      0.76597   0.9399   0.2004     C
H       0.7698    0.452   0.2897     H
H       0.7698    0.548   0.7897     H
O      0.77183   0.3443   0.1516     O
O      0.77183   0.6557   0.6516     O
O      0.77345   0.1394   0.0367     O
O      0.77345   0.8606   0.5367     O
C       0.7755   0.1785   0.8341     C
C       0.7755   0.8215   0.3341     C
C        0.787   0.0097   0.6311     C
C        0.787   0.9903   0.1311     C
C      0.79716   0.1278   0.7549     C
C      0.79716   0.8722   0.2549     C
O      0.79797   0.4527   0.9394     O
O      0.79797   0.5473   0.4394     O
O      0.80629   0.2411   0.8785     O
O      0.80629   0.7589   0.3785     O
Ce     0.82881  0.29696  0.03383    Ce
Ce     0.82881  0.70304  0.53383    Ce
C      0.83989   0.0306   0.6144     C
C      0.83989   0.9694   0.1144     C
C      0.84965   0.1505   0.7365     C
C      0.84965   0.8495   0.2365     C
H       0.8544   0.0047   0.0688     H
H       0.8544   0.9953   0.5688     H
H       0.8705   0.1976   0.7725     H
H       0.8705   0.8024   0.2725     H
C      0.87135   0.1036   0.6649     C
C      0.87135   0.8964   0.1649     C
O       0.9015   0.1679   0.9984     O
O       0.9015   0.8321   0.4984     O
O      0.91519   0.3293   0.9597     O
O      0.91519   0.6707   0.4597     O
H       0.9198   0.2876   0.6708     H
H       0.9198   0.7124   0.1708     H
C      0.92532    0.136   0.6407     C
C      0.92532    0.864   0.1407     C
C      0.92824   0.2346   0.9617     C
C      0.92824   0.7654   0.4617     C
C       0.9415   0.2388   0.6464     C
C       0.9415   0.7612   0.1464     C
H       0.9505   0.0047   0.1044     H
H       0.9505   0.9953   0.6044     H
C      0.95978   0.0653   0.6072     C
C      0.95978   0.9347   0.1072     C
H       0.9692   0.0485   0.9437     H
H       0.9692   0.9515   0.4437     H
C       0.9778   0.2007     0.92     C
C       0.9778   0.7993     0.42     C
C       0.9897   0.2697   0.6162     C
C       0.9897   0.7303   0.1162     C
C      0.99205   0.0972   0.9222     C
C      0.99205   0.9028   0.4222     C
H       0.9999   0.3391   0.6208     H
H       0.9999   0.6609   0.1208     H
