data_I
_chemical_name_common  '/home/zhangsd/repos/MofS-CGCNN/ML/data/TSD/clean_cifs/WOSHET_clean'
_cell_length_a 11.44600
_cell_length_b 13.43400
_cell_length_c 15.35200
_cell_angle_alpha 79.59000
_cell_angle_beta  76.45000
_cell_angle_gamma 79.82000
_space_group_name_H-M_alt      'P 1'


loop_
_space_group_symop_operation_xyz
  'x, y, z' 

loop_
_atom_site_label
_atom_site_fract_x
_atom_site_fract_y
_atom_site_fract_z
_atom_site_type_symbol
C       0.0006    0.317   0.6791     C
C       0.0059   0.3463   0.9165     C
C       0.0116    0.425   0.6388     C
H        0.017   0.6379   0.1392     H
C        0.021   0.2294   0.3695     C
C       0.0216   0.6391   0.9274     C
C        0.022   0.4122   0.3795     C
C        0.023   0.8779   0.2334     C
H       0.0395    0.079   0.3651     H
H       0.0627   0.7595   0.6256     H
C       0.0655   0.6112    0.009     C
H       0.0656   0.6136   0.8751     H
N        0.069   0.4966    0.327     N
C       0.0794   0.3082   0.3703     C
N       0.0797    0.558   0.5627     N
C       0.0841   0.1317   0.3612     C
C       0.0853   0.2965   0.0746     C
C       0.0859   0.1428   0.7028     C
C       0.0991     0.24   0.6587     C
N       0.1008   0.4557   0.5731     N
N       0.1031   0.7003   0.2623     N
C         0.11    0.281   0.9257     C
H       0.1126   0.2804   0.1287     H
C       0.1141   0.7968   0.2183     C
H       0.1487   0.0896   0.6908     H
N       0.1531   0.2553   0.0011     N
H       0.1541   0.2522   0.8751     H
H       0.1699   0.2543   0.6174     H
C        0.177   0.5417   0.0118     C
Cu     0.19201  0.51428  0.21743    Cu
Cu     0.20021  0.63781  0.47923    Cu
C       0.2028   0.2854   0.3578     C
N       0.2032   0.1094   0.3484     N
N       0.2314   0.7684   0.4218     N
N       0.2324   0.5159   0.0866     N
C       0.2339   0.8057    0.159     C
N       0.2373   0.4936   0.9423     N
H        0.249   0.3368   0.3546     H
C       0.2567   0.8474   0.3819     C
N       0.2583   0.8769   0.0828     N
C       0.2594   0.1877   0.3497     C
H        0.273   0.0969    0.141     H
H       0.2854   0.4828    0.775     H
H       0.2966   0.5343   0.6221     H
Cu     0.30141  0.97051  0.31503    Cu
H       0.3158   0.9817    0.916     H
H       0.3213   0.7318   0.8814     H
Cu     0.32764  0.62898  0.26946    Cu
N       0.3283   0.7415   0.1743     N
C       0.3294   0.4387   0.7349     C
C       0.3322   0.4693   0.6431     C
C        0.333   0.4525   0.0544     C
N       0.3376   0.4361   0.9692     N
N       0.3414   0.5201   0.4466     N
H       0.3431   0.1752   0.3449     H
C       0.3572   0.0824   0.1301     C
N       0.3645   0.5154   0.3562     N
H       0.3727   0.6916   0.7344     H
C       0.3797   0.8488   0.0535     C
H       0.3809   0.1719   0.0082     H
N       0.3871   0.3483   0.7693     N
N       0.3898   0.4316   0.1961     N
C       0.3902   0.3999   0.5824     C
C       0.3935   0.6902   0.8622     C
C       0.3942   0.4298   0.4832     C
C       0.3996   0.9633   0.9051     C
N       0.4079   0.0184   0.1957     N
C       0.4204   0.4099     0.11     C
C       0.4214   0.1273   0.0488     C
C       0.4247   0.6672   0.7743     C
N       0.4261   0.7674   0.1073     N
Cu     0.42746  0.33448   0.8938    Cu
C       0.4282   0.4255   0.3434     C
H       0.4312   0.0465   0.7829     H
C       0.4442   0.2865   0.7077     C
C       0.4455   0.3083   0.6156     C
H       0.4476    0.666   0.9784     H
N       0.4511   0.3666   0.4208     N
C       0.4532   0.8951   0.9712     C
C       0.4655    0.393    0.253     C
C       0.4688   0.6518   0.9192     C
C       0.4699   0.0028    0.825     C
H        0.484   0.2606   0.5773     H
H       0.4861   0.2242   0.7285     H
H       0.5139   0.7758   0.2715     H
H        0.516   0.7394   0.4227     H
C       0.5301   0.9972    0.175     C
C       0.5312   0.3482   0.0808     C
C       0.5345    0.607    0.747     C
C       0.5468   0.1049   0.0288     C
N       0.5489   0.6334   0.5792     N
H       0.5524    0.334   0.0216     H
C       0.5545   0.6917   0.3844     C
C       0.5558   0.7135   0.2923     C
H       0.5688   0.9535   0.2171     H
C       0.5718   0.5745   0.6566     C
Cu     0.57254  0.66552   0.1062    Cu
N       0.5739   0.2326   0.8927     N
C       0.5753   0.3328   0.2257     C
C       0.5786   0.8727   0.9512     C
C       0.5796   0.5901     0.89     C
N       0.5921   0.9816   0.8043     N
C       0.6004   0.0367   0.0949     C
C       0.6058   0.5702   0.5168     C
C       0.6065   0.3098   0.1378     C
C       0.6098   0.6001   0.4176     C
N       0.6102   0.5684   0.8039     N
N       0.6129   0.6517   0.2307     N
H       0.6191   0.8281   0.9918     H
C       0.6203   0.1512   0.9465     C
H       0.6273   0.3084   0.2656     H
N       0.6355   0.4846   0.6438     N
C       0.6428   0.9176   0.8699     C
H       0.6569   0.8248   0.6551     H
N       0.6586   0.4799   0.5534     N
N       0.6624   0.5639   0.0308     N
C        0.667   0.5475   0.9456     C
C       0.6678   0.5307   0.3569     C
C       0.6706   0.5613   0.2651     C
N       0.6717   0.2585   0.8257     N
Cu     0.67236  0.37102  0.73054    Cu
H       0.6787   0.2682   0.1186     H
H       0.6842   0.0183    0.084     H
Cu     0.69859  0.02949  0.68497    Cu
H       0.7034   0.4657   0.3779     H
H       0.7146   0.5172    0.225     H
H        0.727   0.9031    0.859     H
C       0.7406   0.8123   0.6503     C
N       0.7417   0.1231   0.9172     N
C       0.7433   0.1526   0.6181     C
H        0.751   0.6632   0.6454     H
N       0.7627   0.5064   0.0577     N
C       0.7661   0.1943    0.841     C
N       0.7676   0.4841   0.9134     N
N       0.7686   0.2316   0.5782     N
N       0.7968   0.8906   0.6516     N
C       0.7972   0.7146   0.6422     C
Cu     0.79979  0.36219  0.52077    Cu
Cu     0.80799  0.48572  0.78257    Cu
C        0.823   0.4583   0.9882     C
H       0.8301   0.7457   0.3826     H
H       0.8459   0.7478   0.1249     H
N       0.8469   0.7447   0.9989     N
H       0.8513   0.9104   0.3092     H
C       0.8859   0.2032   0.7817     C
H       0.8874   0.7196   0.8713     H
C         0.89    0.719   0.0743     C
N       0.8969   0.2997   0.7377     N
N       0.8992   0.5443   0.4269     N
C       0.9009     0.76   0.3413     C
C       0.9141   0.8572   0.2972     C
C       0.9147   0.7035   0.9254     C
C       0.9159   0.8683   0.6388     C
N       0.9203    0.442   0.4373     N
C       0.9206   0.6918   0.6297     C
N        0.931   0.5034    0.673     N
H       0.9344   0.3864   0.1249     H
C       0.9345   0.3888    0.991     C
H       0.9373   0.2405   0.3744     H
H       0.9605    0.921   0.6349     H
C        0.977   0.1221   0.7666     C
C        0.978   0.5878   0.6205     C
C       0.9784   0.3609   0.0726     C
C        0.979   0.7706   0.6305     C
H        0.983   0.3621   0.8608     H
C       0.9884    0.575   0.3612     C
C       0.9941   0.6537   0.0835     C
C       0.9994    0.683   0.3209     C
