data_I
_chemical_name_common  '/home/zhangsd/repos/MofS-CGCNN/ML/data/TSD/clean_cifs/WOWBER_clean'
_cell_length_a  6.68200
_cell_length_b 11.04830
_cell_length_c 17.63800
_cell_angle_alpha 107.83300
_cell_angle_beta  90.00000
_cell_angle_gamma 90.00000
_space_group_name_H-M_alt      'P 1'


loop_
_space_group_symop_operation_xyz
  'x, y, z' 

loop_
_atom_site_label
_atom_site_fract_x
_atom_site_fract_y
_atom_site_fract_z
_atom_site_type_symbol
Cd         0.0      0.5     -0.0    Cd
Cd     0.00353  0.46532  0.59027    Cd
H       0.0098   0.0616   0.4222     H
C       0.0219   0.0062   0.6224     C
O       0.0437   0.3451   0.0653     O
O       0.0552   0.3415   0.8872     O
C       0.0649   0.8555   0.2472     C
C       0.0691   0.9109   0.0343     C
C       0.0811   0.1225   0.0237     C
C       0.1121   0.9554    0.314     C
H       0.1161   0.8502   0.0567     H
C       0.1177   0.2075   0.7573     C
H       0.1281   0.2107   0.1968     H
O       0.1487   0.2673  0.53856     O
C       0.1496   0.0331   0.0593     C
H       0.1551   0.8302   0.2052     H
O       0.1637   0.3673   0.3297     O
C       0.1676   0.2552   0.0442     C
C       0.1745   0.3153   0.8301     C
O       0.1859   0.5684  0.52177     O
H        0.193    0.642    0.548     H
C        0.203     0.07   0.6261     C
H       0.2338   0.9973   0.3166     H
C       0.2497   0.1692   0.6939     C
C       0.2503   0.1692   0.1939     C
H       0.2662   0.9973   0.8166     H
C        0.297     0.07   0.1261     C
H        0.307    0.642    0.048     H
O       0.3141   0.5684  0.02177     O
C       0.3255   0.3153   0.3301     C
C       0.3324   0.2552   0.5442     C
O       0.3363   0.3673   0.8297     O
H       0.3449   0.8302   0.7052     H
C       0.3504   0.0331   0.5593     C
O       0.3513   0.2673  0.03856     O
H       0.3719   0.2107   0.6968     H
C       0.3823   0.2075   0.2573     C
H       0.3839   0.8502   0.5567     H
C       0.3879   0.9554    0.814     C
C       0.4189   0.1225   0.5237     C
C       0.4309   0.9109   0.5343     C
C       0.4351   0.8555   0.7472     C
O       0.4448   0.3415   0.3872     O
O       0.4563   0.3451   0.5653     O
C       0.4781   0.0062   0.1224     C
H       0.4902   0.0616   0.9222     H
Cd     0.49647  0.46532  0.09027    Cd
Cd         0.5      0.5      0.5    Cd
Cd     0.50353  0.53468  0.90973    Cd
H       0.5098   0.9384   0.0778     H
C       0.5219   0.9938   0.8776     C
O       0.5437   0.6549   0.4347     O
O       0.5552   0.6585   0.6128     O
C       0.5649   0.1445   0.2528     C
C       0.5691   0.0891   0.4657     C
C       0.5811   0.8775   0.4763     C
C       0.6121   0.0446    0.186     C
H       0.6161   0.1498   0.4433     H
C       0.6177   0.7925   0.7427     C
H       0.6281   0.7893   0.3032     H
O       0.6487   0.7327  0.96144     O
C       0.6496   0.9669   0.4407     C
H       0.6551   0.1698   0.2948     H
O       0.6637   0.6327   0.1703     O
C       0.6676   0.7448   0.4558     C
C       0.6745   0.6847   0.6699     C
O       0.6859   0.4316  0.97823     O
H        0.693    0.358    0.952     H
C        0.703     0.93   0.8739     C
H       0.7338   0.0027   0.1834     H
C       0.7497   0.8308   0.8061     C
C       0.7503   0.8308   0.3061     C
H       0.7662   0.0027   0.6834     H
C        0.797     0.93   0.3739     C
H        0.807    0.358    0.452     H
O       0.8141   0.4316  0.47823     O
C       0.8255   0.6847   0.1699     C
C       0.8324   0.7448   0.9558     C
O       0.8363   0.6327   0.6703     O
H       0.8449   0.1698   0.7948     H
C       0.8504   0.9669   0.9407     C
O       0.8513   0.7327  0.46144     O
H       0.8719   0.7893   0.8032     H
C       0.8823   0.7925   0.2427     C
H       0.8839   0.1498   0.9433     H
C       0.8879   0.0446    0.686     C
C       0.9189   0.8775   0.9763     C
C       0.9309   0.0891   0.9657     C
C       0.9351   0.1445   0.7528     C
O       0.9448   0.6585   0.1128     O
O       0.9563   0.6549   0.9347     O
C       0.9781   0.9938   0.3776     C
H       0.9902   0.9384   0.5778     H
Cd     0.99647  0.53468  0.40973    Cd
