data_I
_chemical_name_common  '/home/zhangsd/repos/MofS-CGCNN/ML/data/TSD/clean_cifs/WOWBIV_clean'
_cell_length_a 14.41600
_cell_length_b 14.72490
_cell_length_c 14.72490
_cell_angle_alpha 76.13580
_cell_angle_beta  60.69150
_cell_angle_gamma 60.69160
_space_group_name_H-M_alt      'P 1'


loop_
_space_group_symop_operation_xyz
  'x, y, z' 

loop_
_atom_site_label
_atom_site_fract_x
_atom_site_fract_y
_atom_site_fract_z
_atom_site_type_symbol
C       0.0192    0.445   0.8204     C
Cd     0.03252  0.21971  0.81061    Cd
O      0.04223  0.35216  0.85658     O
C       0.0551   0.5601   0.4259     C
C       0.0625   0.4155   0.5443     C
O       0.0707  0.67918  0.28442     O
H       0.0768   0.3485   0.1933     H
C       0.0989   0.6383   0.3577     C
O      0.10119  0.85658  0.14784     O
O      0.10131  0.47013  0.76185     O
H       0.1045   0.3585   0.5751     H
C       0.1075   0.4762   0.1468     C
H       0.1186   0.1515   0.3067     H
C       0.1199    0.473   0.4704     C
H       0.1321   0.2727   0.3679     H
C       0.1364   0.3704   0.1606     C
O      0.13684  0.76185  0.02987     O
Cd     0.15687  0.81061  0.28029    Cd
O       0.1572  0.66398  0.37842     O
C       0.1604   0.8204    0.055     C
O      0.16671  0.97013  0.26185     O
C       0.1674   0.1296   0.3394     C
C       0.1773   0.2019   0.3741     C
H       0.1786   0.5791   0.0877     H
O      0.17882  0.12158  0.66398     O
C       0.1971   0.5087   0.0989     C
C       0.2154    0.945   0.3204     C
C       0.2305   0.0238   0.3532     C
H       0.2423   0.4123   0.5791     H
O      0.24903  0.85216  0.35658     O
O      0.25012  0.21558  0.67918     O
C       0.2511   0.4318   0.4344     C
Cd     0.25223  0.31061  0.78029    Cd
C       0.2533   0.2981   0.1259     C
C       0.2543   0.8532   0.9762     C
C       0.2549   0.1696   0.4184     C
C       0.2628   0.1423   0.6383     C
H       0.2642   0.2185   0.4389     H
H       0.2663   0.9123   0.0791     H
H       0.2701   0.8067   0.8485     H
H       0.2727   0.2273   0.1321     H
C       0.2942   0.4011   0.5087     C
C        0.296   0.9011   0.0087     C
H       0.2969   0.4389   0.2815     H
C        0.297   0.8394   0.8704     C
O       0.3004  0.16398  0.87842     O
C       0.3047   0.9913   0.4011     C
C       0.3145   0.4344   0.0682     C
C       0.3171   0.0656   0.4318     C
H       0.3204   0.5751   0.1415     H
C       0.3267   0.4184   0.3304     C
C       0.3429   0.3304   0.0816     C
H       0.3454   0.9209   0.4123     H
O      0.35512  0.71558  0.17918     O
C       0.3792   0.8741   0.7981     C
C       0.3827   0.9318   0.9344     C
C       0.3848   0.0741   0.5601     C
C       0.3932   0.5443   0.0845     C
O      0.39439  0.35658  0.64784     O
H       0.4048   0.8679   0.7273     H
C       0.4051   0.1383   0.8577     C
C       0.4071   0.0296    0.473     C
C       0.4097   0.4704    0.027     C
C       0.4163   0.3532   0.4762     C
H       0.4216   0.2815   0.0611     H
C       0.4245   0.9184   0.8304     C
H       0.4253   0.6933   0.6515     H
O      0.42856  0.73815  0.47013     O
C       0.4367    0.973   0.9704     C
Cd     0.43716  0.71971  0.31061    Cd
C       0.4486   0.3741   0.2981     C
C       0.4566   0.6423   0.1383     C
C       0.4589   0.0601   0.9259     C
H       0.4619   0.8585   0.0751     H
H        0.463   0.0751   0.6415     H
C       0.4642   0.3204    0.555     C
O      0.46438  0.37842  0.83602     O
O       0.4657  0.17918  0.78442     O
C       0.4777   0.9155   0.0443     C
C        0.478   0.0443   0.5845     C
C        0.481   0.5741   0.0601     C
H       0.4827   0.9389   0.7815     H
C       0.4932   0.3394   0.3704     C
H          0.5   0.3679   0.2273     H
H          0.5   0.6321   0.7727     H
C       0.5068   0.6606   0.6296     C
H       0.5173   0.0611   0.2185     H
C        0.519   0.4259   0.9399     C
C        0.522   0.9557   0.4155     C
C       0.5223   0.0845   0.9557     C
O       0.5343  0.82082  0.21558     O
O      0.53562  0.62158  0.16398     O
C       0.5358   0.6796    0.445     C
H        0.537   0.9249   0.3585     H
H       0.5381   0.1415   0.9249     H
C       0.5411   0.9399   0.0741     C
C       0.5434   0.3577   0.8617     C
C       0.5514   0.6259   0.7019     C
Cd     0.56284  0.28029  0.68939    Cd
C       0.5633    0.027   0.0296     C
O      0.57144  0.26185  0.52987     O
H       0.5747   0.3067   0.3485     H
C       0.5755   0.0816   0.1696     C
H       0.5784   0.7185   0.9389     H
C       0.5837   0.6468   0.5238     C
C       0.5903   0.5296    0.973     C
C       0.5929   0.9704    0.527     C
C       0.5949   0.8617   0.1423     C
H       0.5952   0.1321   0.2727     H
O      0.60561  0.64342  0.35216     O
C       0.6068   0.4557   0.9155     C
C       0.6152   0.9259   0.4399     C
C       0.6173   0.0682   0.0656     C
C       0.6208   0.1259   0.2019     C
O      0.64488  0.28442  0.82082     O
H       0.6546   0.0791   0.5877     H
C       0.6571   0.6696   0.9184     C
C       0.6733   0.5816   0.6696     C
H       0.6796   0.4249   0.8585     H
C       0.6829   0.9344   0.5682     C
C       0.6855   0.5656   0.9318     C
C       0.6953   0.0087   0.5989     C
O       0.6996  0.83602  0.12158     O
C        0.703   0.1606   0.1296     C
H       0.7031   0.5611   0.7185     H
C        0.704   0.0989   0.9913     C
C       0.7058   0.5989   0.4913     C
H       0.7273   0.7727   0.8679     H
H       0.7299   0.1933   0.1515     H
H       0.7337   0.0877   0.9209     H
H       0.7358   0.7815   0.5611     H
C       0.7372   0.8577   0.3617     C
C       0.7451   0.8304   0.5816     C
C       0.7457   0.1468   0.0238     C
C       0.7467   0.7019   0.8741     C
Cd     0.74777  0.68939  0.21971    Cd
C       0.7489   0.5682   0.5656     C
O      0.74988  0.78442  0.32082     O
O      0.75097  0.14784  0.64342     O
H       0.7577   0.5877   0.4209     H
C       0.7695   0.9762   0.6468     C
C       0.7846    0.055   0.6796     C
C       0.8029   0.4913   0.9011     C
O      0.82118  0.87842  0.33602     O
H       0.8214   0.4209   0.9123     H
C       0.8227   0.7981   0.6259     C
C       0.8326   0.8704   0.6606     C
O      0.83329  0.02987  0.73815     O
C       0.8396   0.1796    0.945     C
O       0.8428  0.33602  0.62158     O
Cd     0.84313  0.18939  0.71971    Cd
O      0.86316  0.23815  0.97013     O
C       0.8636   0.6296   0.8394     C
H       0.8679   0.7273   0.6321     H
C       0.8801    0.527   0.5296     C
H       0.8814   0.8485   0.6933     H
C       0.8925   0.5238   0.8532     C
H       0.8955   0.6415   0.4249     H
O      0.89869  0.52987  0.23815     O
O      0.89881  0.14342  0.85216     O
C       0.9011   0.3617   0.6423     C
H       0.9232   0.6515   0.8067     H
O       0.9293  0.32082  0.71558     O
C       0.9375   0.5845   0.4557     C
C       0.9449   0.4399   0.5741     C
O      0.95777  0.64784  0.14342     O
Cd     0.96748  0.78029  0.18939    Cd
C       0.9808    0.555   0.1796     C
