data_I
_chemical_name_common  '/home/zhangsd/repos/MofS-CGCNN/ML/data/TSD/clean_cifs/WOXKOL_clean'
_cell_length_a  7.75650
_cell_length_b  9.56430
_cell_length_c 15.18950
_cell_angle_alpha 96.78100
_cell_angle_beta  94.86800
_cell_angle_gamma 110.50900
_space_group_name_H-M_alt      'P 1'


loop_
_space_group_symop_operation_xyz
  'x, y, z' 

loop_
_atom_site_label
_atom_site_fract_x
_atom_site_fract_y
_atom_site_fract_z
_atom_site_type_symbol
H       0.0107   0.7172   0.2351     H
C       0.0139   0.5857   0.1209     C
C       0.0142   0.2966    0.827     C
C       0.0165   0.4375   0.9721     C
H       0.0546   0.5197   0.1494     H
C       0.0797   0.2004   0.8685     C
C       0.0828   0.3375   0.0113     C
H       0.1054   0.3491   0.0733     H
H       0.1079   0.9263   0.9035     H
N       0.1107   0.0789   0.8163     N
C       0.1157    0.222   0.9605     C
C       0.1237   0.9515   0.8467     C
H       0.1417   0.1379   0.6936     H
C       0.1433    0.067   0.7303     C
H       0.1623   0.1587   0.9885     H
C       0.1641   0.8706   0.7774     C
N       0.1777   0.9438   0.7039     N
H       0.1802    0.779   0.7791     H
Mn     0.29379  0.87735  0.58373    Mn
H       0.2998   0.1275   0.2079     H
O        0.319   0.7607  0.46082     O
H       0.3233   0.9367   0.1097     H
O       0.3275   0.2325    0.398     O
H       0.3516   0.7623   0.0243     H
C       0.3719   0.1511    0.162     C
H       0.3729   0.5702   0.9258     H
C       0.3861   0.0361   0.1022     C
H       0.3943   0.5311   0.4217     H
O       0.3944   0.7275  0.64896     O
C       0.3944   0.7987    0.393     C
C       0.4131   0.5407   0.3627     C
C       0.4174    0.673   0.3311     C
C       0.4209   0.7857   0.9774     C
C       0.4337   0.6695   0.9177     C
C        0.436   0.4235   0.3086     C
C       0.4426   0.6832   0.2422     C
H       0.4495   0.7711   0.2198     H
O       0.4514   0.9302  0.37469     O
C        0.455   0.4315   0.2183     C
C       0.4552   0.2969   0.3563     C
C       0.4576   0.5632   0.1867     C
C       0.4654   0.3034    0.154     C
H       0.4698   0.5708   0.1269     H
C       0.4899    0.062   0.0314     C
C       0.5101    0.938   0.9686     C
H       0.5302   0.4292   0.8731     H
C       0.5346   0.6966    0.846     C
C       0.5424   0.4368   0.8133     C
C       0.5448   0.7031   0.6437     C
C        0.545   0.5685   0.7817     C
O       0.5486   0.0698  0.62531     O
H       0.5505   0.2289   0.7802     H
C       0.5574   0.3168   0.7578     C
C        0.564   0.5765   0.6914     C
C       0.5663   0.3305   0.0823     C
C       0.5791   0.2143   0.0226     C
C       0.5826    0.327   0.6689     C
C       0.5869   0.4593   0.6373     C
C       0.6056   0.2013    0.607     C
O       0.6056   0.2725  0.35104     O
H       0.6057   0.4689   0.5783     H
C       0.6139   0.9639   0.8978     C
H       0.6271   0.4298   0.0742     H
C       0.6281   0.8489    0.838     C
H       0.6484   0.2377   0.9757     H
O       0.6725   0.7675    0.602     O
H       0.6767   0.0633   0.8903     H
O        0.681   0.2393  0.53918     O
H       0.7002   0.8725   0.7921     H
Mn     0.70621  0.12265  0.41627    Mn
H       0.8198    0.221   0.2209     H
N       0.8223   0.0562   0.2961     N
C       0.8359   0.1294   0.2226     C
H       0.8377   0.8413   0.0115     H
C       0.8567    0.933   0.2697     C
H       0.8583   0.8621   0.3064     H
C       0.8763   0.0485   0.1533     C
C       0.8843    0.778   0.0395     C
N       0.8893   0.9211   0.1837     N
H       0.8921   0.0737   0.0965     H
H       0.8946   0.6509   0.9267     H
C       0.9172   0.6625   0.9887     C
C       0.9203   0.7996   0.1315     C
H       0.9454   0.4803   0.8506     H
C       0.9835   0.5625   0.0279     C
C       0.9858   0.7034    0.173     C
C       0.9861   0.4143   0.8791     C
H       0.9893   0.2828   0.7649     H
