data_I
_chemical_name_common  '/home/zhangsd/repos/MofS-CGCNN/ML/data/TSD/clean_cifs/WOYJID_clean'
_cell_length_a 10.31830
_cell_length_b 10.75010
_cell_length_c 10.83150
_cell_angle_alpha 73.43600
_cell_angle_beta  79.64800
_cell_angle_gamma 83.26000
_space_group_name_H-M_alt      'P 1'


loop_
_space_group_symop_operation_xyz
  'x, y, z' 

loop_
_atom_site_label
_atom_site_fract_x
_atom_site_fract_y
_atom_site_fract_z
_atom_site_type_symbol
O       0.0348   0.0126   0.3039     O
O       0.0407   0.1936   0.6956     O
H       0.0492     0.48   0.0078     H
O       0.0683   0.1365   0.4821     O
P       0.0698   0.0838   0.6277     P
O       0.0771   0.5776   0.2986     O
Ti      0.0881   0.1835   0.2945    Ti
O       0.0963   0.3048   0.8711     O
O       0.0964   0.7467   0.7018     O
O       0.0987   0.2248   0.1037     O
Ti      0.1097   0.3591   0.6793    Ti
O        0.122   0.3991   0.4966     O
O       0.1292   0.4637   0.9932     O
O       0.1435   0.3496    0.282     O
P       0.1582   0.3194    0.981     P
P       0.1623   0.4534   0.3496     P
O       0.1626    0.527   0.6654     O
H       0.1713   0.7309   0.4591     H
P       0.2058    0.663   0.6438     P
O       0.2061   0.0123   0.6535     O
H       0.2201   0.9517   0.6199     H
O       0.2377   0.7267   0.4922     O
O       0.2696   0.1105   0.2779     O
H       0.2743    0.643   0.9747     H
O       0.2888   0.2827   0.6713     O
O       0.3008   0.5903   0.0378     O
O       0.3067   0.4885    0.316     O
O       0.3104   0.2925    0.962     O
O       0.3287   0.6598   0.7055     O
H       0.3433   0.3436    0.895     H
O       0.3946   0.0408   0.4632     O
P       0.4014    0.116   0.3192     P
P       0.4339   0.3132   0.6372     P
O       0.4373   0.2535   0.2926     O
P       0.4509   0.5677   0.0094     P
O       0.4529    0.421   0.6981     O
O         0.47    0.362   0.4896     O
O       0.4765   0.8041   0.3122     O
O       0.4861   0.9528   0.7594     O
Ti      0.4873   0.4168   0.3062    Ti
O        0.492    0.702    0.999     O
O       0.4923   0.5254   0.8833     O
H       0.4978   0.9714   0.2526     H
H       0.5022   0.0286   0.7474     H
O       0.5077   0.4746   0.1167     O
O        0.508    0.298    0.001     O
Ti      0.5127   0.5832   0.6938    Ti
O       0.5139   0.0472   0.2406     O
O       0.5235   0.1959   0.6878     O
O         0.53    0.638   0.5104     O
O       0.5471    0.579   0.3019     O
P       0.5491   0.4323   0.9906     P
O       0.5627   0.7465   0.7074     O
P       0.5661   0.6868   0.3628     P
P       0.5986    0.884   0.6808     P
O       0.6054   0.9592   0.5368     O
H       0.6567   0.6564    0.105     H
O       0.6713   0.3402   0.2945     O
O       0.6896   0.7075    0.038     O
O       0.6933   0.5115    0.684     O
O       0.6992   0.4097   0.9622     O
O       0.7112   0.7173   0.3287     O
H       0.7257    0.357   0.0253     H
O       0.7304   0.8895   0.7221     O
O       0.7623   0.2733   0.5078     O
H       0.7799   0.0483   0.3801     H
O       0.7939   0.9877   0.3465     O
P       0.7942    0.337   0.3562     P
H       0.8287   0.2691   0.5409     H
O       0.8374    0.473   0.3346     O
P       0.8377   0.5466   0.6504     P
P       0.8418   0.6806    0.019     P
O       0.8565   0.6504    0.718     O
O       0.8708   0.5363   0.0068     O
O        0.878   0.6009   0.5034     O
Ti      0.8903   0.6409   0.3207    Ti
O       0.9013   0.7752   0.8963     O
O       0.9036   0.2533   0.2982     O
O       0.9037   0.6952   0.1289     O
Ti      0.9119   0.8165   0.7055    Ti
O       0.9229   0.4224   0.7014     O
P       0.9302   0.9162   0.3723     P
O       0.9317   0.8635   0.5179     O
H       0.9508     0.52   0.9922     H
O       0.9593   0.8064   0.3044     O
O       0.9652   0.9874   0.6961     O
