data_I
_chemical_name_common  '/home/zhangsd/repos/MofS-CGCNN/ML/data/TSD/clean_cifs/WULQUR_clean'
_cell_length_a  9.43700
_cell_length_b 15.37800
_cell_length_c 13.31900
_cell_angle_alpha 90.00000
_cell_angle_beta  106.38300
_cell_angle_gamma 90.00000
_space_group_name_H-M_alt      'P 1'


loop_
_space_group_symop_operation_xyz
  'x, y, z' 

loop_
_atom_site_label
_atom_site_fract_x
_atom_site_fract_y
_atom_site_fract_z
_atom_site_type_symbol
O       0.0354   0.8664   0.8882     O
H       0.0475   0.4228   0.4162     H
C       0.0518   0.3801   0.3676     C
C       0.0624   0.2559   0.2182     C
C       0.0636   0.1891   0.1357     C
O       0.0637   0.8965   0.1178     O
C       0.0641   0.7351   0.7484     C
C       0.0696   0.6725   0.6738     C
Zn     0.12617  0.09632  0.98868    Zn
H       0.1451   0.7709    0.776     H
O       0.1682   0.1922   0.0936     O
C         0.18   0.3695   0.3373     C
C       0.1839   0.3081   0.2625     C
C       0.1872   0.9239   0.1118     C
O       0.1952   0.2216   0.8365     O
C       0.2078   0.6656   0.6365     C
O       0.2086   0.9904   0.0644     O
O       0.2145   0.6006     0.58     O
H       0.2307   0.8016   0.2585     H
H       0.2693   0.3016   0.2415     H
O       0.2855   0.1006     0.92     O
O       0.2914   0.4904   0.4356     O
C       0.2922   0.1656   0.8635     C
O       0.3048   0.7216   0.6635     O
C       0.3128   0.4239   0.3882     C
C       0.3161   0.8081   0.2375     C
C         0.32   0.8695   0.1627     C
O       0.3318   0.6922   0.4064     O
H       0.3549   0.2709    0.724     H
Zn     0.37383  0.59632  0.51132    Zn
C       0.4304   0.1725   0.8262     C
C       0.4359   0.2351   0.7516     C
O       0.4363   0.3965   0.3822     O
C       0.4364   0.6891   0.3643     C
C       0.4376   0.7559   0.2818     C
C       0.4482   0.8801   0.1324     C
H       0.4525   0.9228   0.0838     H
O       0.4646   0.3664   0.6118     O
O       0.5354   0.6336   0.3882     O
H       0.5475   0.0772   0.9162     H
C       0.5518   0.1199   0.8676     C
C       0.5624   0.2441   0.7182     C
C       0.5636   0.3109   0.6357     C
O       0.5637   0.6035   0.6178     O
C       0.5641   0.7649   0.2484     C
C       0.5696   0.8275   0.1738     C
Zn     0.62617  0.40368  0.48868    Zn
H       0.6451   0.7291    0.276     H
O       0.6682   0.3078   0.5936     O
C         0.68   0.1305   0.8373     C
C       0.6839   0.1919   0.7625     C
C       0.6872   0.5761   0.6118     C
O       0.6952   0.2784   0.3365     O
C       0.7078   0.8344   0.1365     C
O       0.7086   0.5096   0.5644     O
O       0.7145   0.8994     0.08     O
H       0.7307   0.6984   0.7585     H
H       0.7693   0.1984   0.7415     H
O       0.7855   0.3994     0.42     O
O       0.7914   0.0096   0.9356     O
C       0.7922   0.3344   0.3635     C
O       0.8048   0.7784   0.1635     O
C       0.8128   0.0761   0.8882     C
C       0.8161   0.6919   0.7375     C
C         0.82   0.6305   0.6627     C
O       0.8318   0.8078   0.9064     O
H       0.8549   0.2291    0.224     H
Zn     0.87383  0.90368  0.01132    Zn
C       0.9304   0.3275   0.3262     C
C       0.9359   0.2649   0.2516     C
O       0.9363   0.1035   0.8822     O
C       0.9364   0.8109   0.8643     C
C       0.9376   0.7441   0.7818     C
C       0.9482   0.6199   0.6324     C
H       0.9525   0.5772   0.5838     H
O       0.9646   0.1336   0.1118     O
