data_I
_chemical_name_common  '/home/zhangsd/repos/MofS-CGCNN/ML/data/TSD/clean_cifs/WUPNIF_clean'
_cell_length_a 11.26220
_cell_length_b 13.23480
_cell_length_c 13.23480
_cell_angle_alpha 101.48800
_cell_angle_beta  106.74300
_cell_angle_gamma 73.25660
_space_group_name_H-M_alt      'P 1'


loop_
_space_group_symop_operation_xyz
  'x, y, z' 

loop_
_atom_site_label
_atom_site_fract_x
_atom_site_fract_y
_atom_site_fract_z
_atom_site_type_symbol
Cu         0.0      0.0      0.0    Cu
O       0.0111   0.9956   0.1906     O
C       0.0199    0.931   0.7388     C
C       0.0277   0.1115   0.4587     C
Zn     0.03954  0.16779  0.86093    Zn
O       0.0516   0.7901   0.3559     O
C        0.056   0.1496    0.655     C
H       0.0598   0.8628   0.5474     H
O       0.0622  0.12193  0.00267     O
C        0.072   0.0762   0.3684     C
O       0.1097   0.6993   0.9695     O
C       0.1117   0.1096     0.56     C
O       0.1233   0.1185   0.7433     O
O       0.1252   0.7215   0.1445     O
H       0.1261   0.4828   0.0094     H
O       0.1262   0.8624   0.7514     O
C       0.1587   0.6726     0.06     C
O       0.1608   0.2707   0.9285     O
O       0.1836  0.92187  0.01573     O
C       0.2045   0.0404   0.3774     C
Na      0.2119   0.6491   0.3139    Na
C       0.2135   0.4769   0.0355     C
O       0.2249  0.08873  0.22427     O
C       0.2398   0.2819   0.0157     C
C       0.2422   0.0687   0.5691     C
Zn        0.25  0.07555  0.07555    Zn
Na        0.25   0.6795   0.6795    Na
Zn        0.25  0.88753  0.88753    Zn
C       0.2578   0.5691   0.0687     C
C       0.2602   0.0157   0.2819     C
O       0.2751  0.22427  0.08873     O
C       0.2865   0.0355   0.4769     C
Na      0.2881   0.3139   0.6491    Na
C       0.2955   0.3774   0.0404     C
O       0.3164  0.01573  0.92187     O
O       0.3392   0.9285   0.2707     O
C       0.3413     0.06   0.6726     C
O       0.3738   0.7514   0.8624     O
H       0.3739   0.0094   0.4828     H
O       0.3748   0.1445   0.7215     O
O       0.3767   0.7433   0.1185     O
C       0.3883     0.56   0.1096     C
O       0.3903   0.9695   0.6993     O
C        0.428   0.3684   0.0762     C
O       0.4378  0.00267  0.12193     O
H       0.4402   0.5474   0.8628     H
C        0.444    0.655   0.1496     C
O       0.4484   0.3559   0.7901     O
Zn     0.46046  0.86093  0.16779    Zn
C       0.4723   0.4587   0.1115     C
C       0.4801   0.7388    0.931     C
O       0.4889   0.1906   0.9956     O
Cu         0.5      0.0     -0.0    Cu
O       0.5111   0.8094   0.0044     O
C       0.5199   0.2612    0.069     C
C       0.5277   0.5413   0.8885     C
Zn     0.53954  0.13907  0.83221    Zn
O       0.5516   0.6441   0.2099     O
C        0.556    0.345   0.8504     C
H       0.5598   0.4526   0.1372     H
O       0.5622  0.99733  0.87807     O
C        0.572   0.6316   0.9238     C
O       0.6097   0.0305   0.3007     O
C       0.6117     0.44   0.8904     C
O       0.6233   0.2567   0.8815     O
O       0.6252   0.8555   0.2785     O
H       0.6261   0.9906   0.5172     H
O       0.6262   0.2486   0.1376     O
C       0.6587     0.94   0.3274     C
O       0.6608   0.0715   0.7293     O
O       0.6836  0.98427  0.07813     O
C       0.7045   0.6226   0.9596     C
Na      0.7119   0.6861   0.3509    Na
C       0.7135   0.9645   0.5231     C
O       0.7249  0.77573  0.91127     O
C       0.7398   0.9843   0.7181     C
C       0.7422   0.4309   0.9313     C
Zn        0.75  0.11247  0.11247    Zn
Na        0.75   0.3205   0.3205    Na
Zn        0.75  0.92445  0.92445    Zn
C       0.7578   0.9313   0.4309     C
C       0.7602   0.7181   0.9843     C
O       0.7751  0.91127  0.77573     O
C       0.7865   0.5231   0.9645     C
Na      0.7881   0.3509   0.6861    Na
C       0.7955   0.9596   0.6226     C
O       0.8164  0.07813  0.98427     O
O       0.8392   0.7293   0.0715     O
C       0.8413   0.3274     0.94     C
O       0.8738   0.1376   0.2486     O
H       0.8739   0.5172   0.9906     H
O       0.8748   0.2785   0.8555     O
O       0.8767   0.8815   0.2567     O
C       0.8883   0.8904     0.44     C
O       0.8903   0.3007   0.0305     O
C        0.928   0.9238   0.6316     C
O       0.9378  0.87807  0.99733     O
H       0.9402   0.1372   0.4526     H
C        0.944   0.8504    0.345     C
O       0.9484   0.2099   0.6441     O
Zn     0.96046  0.83221  0.13907    Zn
C       0.9723   0.8885   0.5413     C
C       0.9801    0.069   0.2612     C
O       0.9889   0.0044   0.8094     O
