data_I
_chemical_name_common  '/home/zhangsd/repos/MofS-CGCNN/ML/data/TSD/clean_cifs/WUPZUE_clean'
_cell_length_a  7.87320
_cell_length_b  9.65710
_cell_length_c 12.14610
_cell_angle_alpha 76.89400
_cell_angle_beta  89.32500
_cell_angle_gamma 77.57500
_space_group_name_H-M_alt      'P 1'


loop_
_space_group_symop_operation_xyz
  'x, y, z' 

loop_
_atom_site_label
_atom_site_fract_x
_atom_site_fract_y
_atom_site_fract_z
_atom_site_type_symbol
C        0.034   0.9824     0.89     C
O       0.0419  0.07413  0.69263     O
Zn     0.07154  0.13737  0.51608    Zn
C       0.0933   0.9678   0.7736     C
C       0.1117   0.9126    0.092     C
C       0.1404   0.8971   0.9817     C
O       0.1661  0.92297  0.50286     O
O       0.1995  0.85085  0.76886     O
H       0.2305   0.6243   0.1598     H
H       0.2367   0.8253   0.9686     H
C       0.2425   0.8246   0.1823     C
C       0.2878   0.6733   0.2023     C
H       0.3031   0.9983     0.23     H
O       0.3044   0.1821  0.55822     O
C       0.3316    0.895   0.2435     C
Zn     0.33344  0.83628  0.63213    Zn
O       0.3876   0.3648  0.24968     O
O       0.4081  0.63429  0.62543     O
H       0.4113   0.3909   0.5987     H
C       0.4161   0.5927   0.2839     C
C       0.4343   0.1073   0.6181     C
C       0.4615   0.8155   0.3238     C
C       0.4647   0.4296   0.3027     C
O       0.4866  0.96972    0.637     O
C       0.4978   0.3362    0.655     C
C       0.5022   0.6638    0.345     C
O       0.5134  0.03028    0.363     O
C       0.5353   0.5704   0.6973     C
C       0.5385   0.1845   0.6762     C
C       0.5657   0.8927   0.3819     C
C       0.5839   0.4073   0.7161     C
H       0.5887   0.6091   0.4013     H
O       0.5919  0.36571  0.37457     O
O       0.6124   0.6352  0.75032     O
Zn     0.66656  0.16372  0.36787    Zn
C       0.6684    0.105   0.7565     C
O       0.6956   0.8179  0.44178     O
H       0.6969   0.0017     0.77     H
C       0.7122   0.3267   0.7977     C
C       0.7575   0.1754   0.8177     C
H       0.7633   0.1747   0.0314     H
H       0.7695   0.3757   0.8402     H
O       0.8005  0.14915  0.23114     O
O       0.8339  0.07703  0.49714     O
C       0.8596   0.1029   0.0183     C
C       0.8883   0.0874    0.908     C
C       0.9067   0.0322   0.2264     C
Zn     0.92846  0.86263  0.48392    Zn
O       0.9581  0.92587  0.30737     O
C        0.966   0.0176     0.11     C
