data_I
_chemical_name_common  '/home/zhangsd/repos/MofS-CGCNN/ML/data/TSD/clean_cifs/WURKEB_clean'
_cell_length_a 18.25070
_cell_length_b 18.16510
_cell_length_c 18.85180
_cell_angle_alpha 90.00000
_cell_angle_beta  90.00000
_cell_angle_gamma 90.00000
_space_group_name_H-M_alt      'P 1'


loop_
_space_group_symop_operation_xyz
  'x, y, z' 

loop_
_atom_site_label
_atom_site_fract_x
_atom_site_fract_y
_atom_site_fract_z
_atom_site_type_symbol
C       0.0099  0.52706   0.2354     C
C       0.0099  0.97294   0.7354     C
C      0.01002   0.6584  0.24214     C
C      0.01002   0.8416  0.74214     C
H       0.0317   0.0165   0.7204     H
H       0.0317   0.4835   0.2204     H
H       0.0317   0.7035   0.2319     H
H       0.0317   0.7965   0.7319     H
C      0.04238  0.59439  0.21922     C
C      0.04238  0.90561  0.71922     C
C       0.0546   0.0247   0.2266     C
C       0.0546   0.4753   0.7266     C
C       0.0549  0.15631  0.21948     C
C       0.0549  0.34369  0.71948     C
H        0.076   0.5205   0.7162     H
H        0.076   0.9795   0.2162     H
O       0.0853   0.2213   0.2004     O
O       0.0853   0.2787   0.7004     O
C       0.0878  0.08928  0.20365     C
C       0.0878  0.41072  0.70365     C
C      0.11145  0.59602  0.17518     C
C      0.11145  0.90398  0.67518     C
H       0.1242   0.2137   0.1801     H
H       0.1242   0.2863   0.6801     H
O      0.13283  0.65704  0.15352     O
O      0.13283  0.84296  0.65352     O
O      0.14147  0.53542  0.16259     O
O      0.14147  0.96458  0.66259     O
C      0.15882  0.08561  0.16266     C
C      0.15882  0.41439  0.66266     C
O      0.18227  0.02377  0.14579     O
O      0.18227  0.47623  0.64579     O
O       0.1838  0.74411  0.79935     O
O       0.1838  0.75589  0.29935     O
H       0.1844   0.7476   0.2566     H
H       0.1844   0.7524   0.7566     H
O      0.18879  0.14584  0.14813     O
O      0.18879  0.35416  0.64813     O
H        0.193   0.0031   0.8602     H
H        0.193   0.4969   0.3602     H
H       0.1931   0.0435   0.7436     H
H       0.1931   0.4565   0.2436     H
H       0.1942   0.6828   0.9173     H
H       0.1942   0.8172   0.4173     H
O      0.21185   0.5964  0.02109     O
O      0.21185   0.9036  0.52109     O
C      0.21618  0.67883  0.81219     C
C      0.21618  0.82117  0.31219     C
C       0.2163  0.04695  0.84828     C
C       0.2163  0.45305  0.34828     C
C      0.21634  0.65446  0.88221     C
C      0.21634  0.84554  0.38221     C
C       0.2167  0.07127  0.77816     C
C       0.2167  0.42873  0.27816     C
Mn     0.22053   0.0086  0.59417    Mn
Mn     0.22053   0.4914  0.09417    Mn
O      0.22356  0.72264  0.67102     O
O      0.22356  0.77736  0.17102     O
Mn     0.22371  0.69334  0.08938    Mn
Mn     0.22371  0.80666  0.58938    Mn
O      0.22958  0.50278  0.48788     O
O      0.22958  0.99722  0.98788     O
O      0.23449  0.11601  0.63491     O
O      0.23449  0.38399  0.13491     O
C      0.24458  0.55991  0.97402     C
C      0.24458  0.94009  0.47402     C
C      0.24618  0.65846  0.68274     C
C      0.24618  0.84154  0.18274     C
C      0.24864  0.63574  0.75903     C
C      0.24864  0.86426  0.25903     C
C       0.2493  0.58826  0.89994     C
C       0.2493  0.91174  0.39994     C
C       0.2507  0.08826  0.89994     C
C       0.2507  0.41174  0.39994     C
C      0.25136  0.13574  0.75903     C
C      0.25136  0.36426  0.25903     C
C      0.25382  0.15846  0.68274     C
C      0.25382  0.34154  0.18274     C
C      0.25542  0.05991  0.97402     C
C      0.25542  0.44009  0.47402     C
O      0.26551  0.61601  0.63491     O
O      0.26551  0.88399  0.13491     O
O      0.27042  0.00278  0.48788     O
O      0.27042  0.49722  0.98788     O
Mn     0.27629  0.19334  0.08938    Mn
Mn     0.27629  0.30666  0.58938    Mn
O      0.27644  0.22264  0.67102     O
O      0.27644  0.27736  0.17102     O
Mn     0.27947   0.5086  0.59417    Mn
Mn     0.27947   0.9914  0.09417    Mn
C       0.2833  0.57127  0.77816     C
C       0.2833  0.92873  0.27816     C
C      0.28366  0.15446  0.88221     C
C      0.28366  0.34554  0.38221     C
C       0.2837  0.54695  0.84828     C
C       0.2837  0.95305  0.34828     C
C      0.28382  0.17883  0.81219     C
C      0.28382  0.32117  0.31219     C
O      0.28815   0.0964  0.02109     O
O      0.28815   0.4036  0.52109     O
H       0.3058   0.1828   0.9173     H
H       0.3058   0.3172   0.4173     H
H       0.3069   0.5435   0.7436     H
H       0.3069   0.9565   0.2436     H
H        0.307   0.5031   0.8602     H
H        0.307   0.9969   0.3602     H
O      0.31121  0.64584  0.14813     O
O      0.31121  0.85416  0.64813     O
H       0.3156   0.2476   0.2566     H
H       0.3156   0.2524   0.7566     H
O       0.3162  0.24411  0.79935     O
O       0.3162  0.25589  0.29935     O
O      0.31773  0.52377  0.14579     O
O      0.31773  0.97623  0.64579     O
C      0.34118  0.58561  0.16266     C
C      0.34118  0.91439  0.66266     C
O      0.35853  0.03542  0.16259     O
O      0.35853  0.46458  0.66259     O
O      0.36717  0.15704  0.15352     O
O      0.36717  0.34296  0.65352     O
H       0.3758   0.7137   0.1801     H
H       0.3758   0.7863   0.6801     H
C      0.38855  0.09602  0.17518     C
C      0.38855  0.40398  0.67518     C
C       0.4122  0.58928  0.20365     C
C       0.4122  0.91072  0.70365     C
O       0.4147   0.7213   0.2004     O
O       0.4147   0.7787   0.7004     O
H        0.424   0.0205   0.7162     H
H        0.424   0.4795   0.2162     H
C       0.4451  0.65631  0.21948     C
C       0.4451  0.84369  0.71948     C
C       0.4454   0.5247   0.2266     C
C       0.4454   0.9753   0.7266     C
C      0.45762  0.09439  0.21922     C
C      0.45762  0.40561  0.71922     C
H       0.4683   0.2035   0.2319     H
H       0.4683   0.2965   0.7319     H
H       0.4683   0.5165   0.7204     H
H       0.4683   0.9835   0.2204     H
C      0.48998   0.1584  0.24214     C
C      0.48998   0.3416  0.74214     C
C       0.4901  0.02706   0.2354     C
C       0.4901  0.47294   0.7354     C
C       0.5099  0.52706   0.2646     C
C       0.5099  0.97294   0.7646     C
C      0.51002   0.6584  0.25786     C
C      0.51002   0.8416  0.75786     C
H       0.5317   0.0165   0.7796     H
H       0.5317   0.4835   0.2796     H
H       0.5317   0.7035   0.2681     H
H       0.5317   0.7965   0.7681     H
C      0.54238  0.59439  0.28078     C
C      0.54238  0.90561  0.78078     C
C       0.5546   0.0247   0.2734     C
C       0.5546   0.4753   0.7734     C
C       0.5549  0.15631  0.28052     C
C       0.5549  0.34369  0.78052     C
H        0.576   0.5205   0.7838     H
H        0.576   0.9795   0.2838     H
O       0.5853   0.2213   0.2996     O
O       0.5853   0.2787   0.7996     O
C       0.5878  0.08928  0.29635     C
C       0.5878  0.41072  0.79635     C
C      0.61145  0.59602  0.32482     C
C      0.61145  0.90398  0.82482     C
H       0.6242   0.2137   0.3199     H
H       0.6242   0.2863   0.8199     H
O      0.63283  0.65704  0.34648     O
O      0.63283  0.84296  0.84648     O
O      0.64147  0.53542  0.33741     O
O      0.64147  0.96458  0.83741     O
C      0.65882  0.08561  0.33734     C
C      0.65882  0.41439  0.83734     C
O      0.68227  0.02377  0.35421     O
O      0.68227  0.47623  0.85421     O
O       0.6838  0.74411  0.70065     O
O       0.6838  0.75589  0.20065     O
H       0.6844   0.7476   0.2434     H
H       0.6844   0.7524   0.7434     H
O      0.68879  0.14584  0.35187     O
O      0.68879  0.35416  0.85187     O
H        0.693   0.0031   0.6398     H
H        0.693   0.4969   0.1398     H
H       0.6931   0.0435   0.7564     H
H       0.6931   0.4565   0.2564     H
H       0.6942   0.6828   0.5827     H
H       0.6942   0.8172   0.0827     H
O      0.71185   0.5964  0.47891     O
O      0.71185   0.9036  0.97891     O
C      0.71618  0.67883  0.68781     C
C      0.71618  0.82117  0.18781     C
C       0.7163  0.04695  0.65172     C
C       0.7163  0.45305  0.15172     C
C      0.71634  0.65446  0.61779     C
C      0.71634  0.84554  0.11779     C
C       0.7167  0.07127  0.72184     C
C       0.7167  0.42873  0.22184     C
Mn     0.72053   0.0086  0.90583    Mn
Mn     0.72053   0.4914  0.40583    Mn
O      0.72356  0.72264  0.82898     O
O      0.72356  0.77736  0.32898     O
Mn     0.72371  0.69334  0.41062    Mn
Mn     0.72371  0.80666  0.91062    Mn
O      0.72958  0.50278  0.01212     O
O      0.72958  0.99722  0.51212     O
O      0.73449  0.11601  0.86509     O
O      0.73449  0.38399  0.36509     O
C      0.74458  0.55991  0.52598     C
C      0.74458  0.94009  0.02598     C
C      0.74618  0.65846  0.81726     C
C      0.74618  0.84154  0.31726     C
C      0.74864  0.63574  0.74097     C
C      0.74864  0.86426  0.24097     C
C       0.7493  0.58826  0.60006     C
C       0.7493  0.91174  0.10006     C
C       0.7507  0.08826  0.60006     C
C       0.7507  0.41174  0.10006     C
C      0.75136  0.13574  0.74097     C
C      0.75136  0.36426  0.24097     C
C      0.75382  0.15846  0.81726     C
C      0.75382  0.34154  0.31726     C
C      0.75542  0.05991  0.52598     C
C      0.75542  0.44009  0.02598     C
O      0.76551  0.61601  0.86509     O
O      0.76551  0.88399  0.36509     O
O      0.77042  0.00278  0.01212     O
O      0.77042  0.49722  0.51212     O
Mn     0.77629  0.19334  0.41062    Mn
Mn     0.77629  0.30666  0.91062    Mn
O      0.77644  0.22264  0.82898     O
O      0.77644  0.27736  0.32898     O
Mn     0.77947   0.5086  0.90583    Mn
Mn     0.77947   0.9914  0.40583    Mn
C       0.7833  0.57127  0.72184     C
C       0.7833  0.92873  0.22184     C
C      0.78366  0.15446  0.61779     C
C      0.78366  0.34554  0.11779     C
C       0.7837  0.54695  0.65172     C
C       0.7837  0.95305  0.15172     C
C      0.78382  0.17883  0.68781     C
C      0.78382  0.32117  0.18781     C
O      0.78815   0.0964  0.47891     O
O      0.78815   0.4036  0.97891     O
H       0.8058   0.1828   0.5827     H
H       0.8058   0.3172   0.0827     H
H       0.8069   0.5435   0.7564     H
H       0.8069   0.9565   0.2564     H
H        0.807   0.5031   0.6398     H
H        0.807   0.9969   0.1398     H
O      0.81121  0.64584  0.35187     O
O      0.81121  0.85416  0.85187     O
H       0.8156   0.2476   0.2434     H
H       0.8156   0.2524   0.7434     H
O       0.8162  0.24411  0.70065     O
O       0.8162  0.25589  0.20065     O
O      0.81773  0.52377  0.35421     O
O      0.81773  0.97623  0.85421     O
C      0.84118  0.58561  0.33734     C
C      0.84118  0.91439  0.83734     C
O      0.85853  0.03542  0.33741     O
O      0.85853  0.46458  0.83741     O
O      0.86717  0.15704  0.34648     O
O      0.86717  0.34296  0.84648     O
H       0.8758   0.7137   0.3199     H
H       0.8758   0.7863   0.8199     H
C      0.88855  0.09602  0.32482     C
C      0.88855  0.40398  0.82482     C
C       0.9122  0.58928  0.29635     C
C       0.9122  0.91072  0.79635     C
O       0.9147   0.7213   0.2996     O
O       0.9147   0.7787   0.7996     O
H        0.924   0.0205   0.7838     H
H        0.924   0.4795   0.2838     H
C       0.9451  0.65631  0.28052     C
C       0.9451  0.84369  0.78052     C
C       0.9454   0.5247   0.2734     C
C       0.9454   0.9753   0.7734     C
C      0.95762  0.09439  0.28078     C
C      0.95762  0.40561  0.78078     C
H       0.9683   0.2035   0.2681     H
H       0.9683   0.2965   0.7681     H
H       0.9683   0.5165   0.7796     H
H       0.9683   0.9835   0.2796     H
C      0.98998   0.1584  0.25786     C
C      0.98998   0.3416  0.75786     C
C       0.9901  0.02706   0.2646     C
C       0.9901  0.47294   0.7646     C
