data_I
_chemical_name_common  '/home/zhangsd/repos/MofS-CGCNN/ML/data/TSD/clean_cifs/WUXYOF_clean'
_cell_length_a 24.04480
_cell_length_b  5.24320
_cell_length_c 16.98330
_cell_angle_alpha 90.00000
_cell_angle_beta  103.36600
_cell_angle_gamma 90.00000
_space_group_name_H-M_alt      'P 1'


loop_
_space_group_symop_operation_xyz
  'x, y, z' 

loop_
_atom_site_label
_atom_site_fract_x
_atom_site_fract_y
_atom_site_fract_z
_atom_site_type_symbol
C       0.0009     0.46   0.2238     C
C       0.0015    0.976   0.8668     C
O       0.0032   0.2744   0.0961     O
H       0.0038   0.7813   0.7606     H
O       0.0091   0.1916   0.8992     O
H       0.0362   0.9066   0.5265     H
H       0.0369   0.3091    0.763     H
H       0.0385    0.522    0.255     H
H       0.0442   0.9446   0.6504     H
Na     0.04619   0.9689   0.0359    Na
C       0.0473    0.127   0.7569     C
N       0.0529    0.092   0.6746     N
H       0.0618   0.8265   0.4058     H
C       0.0619    0.019   0.5088     C
C       0.0716    0.286   0.6345     C
C       0.0768    0.971   0.4372     C
O       0.0779   0.5041   0.6625     O
Na      0.0812   0.5093   0.9085    Na
C       0.0835    0.224   0.5554     C
C       0.1045    0.078    0.816     C
C        0.114    0.138   0.4105     C
O       0.1144   0.8495   0.8413     O
H       0.1161   0.5678    0.185     H
O       0.1183   0.6706   0.0375     O
C        0.121    0.392   0.5285     C
O       0.1246   0.2501   0.0402     O
C       0.1287    0.462   0.0749     C
O       0.1289    0.848   0.3063     O
C       0.1304    0.072   0.3312     C
H       0.1349   0.0952   0.1842     H
H       0.1361   0.5356   0.5606     H
C       0.1363    0.349   0.4555     C
O       0.1381   0.2592   0.8375     O
C       0.1467    0.478    0.166     C
N       0.1478    0.262   0.2929     N
H       0.1523   0.4127   0.3161     H
C       0.1599    0.233   0.2139     C
H       0.1614    0.462    0.437     H
Na       0.163   0.6047   0.7661    Na
H       0.1812   0.5877   0.1799     H
Na     0.19383   0.9337   0.0339    Na
H        0.208   0.1298   0.8851     H
C       0.2241     0.16   0.2185     C
H       0.2364   0.4289   0.0794     H
O       0.2383   0.0753   0.9321     O
O        0.239   0.1248    0.156     O
O       0.2409    0.945    0.266     O
O       0.2508    0.437   0.7279     O
H       0.2581   0.9278   0.9144     H
O       0.2583   0.6281   0.8468     O
O       0.2584   0.5726   0.0639     O
O       0.2588    0.193   0.2908     O
C       0.2777    0.574   0.7859     C
H       0.2829   0.7119   0.3429     H
H       0.2883   0.6176   0.1125     H
H       0.2885   0.3635   0.3296     H
O       0.2955    0.689   0.3013     O
H       0.2989   0.4116    0.241     H
Na      0.3057   0.4155   0.9656    Na
C       0.3089    0.468    0.298     C
H       0.3167   0.0348   0.8111     H
H       0.3267   0.7908   0.6704     H
Na      0.3352   0.0342   0.2305    Na
C       0.3388    0.666   0.7848     C
N       0.3471    0.681   0.7042     N
H       0.3502   0.4498   0.3189     H
C       0.3514    0.928   0.8273     C
H       0.3532   0.9228   0.5727     H
O       0.3608    0.719   0.1543     O
H       0.3667   0.5391   0.8155     H
H       0.3686   0.9926   0.4465     H
C       0.3691    0.923   0.9195     C
C       0.3746    0.801   0.5505     C
O       0.3766   0.7184   0.9567     O
O       0.3778   0.1391   0.9528     O
O       0.3801   0.3011   0.1551     O
H       0.3821   0.0118   0.8068     H
C       0.3843    0.846   0.4764     C
C        0.385    0.533   0.6781     C
C       0.3916    0.522   0.1778     C
C       0.3945    0.587   0.5953     C
O       0.4098    0.358   0.7189     O
Na      0.4167   0.9669   0.0839    Na
C       0.4179    0.673    0.444     C
O       0.4193   0.9522   0.3349     O
C       0.4255    0.732    0.361     C
C       0.4301    0.427   0.5666     C
C       0.4402    0.467   0.4906     C
N       0.4427    0.539   0.3208     N
H        0.448   0.2879   0.5988     H
C       0.4486    0.575   0.2377     C
H       0.4505   0.3897   0.3445     H
Na     0.45303   0.4263   0.9592    Na
H       0.4592   0.7574   0.2313     H
H       0.4632   0.3486     0.47     H
H       0.4666   0.9614   0.7483     H
O       0.4883   0.6493   0.0988     O
H       0.4895   0.2267   0.2333     H
C       0.4947    0.426   0.1285     C
C       0.4957    0.406   0.2192     C
O        0.499   0.2315   0.0901     O
O        0.501   0.7315   0.9099     O
C       0.5043    0.906   0.7808     C
C       0.5053    0.926   0.8715     C
H       0.5105   0.7267   0.7667     H
O       0.5117   0.1493   0.9012     O
H       0.5334   0.4614   0.2517     H
H       0.5368   0.8486     0.53     H
H       0.5408   0.2574   0.7687     H
Na     0.54697   0.9263   0.0408    Na
H       0.5495   0.8897   0.6555     H
C       0.5514    0.075   0.7623     C
H        0.552   0.7879   0.4012     H
N       0.5573    0.039   0.6792     N
C       0.5598    0.967   0.5094     C
C       0.5699    0.927   0.4334     C
C       0.5745    0.232    0.639     C
O       0.5807   0.4522   0.6651     O
C       0.5821    0.173    0.556     C
Na      0.5833   0.4669   0.9161    Na
O       0.5902    0.858   0.2811     O
C       0.6055    0.087   0.4047     C
C       0.6084    0.022   0.8222     C
C        0.615    0.033   0.3219     C
C       0.6157    0.346   0.5236     C
H       0.6179   0.5118   0.1932     H
O       0.6199   0.8011   0.8449     O
O       0.6222   0.6391   0.0472     O
O       0.6234   0.2184   0.0433     O
C       0.6254    0.301   0.4495     C
C       0.6309    0.423   0.0805     C
H       0.6314   0.4926   0.5535     H
H       0.6333   0.0391   0.1845     H
O       0.6392    0.219   0.8457     O
H       0.6468   0.4228   0.4273     H
C       0.6486    0.428   0.1727     C
H       0.6498   0.9498   0.6811     H
N       0.6529    0.181   0.2958     N
C       0.6612    0.166   0.2152     C
Na      0.6648   0.5342   0.7695    Na
H       0.6733   0.2908   0.3296     H
H       0.6833   0.5348   0.1889     H
C       0.6911    0.968    0.702     C
Na      0.6943   0.9155   0.0344    Na
H       0.7011   0.9116    0.759     H
O       0.7045    0.189   0.6987     O
H       0.7115   0.8635   0.6704     H
H       0.7117   0.1176   0.8875     H
H       0.7171   0.2119   0.6571     H
C       0.7223    0.074   0.2141     C
O       0.7412    0.693   0.7092     O
O       0.7416   0.0726   0.9361     O
O       0.7417   0.1281   0.1532     O
H       0.7419   0.4278   0.0856     H
O       0.7492    0.937   0.2721     O
O       0.7591    0.445    0.734     O
O        0.761   0.6248    0.844     O
O       0.7617   0.5753   0.0679     O
H       0.7636   0.9289   0.9206     H
C       0.7759     0.66   0.7815     C
H        0.792   0.6298   0.1149     H
Na     0.80617   0.4337   0.9661    Na
H       0.8188   0.0877   0.8201     H
Na       0.837   0.1047   0.2339    Na
H       0.8386    0.962    0.563     H
C       0.8401    0.733   0.7861     C
H       0.8477   0.9127   0.6839     H
N       0.8522    0.762   0.7071     N
C       0.8533    0.978    0.834     C
O       0.8619   0.7592   0.1625     O
C       0.8637    0.849   0.5445     C
H       0.8639   0.0356   0.4394     H
H       0.8651   0.5952   0.8158     H
C       0.8696    0.572   0.6688     C
O       0.8711    0.348   0.6937     O
C       0.8713    0.962   0.9251     C
O       0.8754   0.7501   0.9598     O
C        0.879    0.892   0.4715     C
O       0.8817   0.1706   0.9625     O
H       0.8839   0.0678    0.815     H
O       0.8856   0.3495   0.1587     O
C        0.886    0.638   0.5895     C
C       0.8955    0.578    0.184     C
C       0.9165    0.724   0.4446     C
Na      0.9188   0.0093   0.0915    Na
O       0.9221   0.0041   0.3375     O
C       0.9232    0.471   0.5628     C
C       0.9284    0.786   0.3655     C
C       0.9381    0.519   0.4912     C
H       0.9382   0.3265   0.5942     H
N       0.9471    0.592   0.3254     N
C       0.9527    0.627   0.2431     C
Na     0.95381   0.4689   0.9641    Na
H       0.9558   0.4446   0.3496     H
H       0.9615    0.022    0.745     H
H       0.9631   0.8091    0.237     H
H       0.9638   0.4066   0.4735     H
O       0.9909   0.6916   0.1008     O
H       0.9962   0.2813   0.2394     H
O       0.9968   0.7744   0.9039     O
C       0.9985    0.476   0.1332     C
C       0.9991     0.96   0.7762     C
