data_I
_chemical_name_common  '/home/zhangsd/repos/MofS-CGCNN/ML/data/TSD/clean_cifs/XADCEM_clean'
_cell_length_a 22.70900
_cell_length_b  7.11800
_cell_length_c 12.82800
_cell_angle_alpha 90.00000
_cell_angle_beta  90.00000
_cell_angle_gamma 90.00000
_space_group_name_H-M_alt      'P 1'


loop_
_space_group_symop_operation_xyz
  'x, y, z' 

loop_
_atom_site_label
_atom_site_fract_x
_atom_site_fract_y
_atom_site_fract_z
_atom_site_type_symbol
Cu         0.0      0.0      0.5    Cu
Cu         0.0      0.5      0.5    Cu
N       0.0621   0.1584   0.4333     N
N       0.0621   0.3416   0.4333     N
N       0.0621   0.6584   0.5667     N
N       0.0621   0.8416   0.5667     N
N       0.1108   0.0951   0.3865     N
N       0.1108   0.4049   0.3865     N
N       0.1108   0.5951   0.6135     N
N       0.1108   0.9049   0.6135     N
C       0.1393     0.25   0.3592     C
C       0.1393     0.75   0.6408     C
C       0.1961     0.25   0.3004     C
C       0.1961     0.75   0.6996     C
H       0.2056   0.0158   0.7055     H
H       0.2056   0.4842   0.7055     H
H       0.2056   0.5158   0.2945     H
H       0.2056   0.9842   0.2945     H
C        0.206    0.105    0.701     C
C        0.206    0.395    0.701     C
C        0.206    0.605    0.299     C
C        0.206    0.895    0.299     C
C       0.2228    0.101   0.2763     C
C       0.2228    0.399   0.2763     C
C       0.2228    0.601   0.7237     C
C       0.2228    0.899   0.7237     C
C       0.2772    0.101   0.2237     C
C       0.2772    0.399   0.2237     C
C       0.2772    0.601   0.7763     C
C       0.2772    0.899   0.7763     C
C        0.294    0.105    0.799     C
C        0.294    0.395    0.799     C
C        0.294    0.605    0.201     C
C        0.294    0.895    0.201     C
H       0.2944   0.0158   0.7945     H
H       0.2944   0.4842   0.7945     H
H       0.2944   0.5158   0.2055     H
H       0.2944   0.9842   0.2055     H
C       0.3039     0.25   0.1996     C
C       0.3039     0.75   0.8004     C
C       0.3607     0.25   0.1408     C
C       0.3607     0.75   0.8592     C
N       0.3892   0.0951   0.1135     N
N       0.3892   0.4049   0.1135     N
N       0.3892   0.5951   0.8865     N
N       0.3892   0.9049   0.8865     N
N       0.4379   0.1584   0.0667     N
N       0.4379   0.3416   0.0667     N
N       0.4379   0.6584   0.9333     N
N       0.4379   0.8416   0.9333     N
Cu         0.5      0.0      0.0    Cu
Cu         0.5      0.5      0.0    Cu
N       0.5621   0.1584   0.0667     N
N       0.5621   0.3416   0.0667     N
N       0.5621   0.6584   0.9333     N
N       0.5621   0.8416   0.9333     N
N       0.6108   0.0951   0.1135     N
N       0.6108   0.4049   0.1135     N
N       0.6108   0.5951   0.8865     N
N       0.6108   0.9049   0.8865     N
C       0.6393     0.25   0.1408     C
C       0.6393     0.75   0.8592     C
C       0.6961     0.25   0.1996     C
C       0.6961     0.75   0.8004     C
H       0.7056   0.0158   0.7945     H
H       0.7056   0.4842   0.7945     H
H       0.7056   0.5158   0.2055     H
H       0.7056   0.9842   0.2055     H
C        0.706    0.105    0.799     C
C        0.706    0.395    0.799     C
C        0.706    0.605    0.201     C
C        0.706    0.895    0.201     C
C       0.7228    0.101   0.2237     C
C       0.7228    0.399   0.2237     C
C       0.7228    0.601   0.7763     C
C       0.7228    0.899   0.7763     C
C       0.7772    0.101   0.2763     C
C       0.7772    0.399   0.2763     C
C       0.7772    0.601   0.7237     C
C       0.7772    0.899   0.7237     C
C        0.794    0.105    0.701     C
C        0.794    0.395    0.701     C
C        0.794    0.605    0.299     C
C        0.794    0.895    0.299     C
H       0.7944   0.0158   0.7055     H
H       0.7944   0.4842   0.7055     H
H       0.7944   0.5158   0.2945     H
H       0.7944   0.9842   0.2945     H
C       0.8039     0.25   0.3004     C
C       0.8039     0.75   0.6996     C
C       0.8607     0.25   0.3592     C
C       0.8607     0.75   0.6408     C
N       0.8892   0.0951   0.3865     N
N       0.8892   0.4049   0.3865     N
N       0.8892   0.5951   0.6135     N
N       0.8892   0.9049   0.6135     N
N       0.9379   0.1584   0.4333     N
N       0.9379   0.3416   0.4333     N
N       0.9379   0.6584   0.5667     N
N       0.9379   0.8416   0.5667     N
