data_I
_chemical_name_common  '/home/zhangsd/repos/MofS-CGCNN/ML/data/TSD/clean_cifs/XADDAJ01_clean'
_cell_length_a 12.90300
_cell_length_b 13.78200
_cell_length_c 27.91200
_cell_angle_alpha 75.64000
_cell_angle_beta  79.46000
_cell_angle_gamma 85.71000
_space_group_name_H-M_alt      'P 1'


loop_
_space_group_symop_operation_xyz
  'x, y, z' 

loop_
_atom_site_label
_atom_site_fract_x
_atom_site_fract_y
_atom_site_fract_z
_atom_site_type_symbol
H       0.0006   0.8576   0.3193     H
C       0.0074   0.1521   0.7509     C
C       0.0105   0.4277   0.2749     C
C       0.0155   0.5301   0.2599     C
O       0.0196    0.126  0.42269     O
H       0.0253   0.2608   0.3465     H
C        0.029   0.1701   0.8352     C
Tb     0.03018  0.87474  0.06046    Tb
H       0.0335   0.4302   0.7241     H
H       0.0381   0.0416   0.2764     H
C       0.0397   0.7073   0.6463     C
C       0.0405    0.165   0.6996     C
O       0.0447   0.8879   0.1442     O
O       0.0543   0.0677  0.52795     O
H       0.0558   0.8793    0.234     H
H       0.0617   0.0945    0.191     H
C       0.0663   0.1849   0.7795     C
C       0.0673   0.6206   0.6803     C
C       0.0705   0.8363   0.5648     C
O       0.0716    0.214  0.85963     O
H       0.0787   0.2997   0.2579     H
C       0.0828   0.3692   0.2492     C
H       0.0833   0.1191   0.6092     H
O       0.0876   0.9825  0.36254     O
C       0.0932   0.5746    0.221     C
H       0.0953   0.6442   0.2111     H
O       0.0994   0.0308   0.0335     O
C       0.1019   0.0692   0.2591     C
O       0.1063   0.1724   0.9753     O
C       0.1068   0.7466   0.6023     C
O       0.1099   0.0163    0.923     O
C       0.1159   0.1007   0.2078     C
Tb     0.11984  0.97877  0.44635    Tb
O       0.1236   0.8727  0.97911     O
C       0.1273   0.1188   0.0161     C
O       0.1318    0.865  0.52403     O
H       0.1345   0.0765   0.1132     H
C       0.1353   0.2116   0.6762     C
C       0.1354   0.1652   0.5936     C
C       0.1403   0.1111   0.5143     C
C       0.1493   0.9303    0.937     C
C       0.1551   0.2365   0.7562     C
C       0.1602   0.4148   0.2108     C
C       0.1616   0.0384   0.3415     C
C       0.1662   0.5769   0.6691     C
C       0.1676   0.5179   0.1967     C
C       0.1723   0.2234   0.6215     C
C       0.1757   0.1757   0.5431     C
C       0.1759   0.1314    0.097     C
C       0.1774    0.077   0.2856     C
C       0.1855   0.1653   0.0456     C
H       0.1863   0.5188    0.691     H
C       0.1888   0.2491   0.7054     C
H       0.1932   0.2634   0.7748     H
O       0.2007   0.0998   0.4746     O
C       0.2064   0.7013   0.5918     C
H       0.2084   0.3755   0.1941     H
C       0.2097   0.1414   0.1808     C
O       0.2228    0.063   0.3653     O
C       0.2256   0.1762   0.1251     C
C       0.2357    0.618    0.626     C
C       0.2361    0.897   0.9004     C
H       0.2408   0.0237   0.8455     H
C       0.2479    0.246   0.0217     C
C       0.2482   0.2933    0.596     C
H       0.2498   0.2841   0.6904     H
C       0.2507   0.2476   0.5193     C
H       0.2521   0.7271   0.5622     H
H        0.255   0.2697   0.9871     H
C       0.2581   0.5665   0.1588     C
O       0.2606   0.6604   0.1477     O
H       0.2608   0.7577   0.9431     H
C       0.2727   0.9605   0.8541     C
C       0.2729   0.1175   0.2591     C
H       0.2746   0.3322   0.6136     H
H       0.2773   0.2554   0.4853     H
C       0.2838   0.8013   0.9123     C
C       0.2852   0.3064   0.5452     C
C       0.2877   0.2582   0.1008     C
C        0.288   0.1492   0.2073     C
C       0.3004   0.2921   0.0489     C
H       0.3208   0.2902   0.1192     H
O       0.3264    0.509   0.1412     O
H       0.3266   0.1233   0.2763     H
C       0.3423   0.5661   0.6145     C
H        0.352   0.1762     0.19     H
C       0.3555   0.9323   0.8205     C
C       0.3602   0.3893   0.5188     C
O        0.363   0.4837  0.64258     O
C       0.3647    0.771   0.8787     C
C       0.3698    0.376   0.0214     C
O       0.3755   0.4104  0.47133     O
H       0.3762   0.1281   0.7998     H
O       0.3866   0.6106  0.93293     O
O       0.3895   0.3916   0.9751     O
C       0.3979   0.0036   0.7718     C
O       0.4006   0.4334    0.544     O
C       0.4007   0.8364   0.8332     C
C       0.4009   0.1054   0.7709     C
O        0.404   0.4281   0.0459     O
O       0.4073    0.608  0.57709     O
C       0.4193   0.6706   0.8917     C
H       0.4346   0.9049   0.7291     H
C       0.4363   0.9725   0.7286     C
C       0.4416   0.1728   0.7261     C
H       0.4436   0.2406   0.7251     H
O       0.4449   0.8149   0.4031     O
H       0.4557    0.816   0.8108     H
Tb     0.47005  0.53812  0.41489    Tb
C       0.4772   0.0385   0.6845     C
C       0.4793   0.1383   0.6827     C
C       0.4814   0.7859   0.3646     C
Tb     0.48348   0.5206  0.08578    Tb
O       0.4887   0.6941   0.3632     O
O       0.4944   0.6461   0.8615     O
H       0.4965   0.9849    0.344     H
H       0.5035   0.0151    0.656     H
O       0.5056   0.3539   0.1385     O
O       0.5113   0.3059   0.6368     O
Tb     0.51652   0.4794  0.91422    Tb
C       0.5186   0.2141   0.6354     C
C       0.5207   0.8617   0.3173     C
C       0.5228   0.9615   0.3155     C
Tb     0.52995  0.46188  0.58511    Tb
H       0.5443    0.184   0.1892     H
O       0.5551   0.1851   0.5969     O
H       0.5564   0.7594   0.2749     H
C       0.5584   0.8272   0.2739     C
C       0.5637   0.0275   0.2714     C
H       0.5654   0.0951   0.2709     H
C       0.5807   0.3294   0.1083     C
O       0.5927    0.392  0.42291     O
O        0.596   0.5719   0.9541     O
C       0.5991   0.8946   0.2291     C
C       0.5993   0.1636   0.1668     C
O       0.5994   0.5666    0.456     O
C       0.6021   0.9964   0.2282     C
O       0.6105   0.6084   0.0249     O
O       0.6134   0.3894  0.06707     O
H       0.6238   0.8719   0.2002     H
O       0.6245   0.5896  0.52867     O
C       0.6302    0.624   0.9786     C
C       0.6353    0.229   0.1213     C
O        0.637   0.5163  0.35742     O
C       0.6398   0.6107   0.4812     C
C       0.6445   0.0677   0.1795     C
H        0.648   0.8238     0.81     H
C       0.6577   0.4339   0.3855     C
H       0.6734   0.8767   0.7237     H
O       0.6736    0.491   0.8588     O
H       0.6792   0.7098   0.8808     H
C       0.6996   0.7079   0.9511     C
C        0.712   0.8508   0.7927     C
C       0.7123   0.7418   0.8992     C
C       0.7148   0.6936   0.4548     C
C       0.7162   0.1987   0.0877     C
H       0.7227   0.7446   0.5147     H
H       0.7254   0.6678   0.3864     H
C       0.7271   0.8825   0.7409     C
C       0.7273   0.0395   0.1459     C
H       0.7392   0.2423   0.0569     H
O       0.7394   0.3396   0.8523     O
C       0.7419   0.4335   0.8412     C
H        0.745   0.7303   0.0129     H
H       0.7479   0.2729   0.4378     H
C       0.7493   0.7524   0.4807     C
H       0.7502   0.7159   0.3096     H
C       0.7518   0.7067    0.404     C
C       0.7521    0.754   0.9783     C
H       0.7592   0.9763   0.1545     H
C       0.7639    0.103   0.0996     C
C       0.7643    0.382    0.374     C
C       0.7744   0.8238   0.8749     C
O       0.7772    0.937   0.6347     O
C       0.7903   0.8586   0.8192     C
H       0.7916   0.6245   0.8059     H
C       0.7936   0.2987   0.4082     C
O       0.7993   0.9002   0.5254     O
H       0.8068   0.7366   0.2252     H
C       0.8112   0.7509   0.2946     C
H       0.8137   0.4812    0.309     H
C       0.8145   0.8347   0.9544     C
C       0.8226    0.923   0.7144     C
C       0.8241   0.8686    0.903     C
C       0.8243   0.8243   0.4569     C
C       0.8277   0.7766   0.3785     C
C       0.8324   0.4821   0.8033     C
C       0.8338   0.4231   0.3309     C
C       0.8384   0.9616   0.6585     C
C       0.8398   0.5852   0.7892     C
C       0.8449   0.7635   0.2438     C
C       0.8507   0.0697    0.063     C
C       0.8597   0.8889   0.4857     C
C       0.8646   0.8348   0.4064     C
C       0.8647   0.7884   0.3238     C
H       0.8655   0.9235   0.8868     H
O       0.8682    0.135  0.47597     O
C       0.8727   0.8812   0.9839     C
O       0.8764   0.1273  0.02089     O
Tb     0.88016  0.02123  0.55365    Tb
C       0.8841   0.8993   0.7922     C
O       0.8901   0.9837    0.077     O
C       0.8932   0.2534   0.3977     C
O       0.8937   0.8276   0.0247     O
C       0.8981   0.9308   0.7409     C
O       0.9006   0.9692   0.9665     O
H       0.9047   0.3558   0.7889     H
C       0.9068   0.4254    0.779     C
O       0.9124   0.0175  0.63746     O
H       0.9167   0.8809   0.3908     H
C       0.9172   0.6308   0.7508     C
H       0.9213   0.7003   0.7421     H
O       0.9284    0.786  0.14037     O
C       0.9295   0.1637   0.4352     C
C       0.9327   0.3794   0.3197     C
C       0.9337   0.8151   0.2205     C
H       0.9383   0.9055    0.809     H
H       0.9442   0.1207    0.766     H
O       0.9457   0.9323  0.47205     O
O       0.9553   0.1121   0.8558     O
C       0.9595    0.835   0.3004     C
C       0.9603   0.2927   0.3537     C
H       0.9619   0.9584   0.7236     H
H       0.9665   0.5698   0.2759     H
Tb     0.96982  0.12526  0.93954    Tb
C        0.971   0.8299   0.1648     C
H       0.9747   0.7392   0.6535     H
O       0.9804    0.874  0.57731     O
C       0.9845   0.4699   0.7401     C
C       0.9895   0.5723   0.7251     C
C       0.9926   0.8479   0.2491     C
H       0.9994   0.1424   0.6807     H
