data_I
_chemical_name_common  '/home/zhangsd/repos/MofS-CGCNN/ML/data/TSD/clean_cifs/XADDUD_clean'
_cell_length_a 11.20720
_cell_length_b 22.30340
_cell_length_c 22.30340
_cell_angle_alpha 86.38090
_cell_angle_beta  75.44880
_cell_angle_gamma 75.44880
_space_group_name_H-M_alt      'P 1'


loop_
_space_group_symop_operation_xyz
  'x, y, z' 

loop_
_atom_site_label
_atom_site_fract_x
_atom_site_fract_y
_atom_site_fract_z
_atom_site_type_symbol
C       0.0104  0.62293  0.33907     C
O       0.0106  0.94489  0.37551     O
C      0.01243  0.63518  0.22616     C
H       0.0137   0.6229   0.4291     H
Co     0.01472  0.72996  0.10138    Co
H       0.0171   0.4132   0.6596     H
O      0.01721  0.03104  0.71934     O
C       0.0236   0.6378   0.6096     C
O      0.02474  0.12602   0.8117     O
C      0.02745  0.64514  0.39236     C
H       0.0303   0.5628   0.6652     H
O      0.03422  0.59505  0.03871     O
C      0.03476  0.65526  0.28382     C
Co     0.03606  0.40346  0.86828    Co
C      0.04386  0.02227  0.66221     C
O      0.04451  0.12449  0.94489     O
O      0.04825  0.21934  0.96896     O
H       0.0568   0.7049   0.5473     H
O      0.05818  0.40273  0.77031     O
H       0.0596    0.342   0.3716     H
O      0.06166  0.65401  0.17387     O
C      0.06496  0.70009  0.39139     C
H       0.0658   0.0548   0.0314     H
C      0.06613  0.16221  0.97773     C
C       0.0728  0.70985  0.28295     C
O      0.07293  0.96129  0.09505     O
H       0.0756   0.7147   0.4273     H
C      0.07663  0.58039  0.63115     C
O      0.07784  0.21291  0.82721     O
C      0.08652  0.73315  0.33641     C
C       0.0871   0.1674   0.7948     C
H       0.0893   0.7313   0.2459     H
C      0.09234  0.66556  0.56056     C
O      0.09495  0.82721  0.28709     O
Co     0.09566  0.86828  0.09654    Co
H       0.0972   0.9686   0.5548     H
C      0.10557  0.07611  0.05175     C
Co      0.1161  0.89862  0.22996    Co
C      0.11642  0.62421  0.01335     C
C       0.1181   0.7948   0.3326     C
C      0.11953  0.13444   0.0313     C
H       0.1206   0.5314   0.9452     H
C      0.12977  0.98665  0.12421     C
O      0.13485  0.66987  0.03643     O
C      0.15008  0.04924    0.102     C
O      0.15076   0.3117  0.87398     O
C      0.15083   0.9687  0.63444     C
C      0.15732  0.94825  0.57611     C
O      0.16356   0.8117  0.37398     O
O      0.16798  0.90495  0.46129     O
O        0.169  0.44489  0.87551     O
O      0.17128  0.96357  0.16987     O
O      0.17151  0.77031  0.09727     O
H       0.1794   0.2541   0.7313     H
C      0.18033  0.16359  0.73315     C
C      0.18154  0.16556  0.06056     C
C      0.18168  0.55175  0.92389     C
H        0.191   0.2049   0.0473     H
Co      0.1922  0.90346  0.36828    Co
O      0.19528  0.46357  0.66987     O
C      0.19868  0.54924    0.602     C
C      0.19932    0.602  0.95076     C
H       0.2097   0.0727   0.7147     H
C      0.21183  0.08039  0.13115     C
C      0.21473  0.63444   0.5313     C
C      0.21735  0.21705  0.70985     C
C      0.22834  0.47773  0.83779     C
C        0.229   0.1378   0.1096     C
C      0.23495  0.10861  0.70009     C
O      0.23553  0.82613  0.15401     O
H       0.2383   0.9527   0.7049     H
C      0.23859  0.77384  0.13518     C
H       0.2417   0.0628   0.1652     H
C       0.2421  0.93944  0.66556     C
C      0.25208    0.898  0.54924     C
C      0.25397   0.5313  0.86556     C
C      0.25398  0.87579  0.48665     C
C       0.2545   0.2948   0.8326     C
Co     0.25532  0.39862  0.72996    Co
C      0.25937  0.48665  0.62421     C
O      0.26345  0.71934  0.46896     O
C      0.26657  0.57611  0.55175     C
O      0.26759  0.46896  0.78066     O
O      0.26878  0.90273  0.27031     O
H       0.2732    0.158   0.1284     H
H       0.2824   0.2147   0.9273     H
O      0.28433  0.32613  0.65401     O
O      0.29075  0.32721  0.78709     O
C      0.29222  0.63115  0.91961     C
C      0.29393  0.66221  0.47773     C
H       0.3045   0.6652   0.9372     H
C      0.30998  0.21618  0.65526     C
C      0.31858  0.71618  0.15526     C
H       0.3233   0.6596   0.0868     H
C      0.32741  0.10764  0.64514     C
H       0.3352   0.7541   0.2313     H
C       0.3386   0.8904   0.6378     C
O      0.34115  0.83013  0.46357     O
C      0.34298  0.86885  0.58039     C
C      0.34356  0.20009  0.89139     C
C      0.34392  0.23315  0.83641     C
Co     0.34606  0.77004  0.39862    Co
C       0.3471  0.56056  0.83444     C
H        0.348   0.5548   0.5314     H
C      0.34947  0.66093  0.12293     C
C      0.35239  0.27384  0.63518     C
C      0.35575  0.71705  0.20985     C
H       0.3634   0.0709   0.6229     H
C      0.36667  0.16093  0.62293     C
C       0.3668   0.6096   0.8622     C
O      0.37073  0.46129  0.59505     O
C      0.37377  0.86482  0.27384     C
O      0.38204  0.71291  0.32721     O
O      0.38611  0.62449  0.44489     O
O      0.38954  0.84599  0.32613     O
H       0.3959   0.5473   0.7951     H
H       0.4016   0.8716    0.658     H
H       0.4069   0.8348   0.5628     H
H       0.4101   0.9132   0.1596     H
C      0.41981  0.60764  0.14514     C
C      0.42293  0.66359  0.23315     C
H       0.4303   0.1596   0.5868     H
H       0.4312   0.6284    0.842     H
H       0.4335   0.2313   0.7459     H
H       0.4343   0.1229   0.9291     H
C       0.4344  0.20985  0.78295     C
C      0.43505  0.14514  0.89236     C
Co     0.43952  0.36828  0.59654    Co
H       0.4428   0.5709   0.1229     H
C       0.4507   0.6674   0.2948     C
C      0.45635  0.60861  0.20009     C
O      0.46091  0.27031  0.59727     O
O      0.46246  0.37398   0.6883     O
C       0.4724  0.87707  0.16093     C
C      0.47384  0.84474  0.21618     C
H       0.4971   0.4273   0.7853     H
H       0.5029   0.5727   0.2147     H
C      0.52616  0.15526  0.78382     C
C       0.5276  0.12293  0.83907     C
O      0.53754  0.62602   0.3117     O
O      0.53909  0.72969  0.40273     O
C      0.54365  0.39139  0.79991     C
C       0.5493   0.3326   0.7052     C
H       0.5572   0.4291   0.8771     H
Co     0.56048  0.63172  0.40346    Co
C      0.56495  0.85486  0.10764     C
C       0.5656  0.79015  0.21705     C
H       0.5657   0.8771   0.0709     H
H       0.5665   0.7687   0.2541     H
H       0.5688   0.3716    0.158     H
H       0.5697   0.8404   0.4132     H
C      0.57707  0.33641  0.76685     C
C      0.58019  0.39236  0.85486     C
H       0.5899   0.0868   0.8404     H
H       0.5931   0.1652   0.4372     H
H       0.5984   0.1284    0.342     H
H       0.6041   0.4527   0.2049     H
O      0.61046  0.15401  0.67387     O
O      0.61389  0.37551  0.55511     O
O      0.61796  0.28709  0.67279     O
C      0.62623  0.13518  0.72616     C
O      0.62927  0.53871  0.40495     O
C       0.6332   0.3904   0.1378     C
C      0.63333  0.83907  0.37707     C
H       0.6366   0.9291   0.3771     H
C      0.64425  0.28295  0.79015     C
C      0.64761  0.72616  0.36482     C
C      0.65053  0.33907  0.87707     C
H        0.652   0.4452   0.4686     H
C       0.6529  0.43944  0.16556     C
Co     0.65394  0.22996  0.60138    Co
C      0.65608  0.76685  0.16359     C
C      0.65644  0.79991  0.10861     C
C      0.65702  0.13115  0.41961     C
O      0.65885  0.16987  0.53643     O
C       0.6614   0.1096   0.3622     C
H       0.6648   0.2459   0.7687     H
C      0.67259  0.89236  0.35486     C
H       0.6767   0.3404   0.9132     H
C      0.68142  0.28382  0.84474     C
C      0.69002  0.78382  0.34474     C
H       0.6955   0.3348   0.0628     H
C      0.70607  0.33779  0.52227     C
C      0.70778  0.36885  0.08039     C
O      0.70925  0.67279  0.21291     O
O      0.71567  0.67387  0.34599     O
H       0.7176   0.7853   0.0727     H
H       0.7268    0.842   0.8716     H
O      0.73122  0.09727  0.72969     O
O      0.73241  0.53104  0.21934     O
C      0.73343  0.42389  0.44825     C
O      0.73655  0.28066  0.53104     O
C      0.74063  0.51335  0.37579     C
Co     0.74468  0.60138  0.27004    Co
C       0.7455   0.7052   0.1674     C
C      0.74602  0.12421  0.51335     C
C      0.74603   0.4687  0.13444     C
C      0.74792    0.102  0.45076     C
C       0.7579  0.06056  0.33444     C
H       0.7583   0.9372   0.8348     H
C      0.76141  0.22616  0.86482     C
H       0.7617   0.0473   0.2951     H
O      0.76447  0.17387  0.84599     O
C      0.76505  0.89139  0.29991     C
C        0.771   0.8622   0.8904     C
C      0.77166  0.52227  0.16221     C
C      0.78265  0.78295  0.29015     C
C      0.78527  0.36556   0.4687     C
C      0.78817  0.91961  0.86885     C
H       0.7903   0.9273   0.2853     H
C      0.80068    0.398  0.04924     C
C      0.80132  0.45076    0.398     C
O      0.80472  0.53643  0.33013     O
Co      0.8078  0.09654  0.63172    Co
H        0.809   0.7951   0.9527     H
C      0.81832  0.44825  0.07611     C
C      0.81846  0.83444  0.93944     C
C      0.81967  0.83641  0.26685     C
H       0.8206   0.7459   0.2687     H
O      0.82849  0.22969  0.90273     O
O      0.82872  0.03643  0.83013     O
O        0.831  0.55511  0.12449     O
O      0.83202  0.09505  0.53871     O
O      0.83644   0.1883  0.62602     O
C      0.84268  0.05175  0.42389     C
C      0.84917   0.0313  0.36556     C
O      0.84924   0.6883  0.12602     O
C      0.84992  0.95076    0.898     C
O      0.86515  0.33013  0.96357     O
C      0.87023  0.01335  0.87579     C
H       0.8794   0.4686   0.0548     H
C      0.88047  0.86556   0.9687     C
C       0.8819   0.2052   0.6674     C
C      0.88358  0.37579  0.98665     C
Co      0.8839  0.10138  0.77004    Co
C      0.89443  0.92389  0.94825     C
H       0.9028   0.0314   0.4452     H
Co     0.90434  0.13172  0.90346    Co
O      0.90505  0.17279  0.71291     O
C      0.90766  0.33444  0.43944     C
H       0.9107   0.2687   0.7541     H
C       0.9129   0.8326   0.2052     C
C      0.91348  0.26685  0.66359     C
O      0.92216  0.78709  0.17279     O
C      0.92337  0.41961  0.36885     C
H       0.9244   0.2853   0.5727     H
O      0.92707  0.03871  0.90495     O
C       0.9272  0.29015  0.71705     C
C      0.93387  0.83779  0.02227     C
H       0.9342   0.9452   0.9686     H
C      0.93504  0.29991  0.60861     C
O      0.93834  0.34599  0.82613     O
H       0.9404    0.658   0.6284     H
O      0.94182  0.59727  0.22969     O
H       0.9432   0.2951   0.4527     H
O      0.95175  0.78066  0.03104     O
O      0.95549  0.87551  0.05511     O
C      0.95614  0.97773  0.33779     C
Co     0.96394  0.59654  0.13172    Co
C      0.96524  0.34474  0.71618     C
O      0.96578  0.40495  0.96129     O
H       0.9697   0.4372   0.3348     H
C      0.97255  0.35486  0.60764     C
O      0.97526  0.87398   0.1883     O
C       0.9764   0.3622   0.3904     C
O      0.98279  0.96896  0.28066     O
H       0.9829   0.5868   0.3404     H
Co     0.98528  0.27004  0.89862    Co
H       0.9863   0.3771   0.5709     H
C      0.98757  0.36482  0.77384     C
O       0.9894  0.05511  0.62449     O
C       0.9896  0.37707  0.66093     C
