data_I
_chemical_name_common  '/home/zhangsd/repos/MofS-CGCNN/ML/data/TSD/clean_cifs/XAFBEN_clean'
_cell_length_a 10.70680
_cell_length_b 17.72940
_cell_length_c 13.24350
_cell_angle_alpha 90.00000
_cell_angle_beta  104.44600
_cell_angle_gamma 90.00000
_space_group_name_H-M_alt      'P 1'


loop_
_space_group_symop_operation_xyz
  'x, y, z' 

loop_
_atom_site_label
_atom_site_fract_x
_atom_site_fract_y
_atom_site_fract_z
_atom_site_type_symbol
Bi         0.0  0.42444     0.75    Bi
Bi         0.0  0.57556     0.25    Bi
C       0.0198   0.0423   0.0899     C
C       0.0198   0.9577   0.5899     C
H       0.0324   0.0712   0.1501     H
H       0.0324   0.9288   0.6501     H
O       0.0437   0.3201   0.6639     O
O       0.0437   0.6799   0.1639     O
O       0.1019   0.4177   0.5822     O
O       0.1019   0.5823   0.0822     O
C       0.1024   0.0159   0.4577     C
C       0.1024   0.9841   0.9577     C
C       0.1029   0.3483   0.5997     C
C       0.1029   0.6517   0.0997     C
C       0.1235   0.0261   0.0487     C
C       0.1235   0.9739   0.5487     C
O       0.1504   0.4719   0.9289     O
O       0.1504   0.5281   0.4289     O
H       0.1695   0.2052   0.6355     H
H       0.1695   0.7948   0.1355     H
H       0.1708   0.0264   0.4283     H
H       0.1708   0.9736   0.9283     H
C       0.1754   0.2962   0.5462     C
C       0.1754   0.7038   0.0462     C
C       0.2018   0.2231   0.5811     C
C       0.2018   0.7769   0.0811     C
H       0.2061   0.3729   0.4408     H
H       0.2061   0.6271   0.9408     H
C       0.2237   0.3237   0.4644     C
C       0.2237   0.6763   0.9644     C
O       0.2285   0.4059   0.8201     O
O       0.2285   0.5941   0.3201     O
C       0.2433   0.4487   0.8971     C
C       0.2433   0.5513   0.3971     C
C       0.2567   0.0513   0.1029     C
C       0.2567   0.9487   0.6029     C
O       0.2715   0.0941   0.1799     O
O       0.2715   0.9059   0.6799     O
C       0.2763   0.1763   0.5356     C
C       0.2763   0.8237   0.0356     C
H       0.2939   0.1271   0.5592     H
H       0.2939   0.8729   0.0592     H
C       0.2982   0.2769   0.4189     C
C       0.2982   0.7231   0.9189     C
C       0.3246   0.2038   0.4538     C
C       0.3246   0.7962   0.9538     C
H       0.3292   0.4736   0.5717     H
H       0.3292   0.5264   0.0717     H
H       0.3305   0.2948   0.3645     H
H       0.3305   0.7052   0.8645     H
O       0.3496   0.0281   0.0711     O
O       0.3496   0.9719   0.5711     O
C       0.3765   0.4739   0.9513     C
C       0.3765   0.5261   0.4513     C
C       0.3971   0.1517   0.4003     C
C       0.3971   0.8483   0.9003     C
C       0.3976   0.4841   0.5423     C
C       0.3976   0.5159   0.0423     C
O       0.3981   0.0823   0.4178     O
O       0.3981   0.9177   0.9178     O
O       0.4563   0.1799   0.3361     O
O       0.4563   0.8201   0.8361     O
H       0.4676   0.4288   0.8499     H
H       0.4676   0.5712   0.3499     H
C       0.4802   0.4577   0.9101     C
C       0.4802   0.5423   0.4101     C
Bi         0.5  0.07556     0.25    Bi
Bi         0.5  0.92444     0.75    Bi
C       0.5198   0.4577   0.5899     C
C       0.5198   0.5423   0.0899     C
H       0.5324   0.4288   0.6501     H
H       0.5324   0.5712   0.1501     H
O       0.5437   0.1799   0.1639     O
O       0.5437   0.8201   0.6639     O
O       0.6019   0.0823   0.0822     O
O       0.6019   0.9177   0.5822     O
C       0.6024   0.4841   0.9577     C
C       0.6024   0.5159   0.4577     C
C       0.6029   0.1517   0.0997     C
C       0.6029   0.8483   0.5997     C
C       0.6235   0.4739   0.5487     C
C       0.6235   0.5261   0.0487     C
O       0.6504   0.0281   0.4289     O
O       0.6504   0.9719   0.9289     O
H       0.6695   0.2948   0.1355     H
H       0.6695   0.7052   0.6355     H
H       0.6708   0.4736   0.9283     H
H       0.6708   0.5264   0.4283     H
C       0.6754   0.2038   0.0462     C
C       0.6754   0.7962   0.5462     C
C       0.7018   0.2769   0.0811     C
C       0.7018   0.7231   0.5811     C
H       0.7061   0.1271   0.9408     H
H       0.7061   0.8729   0.4408     H
C       0.7237   0.1763   0.9644     C
C       0.7237   0.8237   0.4644     C
O       0.7285   0.0941   0.3201     O
O       0.7285   0.9059   0.8201     O
C       0.7433   0.0513   0.3971     C
C       0.7433   0.9487   0.8971     C
C       0.7567   0.4487   0.6029     C
C       0.7567   0.5513   0.1029     C
O       0.7715   0.4059   0.6799     O
O       0.7715   0.5941   0.1799     O
C       0.7763   0.3237   0.0356     C
C       0.7763   0.6763   0.5356     C
H       0.7939   0.3729   0.0592     H
H       0.7939   0.6271   0.5592     H
C       0.7982   0.2231   0.9189     C
C       0.7982   0.7769   0.4189     C
C       0.8246   0.2962   0.9538     C
C       0.8246   0.7038   0.4538     C
H       0.8292   0.0264   0.0717     H
H       0.8292   0.9736   0.5717     H
H       0.8305   0.2052   0.8645     H
H       0.8305   0.7948   0.3645     H
O       0.8496   0.4719   0.5711     O
O       0.8496   0.5281   0.0711     O
C       0.8765   0.0261   0.4513     C
C       0.8765   0.9739   0.9513     C
C       0.8971   0.3483   0.9003     C
C       0.8971   0.6517   0.4003     C
C       0.8976   0.0159   0.0423     C
C       0.8976   0.9841   0.5423     C
O       0.8981   0.4177   0.9178     O
O       0.8981   0.5823   0.4178     O
O       0.9563   0.3201   0.8361     O
O       0.9563   0.6799   0.3361     O
H       0.9676   0.0712   0.3499     H
H       0.9676   0.9288   0.8499     H
C       0.9802   0.0423   0.4101     C
C       0.9802   0.9577   0.9101     C
