data_I
_chemical_name_common  '/home/zhangsd/repos/MofS-CGCNN/ML/data/TSD/clean_cifs/XAFFAN_clean'
_cell_length_a 17.17800
_cell_length_b 23.06530
_cell_length_c 23.06530
_cell_angle_alpha 60.82690
_cell_angle_beta  68.13770
_cell_angle_gamma 68.13770
_space_group_name_H-M_alt      'P 1'


loop_
_space_group_symop_operation_xyz
  'x, y, z' 

loop_
_atom_site_label
_atom_site_fract_x
_atom_site_fract_y
_atom_site_fract_z
_atom_site_type_symbol
Zn     0.02823  0.53003  0.53003    Zn
O       0.0657  0.38998   0.5111     O
O       0.0657   0.5111  0.38998     O
O      0.10886  0.43577  0.55707     O
O      0.10886  0.55707  0.43577     O
C       0.1123  0.38779  0.54341     C
C       0.1123  0.54341  0.38779     C
H       0.1473   0.2701   0.5345     H
H       0.1473   0.5345   0.2701     H
C      0.17672  0.32242    0.569     C
C      0.17672    0.569  0.32242     C
C      0.18325  0.26679  0.55833     C
C      0.18325  0.55833  0.26679     C
H         0.23   0.3535   0.6103     H
H         0.23   0.6103   0.3535     H
C      0.23331  0.31648   0.6027     C
C      0.23331   0.6027  0.31648     C
C      0.24254  0.20612  0.58266     C
C      0.24254  0.58266  0.20612     C
H       0.2444   0.1687   0.5763     H
H       0.2444   0.5763   0.1687     H
H       0.2668   0.1465   0.7539     H
H       0.2668   0.7539   0.1465     H
C      0.29441  0.25656  0.62514     C
C      0.29441  0.62514  0.25656     C
C      0.29877  0.19996  0.61586     C
C      0.29877  0.61586  0.19996     C
H       0.3062   0.1103   0.8535     H
H       0.3062   0.8535   0.1103     H
C      0.32389  0.12514  0.75656     C
C      0.32389  0.75656  0.12514     C
H       0.3328   0.2539   0.6465     H
H       0.3328   0.6465   0.2539     H
C      0.34751   0.1027  0.81648     C
C      0.34751  0.81648   0.1027     C
N      0.36114  0.13886  0.63886     N
N      0.36114  0.63886  0.13886     N
H       0.3834   0.0094    0.675     H
H       0.3834    0.675   0.0094     H
C      0.38541  0.11586  0.69996     C
C      0.38541  0.69996  0.11586     C
O       0.3983  0.05707  0.93577     O
O       0.3983  0.93577  0.05707     O
C      0.40128  0.09872  0.59872     C
C      0.40128  0.59872  0.09872     C
C      0.40682  0.03046   0.6285     C
C      0.40682   0.6285  0.03046     C
Zn     0.41171  0.03003  0.03004    Zn
C      0.43186    0.069  0.82242     C
C      0.43186  0.82242    0.069     C
H       0.4322    0.175   0.5094     H
H       0.4322   0.5094    0.175     H
C      0.43422   0.1285  0.53046     C
C      0.43422  0.53046   0.1285     C
C      0.44768  0.58941  0.99203     C
C      0.44768  0.99203  0.58941     C
H       0.4519   0.2299   0.9655     H
H       0.4519   0.9655   0.2299     H
H       0.4535    0.611    0.945     H
H       0.4535    0.945    0.611     H
C       0.4565  0.04341  0.88779     C
C       0.4565  0.88779  0.04341     C
O      0.46678  0.11002   0.9889     O
O      0.46678   0.9889  0.11002     O
C      0.46868  0.08266  0.70612     C
C      0.46868  0.70612  0.08266     C
C      0.47088  0.08941  0.49203     C
C      0.47088  0.49203  0.08941     C
C      0.47923  0.02077  0.52077     C
C      0.47923  0.52077  0.02077     C
H       0.4894   0.3313   0.9237     H
H       0.4894   0.9237   0.3313     H
H       0.4905    0.111    0.445     H
H       0.4905    0.445    0.111     H
C      0.49163  0.05833  0.76679     C
C      0.49163  0.76679  0.05833     C
C      0.50837  0.23321  0.94167     C
C      0.50837  0.94167  0.23321     C
H       0.5095    0.555    0.889     H
H       0.5095    0.889    0.555     H
H       0.5106   0.0763   0.6687     H
H       0.5106   0.6687   0.0763     H
C      0.52077  0.47923  0.97923     C
C      0.52077  0.97923  0.47923     C
C      0.52912  0.50797  0.91059     C
C      0.52912  0.91059  0.50797     C
C      0.53132  0.29388  0.91734     C
C      0.53132  0.91734  0.29388     C
O      0.53322   0.0111  0.88998     O
O      0.53322  0.88998   0.0111     O
C       0.5435  0.11221  0.95659     C
C       0.5435  0.95659  0.11221     C
H       0.5465    0.055    0.389     H
H       0.5465    0.389    0.055     H
H       0.5481   0.0345   0.7701     H
H       0.5481   0.7701   0.0345     H
C      0.55232  0.00797  0.41059     C
C      0.55232  0.41059  0.00797     C
C      0.56578  0.46954   0.8715     C
C      0.56578   0.8715  0.46954     C
H       0.5678   0.4906    0.825     H
H       0.5678    0.825   0.4906     H
C      0.56814  0.17758    0.931     C
C      0.56814    0.931  0.17758     C
Zn     0.58829  0.96997  0.96996    Zn
C      0.59318   0.3715  0.96954     C
C      0.59318  0.96954   0.3715     C
C      0.59872  0.40128  0.90128     C
C      0.59872  0.90128  0.40128     C
O       0.6017  0.06423  0.94293     O
O       0.6017  0.94293  0.06423     O
C      0.61459  0.30004  0.88414     C
C      0.61459  0.88414  0.30004     C
H       0.6166    0.325   0.9906     H
H       0.6166   0.9906    0.325     H
N      0.63886  0.36114  0.86114     N
N      0.63886  0.86114  0.36114     N
C      0.65249  0.18352   0.8973     C
C      0.65249   0.8973  0.18352     C
H       0.6672   0.3535   0.7461     H
H       0.6672   0.7461   0.3535     H
C      0.67611  0.24344  0.87486     C
C      0.67611  0.87486  0.24344     C
H       0.6938   0.1465   0.8897     H
H       0.6938   0.8897   0.1465     H
C      0.70123  0.38414  0.80004     C
C      0.70123  0.80004  0.38414     C
C      0.70559  0.37486  0.74344     C
C      0.70559  0.74344  0.37486     C
H       0.7332   0.2461   0.8535     H
H       0.7332   0.8535   0.2461     H
H       0.7556   0.4237   0.8313     H
H       0.7556   0.8313   0.4237     H
C      0.75746  0.41734  0.79388     C
C      0.75746  0.79388  0.41734     C
C      0.76669   0.3973  0.68352     C
C      0.76669  0.68352   0.3973     C
H         0.77   0.3897   0.6465     H
H         0.77   0.6465   0.3897     H
C      0.81675  0.44167  0.73321     C
C      0.81675  0.73321  0.44167     C
C      0.82328    0.431  0.67758     C
C      0.82328  0.67758    0.431     C
H       0.8527   0.4655   0.7299     H
H       0.8527   0.7299   0.4655     H
C       0.8877  0.45659  0.61221     C
C       0.8877  0.61221  0.45659     C
O      0.89114  0.44293  0.56423     O
O      0.89114  0.56423  0.44293     O
O       0.9343   0.4889  0.61002     O
O       0.9343  0.61002   0.4889     O
Zn     0.97177  0.46997  0.46997    Zn
