data_I
_chemical_name_common  '/home/zhangsd/repos/MofS-CGCNN/ML/data/TSD/clean_cifs/XAGPUT_clean'
_cell_length_a 10.47720
_cell_length_b 15.67530
_cell_length_c 12.77080
_cell_angle_alpha 90.00000
_cell_angle_beta  102.04700
_cell_angle_gamma 90.00000
_space_group_name_H-M_alt      'P 1'


loop_
_space_group_symop_operation_xyz
  'x, y, z' 

loop_
_atom_site_label
_atom_site_fract_x
_atom_site_fract_y
_atom_site_fract_z
_atom_site_type_symbol
U          0.0  0.47175     0.25     U
U          0.0  0.52825     0.75     U
O       0.0338  0.34912   0.1479     O
O       0.0338  0.65088   0.6479     O
O       0.0448  0.43855  0.91275     O
O       0.0448  0.56145  0.41275     O
C       0.1225  0.39118   0.8766     C
C       0.1225  0.60882   0.3766     C
C       0.1317   0.3761   0.1156     C
C       0.1317   0.6239   0.6156     C
O       0.1441  0.40354  0.78333     O
O       0.1441  0.59646  0.28333     O
O       0.1759  0.44826   0.1402     O
O       0.1759  0.55174   0.6402     O
C       0.1898  0.31996   0.9428     C
C       0.1898  0.68004   0.4428     C
C        0.194  0.31369   0.0526     C
C        0.194  0.68631   0.5526     C
H      0.24606  0.26197  0.81728     H
H      0.24606  0.73803  0.31728     H
C       0.2472  0.25674   0.8924     C
C       0.2472  0.74326   0.3924     C
C       0.2528  0.24326   0.1076     C
C       0.2528  0.75674   0.6076     C
H      0.25394  0.23803  0.18272     H
H      0.25394  0.76197  0.68272     H
C        0.306  0.18631   0.9474     C
C        0.306  0.81369   0.4474     C
C       0.3102  0.18004   0.0572     C
C       0.3102  0.81996   0.5572     C
O       0.3241  0.05174   0.8598     O
O       0.3241  0.94826   0.3598     O
O       0.3559  0.09646  0.21667     O
O       0.3559  0.90354  0.71667     O
C       0.3683   0.1239   0.8844     C
C       0.3683   0.8761   0.3844     C
C       0.3775  0.10882   0.1234     C
C       0.3775  0.89118   0.6234     C
O       0.4552  0.06145  0.08725     O
O       0.4552  0.93855  0.58725     O
O       0.4662  0.15088   0.8521     O
O       0.4662  0.84912   0.3521     O
U          0.5  0.02825     0.75     U
U          0.5  0.97175     0.25     U
O       0.5338  0.15088   0.6479     O
O       0.5338  0.84912   0.1479     O
O       0.5448  0.06145  0.41275     O
O       0.5448  0.93855  0.91275     O
C       0.6225  0.10882   0.3766     C
C       0.6225  0.89118   0.8766     C
C       0.6317   0.1239   0.6156     C
C       0.6317   0.8761   0.1156     C
O       0.6441  0.09646  0.28333     O
O       0.6441  0.90354  0.78333     O
O       0.6759  0.05174   0.6402     O
O       0.6759  0.94826   0.1402     O
C       0.6898  0.18004   0.4428     C
C       0.6898  0.81996   0.9428     C
C        0.694  0.18631   0.5526     C
C        0.694  0.81369   0.0526     C
H      0.74606  0.23803  0.31728     H
H      0.74606  0.76197  0.81728     H
C       0.7472  0.24326   0.3924     C
C       0.7472  0.75674   0.8924     C
C       0.7528  0.25674   0.6076     C
C       0.7528  0.74326   0.1076     C
H      0.75394  0.26197  0.68272     H
H      0.75394  0.73803  0.18272     H
C        0.806  0.31369   0.4474     C
C        0.806  0.68631   0.9474     C
C       0.8102  0.31996   0.5572     C
C       0.8102  0.68004   0.0572     C
O       0.8241  0.44826   0.3598     O
O       0.8241  0.55174   0.8598     O
O       0.8559  0.40354  0.71667     O
O       0.8559  0.59646  0.21667     O
C       0.8683   0.3761   0.3844     C
C       0.8683   0.6239   0.8844     C
C       0.8775  0.39118   0.6234     C
C       0.8775  0.60882   0.1234     C
O       0.9552  0.43855  0.58725     O
O       0.9552  0.56145  0.08725     O
O       0.9662  0.34912   0.3521     O
O       0.9662  0.65088   0.8521     O
