data_I
_chemical_name_common  '/home/zhangsd/repos/MofS-CGCNN/ML/data/TSD/clean_cifs/XALDAS_clean'
_cell_length_a 24.64930
_cell_length_b 24.00290
_cell_length_c 17.22670
_cell_angle_alpha 90.00000
_cell_angle_beta  91.31100
_cell_angle_gamma 90.00000
_space_group_name_H-M_alt      'P 1'


loop_
_space_group_symop_operation_xyz
  'x, y, z' 

loop_
_atom_site_label
_atom_site_fract_x
_atom_site_fract_y
_atom_site_fract_z
_atom_site_type_symbol
C       0.0052   0.1876   0.1912     C
C       0.0052   0.8124   0.1912     C
C       0.0068   0.1439    0.244     C
C       0.0068   0.8561    0.244     C
H        0.023   0.1899   0.8455     H
H        0.023   0.8101   0.8455     H
O       0.0332   0.0638   0.7026     O
O       0.0332   0.9362   0.7026     O
C        0.044    0.102    0.748     C
C        0.044    0.898    0.748     C
H       0.0448    0.257   0.1576     H
H       0.0448    0.743   0.1576     H
C       0.0458   0.2278    0.193     C
C       0.0458   0.7722    0.193     C
C       0.0489   0.1404   0.2989     C
C       0.0489   0.8596   0.2989     C
H         0.05   0.1112   0.3343     H
H         0.05   0.8888   0.3343     H
H       0.0532      0.0   0.4292     H
H       0.0605      0.0   0.2942     H
O       0.0816   0.1084   0.7929     O
O       0.0816   0.8916   0.7929     O
Zn      0.0823      0.0   0.6802    Zn
C        0.087      0.0    0.406     C
C        0.088   0.2243    0.248     C
C        0.088   0.7757    0.248     C
C       0.0895   0.1806   0.3007     C
C       0.0895   0.8194   0.3007     C
O       0.0898      0.0   0.5673     O
C        0.092      0.0    0.326     C
H        0.097   0.3194    0.326     H
H        0.097   0.6806    0.326     H
H       0.1177   0.1783   0.3374     H
H       0.1177   0.8217   0.3374     H
C       0.1268    0.315    0.294     C
C       0.1268    0.685    0.294     C
C       0.1283   0.2704    0.243     C
C       0.1283   0.7296    0.243     C
C        0.135      0.0    0.449     C
C       0.1364      0.0    0.542     C
H       0.1399   0.0826   0.1822     H
H       0.1399   0.9174   0.1822     H
C        0.142      0.0    0.291     C
C       0.1461   0.0489    0.157     C
C       0.1461   0.9511    0.157     C
O       0.1463   0.0459   0.9188     O
O       0.1463   0.9541   0.9188     O
O       0.1465      0.0   0.7457     O
Zn       0.147  0.06588   0.8101    Zn
Zn       0.147  0.93412   0.8101    Zn
C        0.148      0.0    0.043     C
C         0.15      0.0    0.956     C
C       0.1503   0.0466    0.078     C
C       0.1503   0.9534    0.078     C
C        0.151      0.0    0.199     C
H        0.155   0.0793     0.05     H
H        0.155   0.9207     0.05     H
H       0.1687   0.3819   0.3335     H
H       0.1687   0.6181   0.3335     H
C         0.17   0.3522    0.299     C
C         0.17   0.6478    0.299     C
C        0.173   0.2635   0.1955     C
C        0.173   0.7365   0.1955     C
H       0.1738   0.2338   0.1608     H
H       0.1738   0.7662   0.1608     H
O        0.181      0.0    0.577     O
C        0.186      0.0    0.417     C
C         0.19      0.0    0.336     C
O       0.2063   0.1187   0.8003     O
O       0.2063   0.8813   0.8003     O
Zn      0.2131      0.0   0.6804    Zn
C       0.2142   0.3453    0.252     C
C       0.2142   0.6547    0.252     C
C       0.2157    0.301      0.2     C
C       0.2157    0.699      0.2     C
H       0.2175      0.0   0.4487     H
H       0.2234      0.0    0.313     H
C        0.238    0.108    0.748     C
C        0.238    0.892    0.748     C
O       0.2438   0.0679    0.704     O
O       0.2438   0.9321    0.704     O
H       0.2455   0.2963   0.1684     H
H       0.2455   0.7037   0.1684     H
H       0.2545   0.2037   0.8316     H
H       0.2545   0.7963   0.8316     H
O       0.2562   0.4321    0.296     O
O       0.2562   0.5679    0.296     O
C        0.262    0.392    0.252     C
C        0.262    0.608    0.252     C
H       0.2766      0.5    0.687     H
H       0.2825      0.5   0.5513     H
C       0.2843    0.199      0.8     C
C       0.2843    0.801      0.8     C
C       0.2858   0.1547    0.748     C
C       0.2858   0.8453    0.748     C
Zn      0.2869      0.5   0.3196    Zn
O       0.2937   0.3813   0.1997     O
O       0.2937   0.6187   0.1997     O
C         0.31      0.5    0.664     C
C        0.314      0.5    0.583     C
O        0.319      0.5    0.423     O
H       0.3262   0.2662   0.8392     H
H       0.3262   0.7338   0.8392     H
C        0.327   0.2365   0.8045     C
C        0.327   0.7635   0.8045     C
C         0.33   0.1478    0.701     C
C         0.33   0.8522    0.701     C
H       0.3313   0.1181   0.6665     H
H       0.3313   0.8819   0.6665     H
H        0.345   0.4207     0.95     H
H        0.345   0.5793     0.95     H
C        0.349      0.5    0.801     C
C       0.3497   0.4534    0.922     C
C       0.3497   0.5466    0.922     C
C         0.35      0.5    0.044     C
C        0.352      0.5    0.957     C
Zn       0.353  0.43412   0.1899    Zn
Zn       0.353  0.56588   0.1899    Zn
O       0.3535      0.5   0.2543     O
O       0.3537   0.4541   0.0812     O
O       0.3537   0.5459   0.0812     O
C       0.3539   0.4511    0.843     C
C       0.3539   0.5489    0.843     C
C        0.358      0.5    0.709     C
H       0.3601   0.4174   0.8178     H
H       0.3601   0.5826   0.8178     H
C       0.3636      0.5    0.458     C
C        0.365      0.5    0.551     C
C       0.3717   0.2296    0.757     C
C       0.3717   0.7704    0.757     C
C       0.3732    0.185    0.706     C
C       0.3732    0.815    0.706     C
H       0.3823   0.3217   0.6626     H
H       0.3823   0.6783   0.6626     H
H        0.403   0.1806    0.674     H
H        0.403   0.8194    0.674     H
C        0.408      0.5    0.674     C
O       0.4102      0.5   0.4327     O
C       0.4105   0.3194   0.6993     C
C       0.4105   0.6806   0.6993     C
C        0.412   0.2757    0.752     C
C        0.412   0.7243    0.752     C
C        0.413      0.5    0.594     C
Zn      0.4177      0.5   0.3198    Zn
O       0.4184   0.3916   0.2071     O
O       0.4184   0.6084   0.2071     O
H       0.4395      0.5   0.7058     H
H       0.4468      0.5   0.5708     H
H         0.45   0.3888   0.6657     H
H         0.45   0.6112   0.6657     H
C       0.4511   0.3596   0.7011     C
C       0.4511   0.6404   0.7011     C
C       0.4542   0.2722    0.807     C
C       0.4542   0.7278    0.807     C
H       0.4552    0.243   0.8424     H
H       0.4552    0.757   0.8424     H
C        0.456    0.398    0.252     C
C        0.456    0.602    0.252     C
O       0.4668   0.4362   0.2974     O
O       0.4668   0.5638   0.2974     O
H        0.477   0.3101   0.1545     H
H        0.477   0.6899   0.1545     H
C       0.4932   0.3561    0.756     C
C       0.4932   0.6439    0.756     C
C       0.4948   0.3124   0.8088     C
C       0.4948   0.6876   0.8088     C
C       0.5052   0.3124   0.1912     C
C       0.5052   0.6876   0.1912     C
C       0.5068   0.3561    0.244     C
C       0.5068   0.6439    0.244     C
H        0.523   0.3101   0.8455     H
H        0.523   0.6899   0.8455     H
O       0.5332   0.4362   0.7026     O
O       0.5332   0.5638   0.7026     O
C        0.544    0.398    0.748     C
C        0.544    0.602    0.748     C
H       0.5448    0.243   0.1576     H
H       0.5448    0.757   0.1576     H
C       0.5458   0.2722    0.193     C
C       0.5458   0.7278    0.193     C
C       0.5489   0.3596   0.2989     C
C       0.5489   0.6404   0.2989     C
H         0.55   0.3888   0.3343     H
H         0.55   0.6112   0.3343     H
H       0.5532      0.5   0.4292     H
H       0.5605      0.5   0.2942     H
O       0.5816   0.3916   0.7929     O
O       0.5816   0.6084   0.7929     O
Zn      0.5823      0.5   0.6802    Zn
C        0.587      0.5    0.406     C
C        0.588   0.2757    0.248     C
C        0.588   0.7243    0.248     C
C       0.5895   0.3194   0.3007     C
C       0.5895   0.6806   0.3007     C
O       0.5898      0.5   0.5673     O
C        0.592      0.5    0.326     C
H        0.597   0.1806    0.326     H
H        0.597   0.8194    0.326     H
H       0.6177   0.3217   0.3374     H
H       0.6177   0.6783   0.3374     H
C       0.6268    0.185    0.294     C
C       0.6268    0.815    0.294     C
C       0.6283   0.2296    0.243     C
C       0.6283   0.7704    0.243     C
C        0.635      0.5    0.449     C
C       0.6364      0.5    0.542     C
H       0.6399   0.4174   0.1822     H
H       0.6399   0.5826   0.1822     H
C        0.642      0.5    0.291     C
C       0.6461   0.4511    0.157     C
C       0.6461   0.5489    0.157     C
O       0.6463   0.4541   0.9188     O
O       0.6463   0.5459   0.9188     O
O       0.6465      0.5   0.7457     O
Zn       0.647  0.43412   0.8101    Zn
Zn       0.647  0.56588   0.8101    Zn
C        0.648      0.5    0.043     C
C         0.65      0.5    0.956     C
C       0.6503   0.4534    0.078     C
C       0.6503   0.5466    0.078     C
C        0.651      0.5    0.199     C
H        0.655   0.4207     0.05     H
H        0.655   0.5793     0.05     H
H       0.6687   0.1181   0.3335     H
H       0.6687   0.8819   0.3335     H
C         0.67   0.1478    0.299     C
C         0.67   0.8522    0.299     C
C        0.673   0.2365   0.1955     C
C        0.673   0.7635   0.1955     C
H       0.6738   0.2662   0.1608     H
H       0.6738   0.7338   0.1608     H
O        0.681      0.5    0.577     O
C        0.686      0.5    0.417     C
C         0.69      0.5    0.336     C
O       0.7063   0.3813   0.8003     O
O       0.7063   0.6187   0.8003     O
Zn      0.7131      0.5   0.6804    Zn
C       0.7142   0.1547    0.252     C
C       0.7142   0.8453    0.252     C
C       0.7157    0.199      0.2     C
C       0.7157    0.801      0.2     C
H       0.7175      0.5   0.4487     H
H       0.7234      0.5    0.313     H
C        0.738    0.392    0.748     C
C        0.738    0.608    0.748     C
O       0.7438   0.4321    0.704     O
O       0.7438   0.5679    0.704     O
H       0.7455   0.2037   0.1684     H
H       0.7455   0.7963   0.1684     H
H       0.7545   0.2963   0.8316     H
H       0.7545   0.7037   0.8316     H
O       0.7562   0.0679    0.296     O
O       0.7562   0.9321    0.296     O
C        0.762    0.108    0.252     C
C        0.762    0.892    0.252     C
H       0.7766      0.0    0.687     H
H       0.7825      0.0   0.5513     H
C       0.7843    0.301      0.8     C
C       0.7843    0.699      0.8     C
C       0.7858   0.3453    0.748     C
C       0.7858   0.6547    0.748     C
Zn      0.7869      0.0   0.3196    Zn
O       0.7937   0.1187   0.1997     O
O       0.7937   0.8813   0.1997     O
C         0.81      0.0    0.664     C
C        0.814      0.0    0.583     C
O        0.819      0.0    0.423     O
H       0.8262   0.2338   0.8392     H
H       0.8262   0.7662   0.8392     H
C        0.827   0.2635   0.8045     C
C        0.827   0.7365   0.8045     C
C         0.83   0.3522    0.701     C
C         0.83   0.6478    0.701     C
H       0.8313   0.3819   0.6665     H
H       0.8313   0.6181   0.6665     H
H        0.845   0.0793     0.95     H
H        0.845   0.9207     0.95     H
C        0.849      0.0    0.801     C
C       0.8497   0.0466    0.922     C
C       0.8497   0.9534    0.922     C
C         0.85      0.0    0.044     C
C        0.852      0.0    0.957     C
Zn       0.853  0.06588   0.1899    Zn
Zn       0.853  0.93412   0.1899    Zn
O       0.8535      0.0   0.2543     O
O       0.8537   0.0459   0.0812     O
O       0.8537   0.9541   0.0812     O
C       0.8539   0.0489    0.843     C
C       0.8539   0.9511    0.843     C
C        0.858      0.0    0.709     C
H       0.8601   0.0826   0.8178     H
H       0.8601   0.9174   0.8178     H
C       0.8636      0.0    0.458     C
C        0.865      0.0    0.551     C
C       0.8717   0.2704    0.757     C
C       0.8717   0.7296    0.757     C
C       0.8732    0.315    0.706     C
C       0.8732    0.685    0.706     C
H       0.8823   0.1783   0.6626     H
H       0.8823   0.8217   0.6626     H
H        0.903   0.3194    0.674     H
H        0.903   0.6806    0.674     H
C        0.908      0.0    0.674     C
O       0.9102      0.0   0.4327     O
C       0.9105   0.1806   0.6993     C
C       0.9105   0.8194   0.6993     C
C        0.912   0.2243    0.752     C
C        0.912   0.7757    0.752     C
C        0.913      0.0    0.594     C
Zn      0.9177      0.0   0.3198    Zn
O       0.9184   0.1084   0.2071     O
O       0.9184   0.8916   0.2071     O
H       0.9395      0.0   0.7058     H
H       0.9468      0.0   0.5708     H
H         0.95   0.1112   0.6657     H
H         0.95   0.8888   0.6657     H
C       0.9511   0.1404   0.7011     C
C       0.9511   0.8596   0.7011     C
C       0.9542   0.2278    0.807     C
C       0.9542   0.7722    0.807     C
H       0.9552    0.257   0.8424     H
H       0.9552    0.743   0.8424     H
C        0.956    0.102    0.252     C
C        0.956    0.898    0.252     C
O       0.9668   0.0638   0.2974     O
O       0.9668   0.9362   0.2974     O
H        0.977   0.1899   0.1545     H
H        0.977   0.8101   0.1545     H
C       0.9932   0.1439    0.756     C
C       0.9932   0.8561    0.756     C
C       0.9948   0.1876   0.8088     C
C       0.9948   0.8124   0.8088     C
