data_I
_chemical_name_common  '/home/zhangsd/repos/MofS-CGCNN/ML/data/TSD/clean_cifs/XALTIP_clean'
_cell_length_a 21.91680
_cell_length_b 21.91680
_cell_length_c 21.91680
_cell_angle_alpha 60.00000
_cell_angle_beta  60.00000
_cell_angle_gamma 60.00000
_space_group_name_H-M_alt      'P 1'


loop_
_space_group_symop_operation_xyz
  'x, y, z' 

loop_
_atom_site_label
_atom_site_fract_x
_atom_site_fract_y
_atom_site_fract_z
_atom_site_type_symbol
O          0.0      0.0  0.43319     O
O          0.0  0.43319      0.0     O
O          0.0  0.56681      0.0     O
O          0.0  0.56681  0.43319     O
O          0.0      1.0  0.56681     O
C       0.0388   0.0388  0.42744     C
C       0.0388   0.0388  0.49496     C
C       0.0388  0.42744   0.0388     C
C       0.0388  0.42744  0.49496     C
C       0.0388  0.49496   0.0388     C
C       0.0388  0.49496  0.42744     C
C       0.0785   0.0785  0.35625     C
C       0.0785   0.0785  0.48675     C
C       0.0785  0.35625   0.0785     C
C       0.0785  0.35625  0.48675     C
C       0.0785  0.48675   0.0785     C
C       0.0785  0.48675  0.35625     C
H      0.07873  0.07873  0.31353     H
H      0.07873  0.07873  0.52901     H
H      0.07873  0.31353  0.07873     H
H      0.07873  0.31353  0.52901     H
H      0.07873  0.52901  0.07873     H
H      0.07873  0.52901  0.31353     H
C      0.11733  0.11733  0.34963     C
C      0.11733  0.11733  0.41571     C
C      0.11733  0.34963  0.11733     C
C      0.11733  0.34963  0.41571     C
C      0.11733  0.41571  0.11733     C
C      0.11733  0.41571  0.34963     C
Cl     0.14412  0.14412  0.14412    Cl
Cl     0.14412  0.14412  0.56764    Cl
Cl     0.14412  0.56764  0.14412    Cl
N       0.1601   0.1601  0.28951     N
N       0.1601   0.1601  0.39029     N
N       0.1601  0.28951   0.1601     N
N       0.1601  0.28951  0.39029     N
N       0.1601  0.39029   0.1601     N
N       0.1601  0.39029  0.28951     N
Co     0.18152  0.18151  0.18151    Co
Co     0.18152  0.18151  0.45546    Co
Co     0.18152  0.45546  0.18151    Co
N       0.1854   0.1854   0.3146     N
N       0.1854   0.3146   0.1854     N
N       0.1854   0.3146   0.3146     N
Zn        0.25     0.25     0.25    Zn
N      0.28951   0.1601   0.1601     N
N      0.28951   0.1601  0.39029     N
N      0.28951  0.39029   0.1601     N
H      0.31353  0.07873  0.07873     H
H      0.31353  0.07873  0.52901     H
H      0.31353  0.52901  0.07873     H
N       0.3146   0.1854   0.1854     N
N       0.3146   0.1854   0.3146     N
N       0.3146   0.3146   0.1854     N
C      0.34963  0.11733  0.11733     C
C      0.34963  0.11733  0.41571     C
C      0.34963  0.41571  0.11733     C
C      0.35625   0.0785   0.0785     C
C      0.35625   0.0785  0.48675     C
C      0.35625  0.48675   0.0785     C
N      0.39029   0.1601   0.1601     N
N      0.39029   0.1601  0.28951     N
N      0.39029  0.28951   0.1601     N
C      0.41571  0.11733  0.11733     C
C      0.41571  0.11733  0.34963     C
C      0.41571  0.34963  0.11733     C
C      0.42744   0.0388   0.0388     C
C      0.42744   0.0388  0.49496     C
C      0.42744  0.49496   0.0388     C
Cl     0.43236  0.85588  0.85588    Cl
O      0.43319      0.0     -0.0     O
O      0.43319      0.0  0.56681     O
O      0.43319  0.56681      0.0     O
Co     0.45547  0.18151  0.18151    Co
H      0.47099  0.68647  0.92127     H
H      0.47099  0.92127  0.68647     H
H      0.47099  0.92127  0.92127     H
C      0.48675   0.0785   0.0785     C
C      0.48675   0.0785  0.35625     C
C      0.48675  0.35625   0.0785     C
C      0.49496   0.0388   0.0388     C
C      0.49496   0.0388  0.42744     C
C      0.49496  0.42744   0.0388     C
C      0.50504  0.57256   0.9612     C
C      0.50504   0.9612  0.57256     C
C      0.50504   0.9612   0.9612     C
C      0.51325  0.64375   0.9215     C
C      0.51325   0.9215  0.64375     C
C      0.51325   0.9215   0.9215     C
H      0.52901  0.07873  0.07873     H
H      0.52901  0.07873  0.31353     H
H      0.52901  0.31353  0.07873     H
Co     0.54453  0.81849  0.81849    Co
O      0.56681      0.0      0.0     O
O      0.56681      0.0  0.43319     O
O      0.56681  0.43319      0.0     O
Cl     0.56764  0.14412  0.14412    Cl
C      0.57256  0.50504   0.9612     C
C      0.57256   0.9612  0.50504     C
C      0.57256   0.9612   0.9612     C
C      0.58429  0.65037  0.88267     C
C      0.58429  0.88267  0.65037     C
C      0.58429  0.88267  0.88267     C
N      0.60971  0.71049   0.8399     N
N      0.60971   0.8399  0.71049     N
N      0.60971   0.8399   0.8399     N
C      0.64375  0.51325   0.9215     C
C      0.64375   0.9215  0.51325     C
C      0.64375   0.9215   0.9215     C
C      0.65037  0.58429  0.88267     C
C      0.65037  0.88267  0.58429     C
C      0.65037  0.88267  0.88267     C
N       0.6854   0.6854   0.8146     N
N       0.6854   0.8146   0.6854     N
N       0.6854   0.8146   0.8146     N
H      0.68647  0.47099  0.92127     H
H      0.68647  0.92127  0.47099     H
H      0.68647  0.92127  0.92127     H
N      0.71049  0.60971   0.8399     N
N      0.71049   0.8399  0.60971     N
N      0.71049   0.8399   0.8399     N
Zn        0.75     0.75     0.75    Zn
N       0.8146   0.6854   0.6854     N
N       0.8146   0.6854   0.8146     N
N       0.8146   0.8146   0.6854     N
Co     0.81848  0.54454  0.81849    Co
Co     0.81848  0.81849  0.54454    Co
Co     0.81848  0.81849  0.81849    Co
N       0.8399  0.60971  0.71049     N
N       0.8399  0.60971   0.8399     N
N       0.8399  0.71049  0.60971     N
N       0.8399  0.71049   0.8399     N
N       0.8399   0.8399  0.60971     N
N       0.8399   0.8399  0.71049     N
Cl     0.85588  0.43236  0.85588    Cl
Cl     0.85588  0.85588  0.43236    Cl
Cl     0.85588  0.85588  0.85588    Cl
C      0.88267  0.58429  0.65037     C
C      0.88267  0.58429  0.88267     C
C      0.88267  0.65037  0.58429     C
C      0.88267  0.65037  0.88267     C
C      0.88267  0.88267  0.58429     C
C      0.88267  0.88267  0.65037     C
H      0.92127  0.47099  0.68647     H
H      0.92127  0.47099  0.92127     H
H      0.92127  0.68647  0.47099     H
H      0.92127  0.68647  0.92127     H
H      0.92127  0.92127  0.47099     H
H      0.92127  0.92127  0.68647     H
C       0.9215  0.51325  0.64375     C
C       0.9215  0.51325   0.9215     C
C       0.9215  0.64375  0.51325     C
C       0.9215  0.64375   0.9215     C
C       0.9215   0.9215  0.51325     C
C       0.9215   0.9215  0.64375     C
C       0.9612  0.50504  0.57256     C
C       0.9612  0.50504   0.9612     C
C       0.9612  0.57256  0.50504     C
C       0.9612  0.57256   0.9612     C
C       0.9612   0.9612  0.50504     C
C       0.9612   0.9612  0.57256     C
O          1.0  0.43319  0.56681     O
