data_I
_chemical_name_common  '/home/zhangsd/repos/MofS-CGCNN/ML/data/TSD/clean_cifs/XANKOO_clean'
_cell_length_a 29.66880
_cell_length_b 29.66880
_cell_length_c 72.71250
_cell_angle_alpha 90.00000
_cell_angle_beta  90.00000
_cell_angle_gamma 120.00000
_space_group_name_H-M_alt      'P 1'


loop_
_space_group_symop_operation_xyz
  'x, y, z' 

loop_
_atom_site_label
_atom_site_fract_x
_atom_site_fract_y
_atom_site_fract_z
_atom_site_type_symbol
O          0.0      0.0   0.1249     O
Zn         0.0      0.0  0.15177    Zn
O          0.0      0.0  0.37587     O
Zn         0.0      0.0  0.40151    Zn
Zn         0.0      0.0  0.59849    Zn
O          0.0      0.0  0.62413     O
Zn         0.0      0.0  0.84823    Zn
O          0.0      0.0   0.8751     O
C      0.00267  0.45833  0.17893     C
Cl     0.00423  0.41367  0.87517    Cl
C      0.00583  0.53577  0.13077     C
O      0.00587  0.09783  0.64803     O
N      0.00673  0.48117  0.90987     N
O      0.00697  0.91413  0.90083     O
O      0.00787  0.09853  0.89603     O
O      0.00797  0.91703  0.64933     O
C      0.00967  0.77393  0.70543     C
Mn      0.0103   0.4776  0.63112    Mn
C       0.0114   0.3075   0.6063     C
C      0.01423  0.48447  0.13497     C
Mn     0.01543  0.49167  0.88185    Mn
C       0.0161     0.52    0.382     C
C      0.01773  0.50957  0.82057     C
C      0.01913  0.38867  0.05007     C
O      0.01923  0.52657  0.85967     O
C      0.02027  0.77113  0.95343     C
C       0.0215   0.4877   0.3868     C
C      0.02193  0.77897  0.07437     C
C      0.02237  0.77983  0.68673     C
C      0.02333  0.84767  0.47207     C
C      0.02337  0.54103  0.17533     C
C       0.0241   0.3924   0.3733     C
C      0.02433  0.79267  0.32237     C
C      0.02513  0.30537  0.05397     C
C      0.02573  0.30577  0.29447     C
C      0.02583  0.37057  0.27297     C
C      0.02687  0.77703  0.93443     C
C      0.02757  0.38663  0.96113     C
C      0.02797  0.38643  0.72063     C
C       0.0286   0.1795   0.2657     C
C      0.02933  0.52267  0.80167     C
O      0.02963  0.06797  0.41087     O
C       0.0297   0.3936   0.6245     C
O       0.0302   0.0706   0.1623     O
C      0.03057  0.30363  0.95783     C
C      0.03147  0.51573  0.08123     C
C       0.0319   0.6154   0.5957     C
Zn     0.03291   0.0714  0.36615    Zn
Zn     0.03458  0.96373  0.11603    Zn
C      0.03497  0.30923  0.70663     C
C       0.0362   0.3142   0.3834     C
Zn     0.03627  0.07085  0.11603    Zn
C      0.03723  0.35917  0.06037     C
N       0.0381   0.4387   0.3648     N
O      0.03833  0.97037  0.41087     O
Zn     0.03848  0.96709  0.36615    Zn
O       0.0388   0.5386   0.6163     O
C       0.0391    0.624   0.3488     C
O       0.0404   0.9698   0.1623     O
O       0.0409    0.541   0.3687     O
C      0.04267  0.74843  0.68213     C
C      0.04447  0.86243  0.91863     C
C      0.04537  0.86383  0.67093     C
N       0.0479   0.4463   0.6181     N
O      0.04977  0.53793  0.12093     O
C      0.05003  0.93337  0.46927     C
C      0.05037  0.24533  0.93993     C
C      0.05087  0.24663  0.69233     C
C      0.05127  0.74983  0.92903     C
O       0.0514   0.1207   0.1361     O
C       0.0531   0.3613   0.6127     C
C       0.0533   0.3609   0.3722     C
C      0.05407  0.11303  0.90253     C
C      0.05507  0.11453  0.65403     C
C       0.0551   0.1187   0.1546     C
C      0.05533  0.11357  0.40237     C
C      0.05533  0.35247  0.28327     C
C       0.0563     0.22   0.2791     C
C      0.05643  0.49597  0.91787     C
C      0.05777  0.18583  0.67443     C
O      0.05803  0.12097  0.38447     O
C      0.05823  0.94467  0.40237     C
C      0.05827  0.18453  0.92253     C
Cl      0.0589   0.5156   0.6557    Cl
C      0.05897  0.94593  0.90253     C
C      0.05907  0.35743  0.96003     C
C      0.05947  0.94493  0.65403     C
C       0.0601     0.18   0.2496     C
C      0.06027  0.36303  0.70883     C
C      0.06033  0.49757  0.94057     C
C      0.06197  0.83633  0.92983     C
C      0.06207  0.83763  0.68243     C
O      0.06293  0.94197  0.38447     O
C       0.0636   0.9449   0.1546     C
N      0.06507  0.28543  0.95143     N
C      0.06613  0.91747  0.43427     C
C      0.06663  0.11667  0.46927     C
C      0.06703  0.89637  0.46737     C
N      0.06727  0.29523  0.69813     N
O      0.06797  0.02963  0.58913     O
O       0.0693   0.9486   0.1361     O
C      0.06953  0.53927  0.83177     C
C      0.06963  0.54647  0.85067     C
O       0.0706   0.0302   0.8377     O
Zn     0.07085  0.03627  0.88397    Zn
Zn      0.0714  0.03291  0.63385    Zn
Cl      0.0761   0.3291   0.2085    Cl
C       0.0766   0.9065   0.1842     C
C      0.07667  0.91513  0.91499     C
C      0.07753  0.91777  0.41577     C
C      0.07837  0.91613  0.66694     C
Cl     0.08033  0.33757  0.45817    Cl
C      0.08177  0.70933  0.98453     C
C      0.08187  0.54483  0.08913     C
C      0.08223  0.15977  0.41577     C
C      0.08253  0.14867  0.43427     C
C      0.08263  0.89357  0.44697     C
O      0.08297  0.09093  0.64933     O
C      0.08317  0.71793  0.73763     C
C       0.0835   0.6398   0.6011     C
C       0.0837   0.9136   0.1653     C
C      0.08387  0.16223  0.66694     C
C      0.08387  0.22863  0.68593     C
C       0.0842   0.6464   0.6201     C
C      0.08437  0.22813  0.93373     C
C       0.0847   0.5551    0.604     C
C      0.08487  0.16153  0.91499     C
C       0.0853   0.5549   0.3566     C
O      0.08587  0.09283  0.90083     O
C       0.0864   0.1701   0.1653     C
C       0.0867   0.4709    0.359     C
C       0.0867    0.875   0.2127     C
C        0.088   0.4717   0.6066     C
C      0.08933  0.19697  0.48007     C
N      0.09013  0.53927  0.89077     N
C      0.09037  0.64473  0.74103     C
O      0.09067  0.99213  0.89603     O
C       0.0908   0.6443   0.3534     C
O      0.09093  0.08297  0.35067     O
O      0.09197  0.99413  0.64803     O
O      0.09283  0.08587  0.09917     O
C      0.09287  0.55623  0.10773     C
C       0.0935   0.1701   0.1842     C
C       0.0949    0.878   0.1935     C
C       0.0976    0.657   0.3721     C
O      0.09783  0.00587  0.35197     O
C      0.09833  0.53887  0.90937     C
O      0.09853  0.00787  0.10397     O
C      0.10167  0.64233  0.98903     C
C      0.10363  0.17067  0.46737     C
C       0.1039    0.273   0.2739     C
C      0.10447  0.68693  0.71323     C
C       0.1047   0.5219   0.3526     C
C       0.1052   0.5229   0.6004     C
C      0.10533  0.89417  0.40987     C
N      0.10537  0.37143  0.96853     N
C      0.10583  0.21117  0.40987     C
C       0.1062   0.2769   0.2512     C
C      0.10643  0.18907  0.44697     C
C       0.1072    0.235   0.2427     C
C      0.10727  0.67633  0.96123     C
C      0.10763  0.91067  0.48007     C
C       0.1077   0.6047   0.5965     C
C       0.1079    0.217   0.1557     C
C       0.1089   0.6046   0.3491     C
C       0.1091   0.8921   0.1557     C
C      0.11037  0.69353  0.73223     C
C      0.11043  0.86997  0.44107     C
C      0.11157  0.86293  0.93733     C
C      0.11177  0.86373  0.68993     C
C       0.1123   0.6886   0.5923     C
N      0.11297  0.38123  0.71523     N
C      0.11303  0.05407  0.09747     C
C      0.11317  0.68903  0.97993     C
C      0.11333  0.50297  0.94577     C
C      0.11357  0.05533  0.59763     C
C      0.11453  0.05507  0.34597     C
N       0.1158   0.2432   0.2241     N
C      0.11633  0.55757  0.82237     C
C      0.11643  0.57177  0.86017     C
C      0.11667  0.06663  0.53073     C
C       0.1187   0.0551   0.8454     C
C       0.1199   0.9399   0.2496     C
C       0.1202   0.8565    0.184     C
O       0.1207   0.0514   0.8639     O
O      0.12097  0.05803  0.61553     O
C      0.12163  0.57997  0.87937     C
C      0.12183  0.87037  0.42247     C
C        0.122   0.2169   0.1935     C
C      0.12217  0.56133  0.07653     C
C      0.12233  0.33067  0.51227     C
Cl     0.12337  0.27443  0.98903    Cl
C        0.125   0.2117   0.2127     C
C        0.125    0.336   0.1544     C
C      0.12563  0.81567  0.50867     C
O      0.12567  0.83323  0.70203     O
C        0.126    0.691   0.3443     C
C      0.12627  0.94173  0.92253     C
C       0.1274   0.8636   0.1651     C
N       0.1274   0.8842   0.2241     N
C       0.1278   0.8928   0.2427     C
O      0.12807  0.83353  0.94963     O
C      0.12807  0.94223  0.67443     C
O      0.12873  0.84517  0.45427     O
C      0.12963  0.25147  0.42247     C
C      0.13003  0.24047  0.44107     C
C       0.1309   0.8034   0.4641     C
C      0.13287  0.31183  0.72013     C
Mn     0.13397  0.32303  0.96445    Mn
C      0.13617  0.18153  0.67093     C
C      0.13627  0.24803  0.68993     C
C      0.13637  0.55903  0.14673     C
C       0.1364   0.2638   0.1651     C
C      0.13673  0.79757  0.20257     C
C       0.1369   0.3191   0.4683     C
C      0.13707  0.24863  0.93733     C
C      0.13757  0.18203  0.91863     C
C      0.13757  0.42003  0.97433     C
C      0.13837  0.42133  0.72673     C
O       0.1401    0.826    0.193     O
N       0.1411   0.3266   0.2432     N
Mn      0.1429   0.3179  0.21518    Mn
C       0.1435   0.2637    0.184     C
C      0.14377  0.91563  0.93373     C
C        0.144     0.84    0.135     C
Mn     0.14427  0.34363  0.70221    Mn
C      0.14427  0.58403  0.11363     C
C      0.14477  0.91613  0.68593     C
C      0.14667  0.82943  0.71533     C
C       0.1475   0.5386   0.3411     C
N      0.14783  0.34007  0.42347     N
C      0.14867  0.08253  0.56573     C
C       0.1488   0.5404   0.5892     C
C        0.149   0.7923    0.158     C
C       0.1509   0.9714   0.2657     C
C      0.15093  0.30187  0.41457     C
C      0.15093  0.84907  0.41457     C
Cl     0.15107  0.87663  0.98903    Cl
C      0.15113  0.34757  0.19837     C
C       0.1513   0.6222   0.5853     C
C       0.1518   0.6213   0.3376     C
C      0.15233  0.17567  0.47207     C
C      0.15333  0.54677  0.91627     C
C      0.15383  0.51577  0.93237     C
C      0.15437  0.35483  0.94653     C
O      0.15483  0.28357  0.45427     O
C       0.1571   0.8415   0.1539     C
C      0.15767  0.64333  0.13873     C
Mn     0.15833  0.34877  0.45149    Mn
C       0.1585   0.3156   0.1539     C
O      0.15933  0.80677  0.47367     O
C      0.15977  0.08223  0.58423     C
C         0.16    0.304    0.135     C
C      0.16153  0.08487  0.08501     C
C      0.16223  0.08387  0.33306     C
C      0.16237  0.22443  0.68243     C
C      0.16263  0.38977  0.41547     C
C      0.16267  0.59963  0.13403     C
C      0.16277  0.81333  0.95133     C
C      0.16323  0.58297  0.83197     C
C      0.16323  0.59007  0.85087     C
C      0.16367  0.22563  0.92983     C
C       0.1637   0.9437   0.2791     C
C      0.16423  0.39367  0.39277     C
O      0.16647  0.29453  0.94963     O
O      0.16657  0.79233  0.96463     O
O      0.16677  0.29243  0.70203     O
O      0.16687  0.79473  0.71703     O
C       0.1691   0.8961   0.2739     C
C      0.16963  0.44667  0.38757     C
C      0.16967  0.72863  0.73683     C
C       0.1701   0.0864   0.8347     C
C       0.1701   0.0935   0.8158     C
C      0.17057  0.31723  0.71533     C
C      0.17067  0.10363  0.53263     C
C       0.1707   0.8938   0.2512     C
C      0.17097  0.72873  0.98423     C
C       0.1711   0.5883  0.33361     C
C       0.1718     0.59  0.58166     C
C      0.17333  0.81067  0.53167     C
C      0.17357  0.58913  0.08243     C
O        0.174   0.3141    0.193     O
C      0.17483  0.82377  0.51277     C
Mn       0.175   0.8571  0.21518    Mn
C      0.17567  0.15233  0.52793     C
C      0.17623  0.35107  0.51277     C
O       0.1785   0.7954   0.2124     O
C      0.17897  0.86713  0.72013     C
C       0.1795   0.0286   0.7343     C
C         0.18   0.0601   0.7504     C
C        0.181     0.69   0.1946     C
C      0.18153  0.13617  0.32907     C
C      0.18203  0.13757  0.08137     C
C       0.1822   0.8631   0.4683     C
Cl     0.18227  0.39223  0.67763    Cl
C       0.1824   0.3648   0.2521     C
C       0.1824   0.8176   0.2521     C
C      0.18243  0.48717  0.40097     C
C      0.18433  0.30997  0.50867     C
C      0.18453  0.05827  0.07747     C
C      0.18467  0.60053  0.10093     C
N       0.1855   0.8589   0.2432     N
C      0.18583  0.05777  0.32557     C
C      0.18667  0.34943  0.95133     C
C      0.18857  0.43803  0.98073     C
C      0.18907  0.10643  0.55303     C
Mn     0.18907  0.86603  0.96445    Mn
C      0.18933  0.36267  0.53167     C
C      0.18957  0.43853  0.73293     C
C      0.18983  0.78687  0.48267     C
Mn     0.19043  0.84167  0.45149    Mn
N      0.19223  0.85217  0.42347     N
O      0.19323  0.35257  0.47367     O
C      0.19497  0.94963  0.93993     C
C      0.19577  0.71113  0.74803     C
C      0.19577  0.94913  0.69233     C
C      0.19627  0.77823  0.72933     C
C      0.19643  0.84887  0.19837     C
C       0.1966   0.3275   0.4641     C
C      0.19693  0.79407  0.50157     C
C      0.19697  0.08933  0.51993     C
C      0.19707  0.77843  0.97673     C
C      0.19717  0.71203  0.99573     C
Mn     0.19937  0.85573  0.70221    Mn
C      0.20047  0.84563  0.94653     C
C      0.20243  0.33917  0.20257     C
C       0.2033   0.7771   0.2256     C
C       0.2037   0.7885   0.2442     C
O       0.2046   0.3831   0.2124     O
O      0.20527  0.37213  0.71703     O
C      0.20527  0.48083  0.99223     C
C      0.20553  0.43167  0.42397     C
C      0.20593  0.40287  0.50157     C
N      0.20593  0.42347  0.44257     N
C      0.20707  0.48213  0.74413     C
C      0.20733  0.23167  0.32237     C
O      0.20767  0.37423  0.96463     O
C       0.2077   0.3567    0.158     C
C      0.20833  0.75337  0.45397     C
C      0.20833  0.87767  0.51227     C
Cl     0.20997  0.81773  0.67763    Cl
C        0.211    0.875   0.1544     C
C      0.21117  0.10583  0.59013     C
C      0.21133  0.76157  0.47317     C
C       0.2115   0.4152   0.2442     C
C       0.2117    0.125   0.7873     C
O      0.21237  0.60373  0.05113     O
O      0.21263  0.59737  0.80277     O
C      0.21313  0.40297  0.48267     C
C      0.21343  0.48667  0.41707     C
C      0.21463  0.60307  0.82127     C
C      0.21667  0.61663  0.13593     C
C       0.2169    0.122   0.8065     C
C        0.217   0.1079   0.8443     C
N      0.21753  0.79407  0.44257     N
C       0.2188   0.6072   0.3207     C
C      0.21977  0.60843  0.06903     C
C         0.22   0.0563   0.7209     C
C      0.22017  0.24253  0.68673     C
C       0.2203   0.6077   0.5692     C
N      0.22037  0.93493  0.95143     N
C      0.22103  0.24297  0.07437     C
C      0.22157  0.41863  0.97673     C
C      0.22177  0.41803  0.72933     C
C       0.2229   0.4262   0.2256     C
C      0.22297  0.24983  0.93443     C
C      0.22423  0.44967  0.51097     C
C      0.22443  0.16237  0.31757     C
C      0.22543  0.77577  0.51097     C
C      0.22563  0.16367  0.07017     C
C       0.2257   0.4697   0.1866     C
C      0.22607  0.23573  0.70543     C
C      0.22613  0.79447  0.42397     C
C       0.2269   0.7493   0.2197     C
C      0.22713  0.83737  0.41547     C
C       0.2275    0.772   0.2568     C
N      0.22797  0.93273  0.69813     N
C        0.228   0.4555   0.2568     C
C      0.22813  0.08437  0.06627     C
C      0.22863  0.08387  0.31407     C
C      0.22887  0.24913  0.95343     C
C      0.22943  0.83577  0.39277     C
C       0.2297   0.7337   0.1993     C
C      0.23167  0.20733  0.67763     C
O       0.2348    0.576   0.5627     O
C        0.235   0.1072   0.7573     C
O       0.2355   0.5747   0.3147     O
C      0.23573  0.22607  0.29457     C
C      0.23843  0.44977  0.47317     C
C      0.23983  0.74327  0.48247     C
C      0.24047  0.13003  0.55893     C
O       0.2405   0.6597   0.5675     O
O      0.24137  0.56883  0.01863     O
O       0.2424   0.6587    0.316     O
C      0.24253  0.22017  0.31327     C
O      0.24267  0.56813  0.77063     O
C      0.24297  0.22103  0.92563     C
N       0.2432   0.1158   0.7759     N
C        0.244   0.7743   0.1866     C
C      0.24533  0.05037  0.06007     C
C      0.24663  0.05087  0.30767     C
C      0.24663  0.45497  0.45397     C
C      0.24693  0.75037  0.50137     C
O      0.24747  0.67363  0.76583     O
C      0.24803  0.13627  0.31007     C
C      0.24847  0.74333  0.75167     C
C      0.24863  0.13707  0.06267     C
C      0.24897  0.81043  0.73293     C
C      0.24913  0.22887  0.04657     C
C      0.24947  0.74503  0.99972     C
C      0.24947  0.81143  0.98073     C
C      0.24963  0.49657  0.50137     C
C      0.24983  0.22297  0.06557     C
C      0.25017  0.30143  0.92903     C
O      0.25037  0.67463  0.01733     O
C       0.2507   0.4776   0.2197     C
C       0.2508   0.7328   0.2324     C
C       0.2511   0.7442   0.2509     C
C      0.25147  0.12963  0.57753     C
C      0.25157  0.29423  0.68213     C
Cl       0.253   0.9239   0.2085    Cl
C      0.25497  0.50443  0.99972     C
C       0.2558   0.5069   0.2509     C
C      0.25667  0.50513  0.75167     C
C      0.25673  0.49657  0.48247     C
Cl     0.25723  0.91967  0.45817    Cl
Zn     0.26194  0.62818  0.03281    Zn
Zn     0.26248  0.63209   0.7827    Zn
O      0.26273  0.62627  0.82897     O
C       0.2637   0.1435    0.816     C
C       0.2638   0.1364   0.8349     C
O      0.26403  0.54597  0.53057     O
O      0.26537  0.62833  0.07753     O
N      0.26607  0.89463  0.96853     N
C       0.2663    0.496   0.1993     C
C       0.2667   0.7167   0.1974     C
C       0.2672    0.518   0.2324     C
N      0.26827  0.88703  0.71523     N
C      0.26973  0.54797  0.51207     C
O       0.2704   0.5457   0.2822     O
C      0.27127  0.44223  0.98423     C
C      0.27137  0.44103  0.73683     C
C        0.273   0.1039   0.7261     C
C      0.27307  0.96943  0.95783     C
C      0.27323  0.78657  0.41707     C
C      0.27387  0.55213  0.01263     C
C      0.27427  0.96503  0.70663     C
C      0.27437  0.55363  0.76413     C
Cl     0.27443  0.12337  0.01097    Cl
C      0.27507  0.79293  0.74413     C
C       0.2751   0.5531   0.2643     C
O       0.2753   0.7296   0.2822     O
C      0.27557  0.79473  0.99223     C
C       0.2769   0.1062   0.7488     C
C      0.27703  0.83037  0.38757     C
C        0.278   0.7249   0.2643     C
C        0.278   0.9638   0.3834     C
C      0.27823  0.73027  0.51207     C
C      0.27827  0.72613  0.01263     C
C      0.27927  0.72563  0.76413     C
C      0.28003  0.97427  0.29447     C
C      0.28023  0.97487  0.05397     C
O      0.28193  0.73597  0.53057     O
C      0.28207  0.36523  0.73763     C
C      0.28247  0.86243  0.97433     C
C      0.28297  0.86163  0.72673     C
C       0.2833     0.55   0.1974     C
O      0.28357  0.15483  0.54573     O
N      0.28543  0.06507  0.04857     N
C      0.28797  0.48513  0.99573     C
C      0.28887  0.48463  0.74803     C
C      0.29067  0.37243  0.98453     C
O      0.29243  0.16677  0.29797     O
O      0.29293  0.59607  0.50437     O
C      0.29423  0.25157  0.31787     C
O      0.29453  0.16647  0.05037     O
Zn     0.29485  0.59527  0.30052    Zn
O        0.295   0.5987   0.2558     O
N      0.29523  0.06727  0.30187     N
C       0.2961   0.9886   0.6063     C
Zn     0.29706  0.70125  0.55064    Zn
C      0.29713  0.94467  0.28327     C
C      0.29837  0.94093  0.96003     C
Zn     0.29875  0.59582  0.55064    Zn
Zn     0.30042  0.70515  0.30052    Zn
C      0.30143  0.25017  0.07097     C
C      0.30187  0.15093  0.58543     C
C      0.30277  0.93973  0.70883     C
O      0.30313  0.70707  0.50437     O
C      0.30363  0.03057  0.04217     C
O       0.3037    0.705   0.2558     O
C        0.304     0.16    0.865     C
C      0.30473  0.81757  0.40097     C
C      0.30537  0.02513  0.94603     C
C      0.30577  0.02573  0.70553     C
C      0.30647  0.41683  0.73223     C
C       0.3075   0.0114   0.3937     C
C       0.3076   0.9467   0.3722     C
C       0.3082   0.9469   0.6127     C
C        0.309    0.435   0.3443     C
C      0.30923  0.03497  0.29337     C
C      0.30997  0.18433  0.49133     C
C         0.31    0.491   0.1946     C
C      0.31097  0.42413  0.97993     C
C       0.3114   0.4237   0.5923     C
C      0.31183  0.13287  0.27987     C
C      0.31307  0.41753  0.71323     C
O       0.3141    0.174    0.807     O
C       0.3142   0.0362   0.6166     C
C       0.3156   0.1585   0.8461     C
C      0.31723  0.17057  0.28467     C
Mn      0.3179   0.1429  0.78482    Mn
C       0.3191   0.1369   0.5317     C
C      0.32193  0.96277  0.06037     C
Mn     0.32303  0.13397  0.03555    Mn
C      0.32367  0.43093  0.96123     C
O      0.32537  0.57573  0.01733     O
O      0.32547  0.75733  0.77063     O
O      0.32637  0.57383  0.76583     O
N       0.3266   0.1411   0.7568     N
O      0.32747  0.75863  0.01863     O
C       0.3275   0.1966   0.5359     C
Cl      0.3291   0.0761   0.7915    Cl
C      0.33067  0.12233  0.48773     C
O      0.33333  0.66667  0.04253     O
Zn     0.33333  0.66667  0.06817    Zn
Zn     0.33333  0.66667  0.26516    Zn
O      0.33333  0.66667   0.2908     O
Zn     0.33333  0.66667   0.5149    Zn
O      0.33333  0.66667  0.54177     O
O      0.33333  0.66667  0.79157     O
Zn     0.33333  0.66667  0.81844    Zn
C        0.336    0.125   0.8456     C
Cl     0.33757  0.08033  0.54183    Cl
C      0.33917  0.20243  0.79743     C
O       0.3392   0.7645   0.3147     O
N      0.34007  0.14783  0.57653     N
O       0.3403   0.5808   0.5675     O
O       0.3412   0.7652   0.5627     O
O       0.3413   0.5837    0.316     O
C        0.343   0.4406   0.3721     C
Mn     0.34363  0.14427  0.29779    Mn
C      0.34473  0.97417  0.27297     C
C      0.34757  0.15113  0.80163     C
Mn     0.34877  0.15833  0.54851    Mn
C      0.34943  0.18667  0.04867     C
C      0.35107  0.17623  0.48723     C
C      0.35247  0.05533  0.71673     C
O      0.35257  0.19323  0.52633     O
C       0.3536   0.4378   0.6201     C
C      0.35483  0.15437  0.05347     C
C      0.35527  0.44563  0.74103     C
C       0.3557   0.4465   0.3534     C
C      0.35667  0.51433  0.13873     C
C       0.3567   0.2077    0.842     C
C      0.35743  0.05907  0.03997     C
C      0.35767  0.45933  0.98903     C
C      0.35847  0.97203  0.72063     C
C      0.35907  0.97243  0.96113     C
C      0.35917  0.03723  0.93963     C
C       0.3602   0.4437   0.6011     C
C       0.3609   0.0533   0.6278     C
C       0.3613   0.0531   0.3873     C
C      0.36193  0.84617  0.93237     C
C      0.36267  0.18933  0.46833     C
O      0.36297  0.73463  0.07753     O
C      0.36303  0.06027  0.29117     C
O      0.36353  0.73727  0.82897     O
C       0.3639   0.9703   0.6245     C
C       0.3648   0.1824   0.7479     C
C      0.36523  0.28207  0.26237     C
Zn     0.36625  0.73806  0.03281    Zn
Zn     0.36791   0.6304   0.7827    Zn
C       0.3683   0.9759   0.3733     C
C      0.36953  0.98087  0.05007     C
Zn      0.3696  0.73752   0.7827    Zn
C      0.37057  0.02583  0.72703     C
N      0.37143  0.10537  0.03147     N
O      0.37167  0.63703  0.07753     O
Zn     0.37182  0.63375  0.03281    Zn
O      0.37213  0.20527  0.28297     O
C      0.37243  0.29067  0.01547     C
O      0.37373  0.63647  0.82897     O
O      0.37423  0.20767  0.03537     O
C        0.376   0.4151   0.3488     C
C       0.3778   0.5291   0.5853     C
C       0.3787   0.5305   0.3376     C
N      0.38123  0.11297  0.28477     N
O       0.3831   0.2046   0.7876     O
C      0.38337  0.60003  0.13593     C
C       0.3837    0.912   0.6066     C
C       0.3842   0.9133    0.359     C
C       0.3846   0.4165   0.5957     C
O      0.38473  0.78737  0.80277     O
C      0.38643  0.02797  0.27937     C
C      0.38663  0.02757  0.03887     C
C       0.3874   0.7797   0.5692     C
C       0.3884   0.7812   0.3207     C
C      0.38843  0.78537  0.82127     C
C      0.38867  0.01913  0.94993     C
C      0.38867  0.78023  0.06903     C
C      0.38963  0.88667  0.94577     C
C      0.38977  0.16263  0.58453     C
C       0.3911   0.8525   0.3411     C
O      0.39137  0.78763  0.05113     O
C      0.39157  0.61133  0.06903     C
C       0.3916   0.8512   0.5892     C
Cl     0.39223  0.18227  0.32237    Cl
C       0.3923   0.6126   0.5692     C
C       0.3924   0.0241   0.6267     C
C       0.3928   0.6116   0.3207     C
C      0.39343  0.84667  0.91627     C
C       0.3936   0.0297   0.3755     C
C      0.39367  0.16423  0.60723     C
C       0.3953    0.503   0.5965     C
C       0.3954   0.5043   0.3491     C
O      0.39627  0.60863  0.05113     O
C      0.39693  0.61157  0.82127     C
N       0.3984   0.9521   0.6181     N
C      0.39947  0.58413  0.10093     C
C      0.39997  0.78333  0.13593     C
C      0.40037  0.56303  0.13403     C
N       0.4006   0.9619   0.3648     N
O       0.4013   0.6963   0.2558     O
O      0.40263  0.61527  0.80277     O
C      0.40287  0.20593  0.49843     C
C      0.40297  0.21313  0.51733     C
O      0.40393  0.69687  0.50437     O
Zn     0.40418  0.70294  0.55064    Zn
Zn     0.40473  0.69958  0.30052    Zn
Cl     0.40943  0.99577  0.87517    Cl
C      0.40993  0.57317  0.85087     C
C         0.41   0.5818  0.58166     C
C      0.41087  0.58443  0.08243     C
C       0.4117   0.5828  0.33361     C
Cl     0.41367  0.00423  0.12483    Cl
C       0.4151    0.376   0.6512     C
C       0.4152   0.2115   0.7558     C
C      0.41557  0.82643  0.08243     C
C      0.41587  0.81533  0.10093     C
C      0.41597  0.56023  0.11363     C
O       0.4163   0.7576    0.316     O
C       0.4165   0.3846   0.4043     C
C      0.41683  0.30647  0.26777     C
C      0.41703  0.58027  0.83197     C
C       0.4172   0.8289  0.33361     C
C       0.4172   0.8953   0.3526     C
C      0.41753  0.31307  0.28677     C
C       0.4177   0.8948   0.6004     C
C      0.41803  0.22177  0.27067     C
C       0.4182   0.8282  0.58166     C
C      0.41863  0.22157  0.02327     C
O       0.4192   0.7595   0.5675     O
C      0.41973  0.83677  0.83197     C
C      0.42003  0.13757  0.02567     C
C      0.42003  0.54167  0.87937     C
C      0.42133  0.13837  0.27327     C
C      0.42267  0.86363  0.14673     C
N      0.42347  0.20593  0.55743     N
C       0.4237   0.3114   0.4077     C
O        0.424   0.6588   0.5627     O
C      0.42413  0.31097  0.02007     C
O      0.42427  0.74963  0.01733     O
O       0.4253   0.6608   0.3147     O
O      0.42617  0.75253  0.76583     O
C       0.4262   0.2229   0.7744     C
C      0.42683  0.83677  0.85087     C
C      0.42823  0.54467  0.86017     C
C      0.43093  0.32367  0.03877     C
O      0.43117  0.67253  0.01863     O
C      0.43167  0.20553  0.57603     C
O      0.43187  0.67453  0.77063     O
C        0.435    0.309   0.6557     C
C      0.43697  0.83733  0.13403     C
C      0.43723  0.93967  0.94057     C
C       0.4378   0.3536   0.3799     C
C      0.43803  0.18857  0.01927     C
C      0.43853  0.18957  0.26707     C
C      0.43867  0.56083  0.07653     C
N       0.4387   0.0381   0.6352     N
C      0.43917  0.87783  0.07653     C
C      0.43953  0.94357  0.91787     C
C      0.43977  0.85573  0.11363     C
C      0.44053  0.90167  0.90937     C
C       0.4406    0.343   0.6279     C
C      0.44097  0.57733  0.14673     C
C      0.44103  0.27137  0.26317     C
C      0.44123  0.88367  0.82237     C
C      0.44223  0.27127  0.01577     C
C      0.44243  0.55877  0.82237     C
C       0.4437   0.3602   0.3989     C
C      0.44377  0.53663  0.10773     C
C       0.4449   0.5296    0.604     C
C       0.4451   0.5304   0.3566     C
C      0.44563  0.35527  0.25897     C
N       0.4463   0.0479   0.3819     N
C      0.44637  0.72073  0.76413     C
C       0.4465   0.3557   0.6466     C
C      0.44667  0.16963  0.61243     C
C       0.4469    0.722   0.2643     C
C      0.44787  0.72173  0.01263     C
N      0.44913  0.90987  0.89077     N
C      0.44967  0.22423  0.48903     C
C      0.44977  0.23843  0.52683     C
C         0.45   0.7333   0.1974     C
C      0.45203  0.72177  0.51207     C
C      0.45323  0.60657  0.91627     C
C      0.45353  0.52317  0.85067     C
O      0.45403  0.71807  0.53057     O
O       0.4543   0.7247   0.2822     O
C      0.45497  0.24663  0.54603     C
C      0.45517  0.53703  0.08913     C
C      0.45533  0.88357  0.86017     C
C       0.4555    0.228   0.7432     C
C      0.45567  0.99733  0.17893     C
Cl      0.4567   0.9411   0.6557    Cl
C      0.45833  0.00267  0.82107     C
C      0.45833  0.87837  0.87937     C
C      0.45897  0.48233  0.17533     C
O        0.459   0.4999   0.3687     O
C      0.45933  0.35767  0.01097     C
C       0.4596   0.6084   0.5892     C
C      0.46073  0.53027  0.83177     C
N      0.46073  0.55087  0.89077     N
C      0.46113  0.55947  0.90937     C
O       0.4614   0.5002   0.6163     O
C       0.4614   0.6089   0.3411     C
O      0.46207  0.51183  0.12093     O
C      0.46297  0.91813  0.08913     C
C      0.46337  0.90713  0.10773     C
C      0.46423  0.47007  0.13077     C
C       0.4662   0.9785   0.3868     C
Mn      0.4673   0.9897  0.63112    Mn
C       0.4695   0.8482   0.3376     C
C       0.4696   0.9147   0.3566     C
C       0.4697   0.2257   0.8134     C
C      0.46973  0.93047  0.83177     C
C      0.47007  0.46423  0.86923     C
C      0.47023  0.98577  0.13497     C
C       0.4704   0.9153    0.604     C
C       0.4709   0.0867    0.641     C
C       0.4709   0.8487   0.5853     C
C       0.4717    0.088   0.3934     C
O      0.47343  0.49267  0.85967     O
N      0.47443  0.99327  0.90987     N
Mn     0.47623  0.98457  0.88185    Mn
C      0.47683  0.93037  0.85067     C
C       0.4771   0.5823   0.6004     C
C      0.47733  0.50667  0.80167     C
Mn      0.4776   0.0103  0.36888    Mn
C       0.4776   0.2507   0.7803     C
C       0.4781   0.5828   0.3526     C
C         0.48   0.4961    0.382     C
C      0.48083  0.20527  0.00777     C
N      0.48117  0.00673  0.09013     N
C        0.482   0.7492   0.2324     C
C      0.48213  0.20707  0.25587     C
C      0.48233  0.45897  0.82467     C
C      0.48423  0.63807  0.93237     C
C      0.48427  0.51573  0.08123     C
C      0.48427  0.96853  0.08123     C
Cl      0.4844   0.5433   0.6557    Cl
C      0.48447  0.01423  0.86503     C
C      0.48463  0.28887  0.25197     C
C      0.48513  0.28797  0.00427     C
C      0.48567  0.84233  0.13873     C
C      0.48667  0.21343  0.58293     C
C      0.48717  0.18243  0.59903     C
C       0.4877   0.0215   0.6132     C
O      0.48817  0.95023  0.12093     O
C      0.49043  0.50817  0.82057     C
C        0.491     0.31   0.8054     C
Mn     0.49167  0.01543  0.11815    Mn
C      0.49183  0.98227  0.82057     C
O      0.49267  0.47343  0.14033     O
C       0.4931   0.7489   0.2509     C
C      0.49333  0.97067  0.80167     C
C      0.49487  0.75153  0.75167     C
C      0.49557  0.75053  0.99972     C
C       0.4957   0.8911   0.3491     C
C      0.49597  0.05643  0.08213     C
C        0.496   0.2663   0.8007     C
C       0.4961     0.48    0.618     C
C      0.49657  0.24963  0.49863     C
C      0.49657  0.25673  0.51753     C
C        0.497   0.8923   0.5965     C
C      0.49703  0.61037  0.94577     C
C      0.49757  0.06033  0.05943     C
O       0.4998   0.9612   0.6163     O
O       0.4999    0.459   0.6313     O
O       0.5001   0.9591   0.3687     O
O       0.5002   0.4614   0.3837     O
C      0.50243  0.56277  0.94057     C
C      0.50297  0.11333  0.05423     C
C        0.503   0.3953   0.4035     C
C      0.50343  0.75307  0.50137     C
C      0.50343  0.76017  0.48247     C
C       0.5039   0.9839    0.382     C
C        0.504   0.7703   0.1993     C
C      0.50403  0.56047  0.91787     C
C       0.5043   0.3954   0.6509     C
C      0.50443  0.25497  0.00028     C
C      0.50513  0.25667  0.24833     C
C      0.50667  0.47733  0.19833     C
C       0.5069   0.2558   0.7491     C
O      0.50733  0.98077  0.85967     O
C      0.50817  0.49043  0.17943     C
Mn     0.50833  0.52377  0.88185    Mn
C        0.509    0.819   0.1946     C
C      0.50957  0.01773  0.17943     C
O      0.51183  0.46207  0.87907     O
C       0.5123   0.5338   0.3868     C
C      0.51283  0.69527  0.40097     C
C      0.51333  0.72677  0.41707     C
C      0.51433  0.35667  0.86127     C
C      0.51487  0.80283  0.99573     C
C      0.51537  0.80423  0.74803     C
C      0.51553  0.52977  0.13497     C
Cl      0.5156   0.0589   0.3443    Cl
C      0.51573  0.03147  0.91877     C
C      0.51573  0.48427  0.91877     C
C      0.51577  0.15383  0.06763     C
C      0.51767  0.97663  0.17533     C
C      0.51787  0.72493  0.74413     C
C        0.518   0.2672   0.7676     C
N      0.51883  0.52557  0.90987     N
C      0.51917  0.72443  0.99223     C
C         0.52   0.0161    0.618     C
C       0.5219   0.1047   0.6474     C
Mn      0.5224   0.5327  0.63112    Mn
C       0.5224   0.7731   0.2197     C
C      0.52267  0.02933  0.19833     C
C       0.5229   0.1052   0.3996     C
C      0.52317  0.45353  0.14933     C
Mn     0.52377  0.50833  0.11815    Mn
N      0.52557  0.51883  0.09013     N
O      0.52657  0.01923  0.14033     O
C       0.5283   0.6163   0.6066     C
C       0.5291   0.3778   0.4147     C
C       0.5291   0.6158    0.359     C
C       0.5296   0.4449    0.396     C
C      0.52977  0.51553  0.86503     C
C      0.52993  0.99417  0.13077     C
C      0.53027  0.46073  0.16823     C
C       0.5303    0.756   0.1866     C
C       0.5304   0.4451   0.6434     C
C       0.5305   0.3787   0.6624     C
Mn      0.5327   0.5224  0.36888    Mn
C       0.5338   0.5123   0.6132     C
C      0.53577  0.00583  0.86923     C
C      0.53663  0.44377  0.89227     C
C      0.53703  0.45517  0.91087     C
O      0.53793  0.04977  0.87907     O
O       0.5386   0.0388   0.3837     O
C       0.5386   0.1475   0.6589     C
C      0.53887  0.09833  0.09063     C
C      0.53927  0.06953  0.16823     C
N      0.53927  0.09013  0.10923     N
C       0.5404   0.1488   0.4108     C
C      0.54067  0.89833  0.98903     C
O        0.541   0.0409   0.6313     O
C      0.54103  0.02337  0.82467     C
C      0.54167  0.42003  0.12063     C
C      0.54167  0.54433  0.17893     C
Cl      0.5433   0.4844   0.3443    Cl
C      0.54433  0.54167  0.82107     C
C       0.5445   0.7725   0.2568     C
C      0.54467  0.42823  0.13983     C
C      0.54483  0.08187  0.91087     C
C      0.54503  0.79167  0.45397     C
O       0.5457   0.2704   0.7178     O
O      0.54597  0.26403  0.46943     O
C      0.54647  0.06963  0.14933     C
C      0.54677  0.15333  0.08373     C
C      0.54797  0.26973  0.48793     C
C         0.55   0.2833   0.8026     C
C      0.55023  0.78867  0.47317     C
C      0.55033  0.77457  0.51097     C
N      0.55087  0.46073  0.10923     N
C      0.55213  0.27387  0.98737     C
C       0.5531   0.2751   0.7357     C
C      0.55333  0.72297  0.38757     C
C       0.5535   0.9092   0.3534     C
C      0.55363  0.27437  0.23587     C
N       0.5537   0.6016   0.6181     N
C      0.55437  0.90963  0.74103     C
C       0.5549   0.0853   0.6434     C
C       0.5551   0.0847    0.396     C
C      0.55623  0.09287  0.89227     C
C       0.5563   0.9165   0.6011     C
C      0.55757  0.11633  0.17763     C
C      0.55777  0.82903  0.98423     C
C      0.55877  0.44243  0.17763     C
C      0.55897  0.83033  0.73683     C
C      0.55903  0.13637  0.85327     C
C       0.5594   0.9024   0.3721     C
C      0.55947  0.46113  0.09063     C
C      0.56023  0.41597  0.88637     C
C      0.56047  0.50403  0.08213     C
C      0.56083  0.43867  0.92347     C
N       0.5613   0.5994   0.3648     N
C      0.56133  0.12217  0.92347     C
C      0.56147  0.75103  0.73293     C
C      0.56197  0.75053  0.98073     C
C       0.5622   0.9158   0.6201     C
C      0.56277  0.50243  0.05943     C
C      0.56303  0.40037  0.86597     C
C        0.565    0.874   0.3443     C
O      0.56813  0.24267  0.22937     O
C      0.56833  0.77387  0.42397     C
O      0.56883  0.24137  0.98137     O
C      0.56907  0.89273  0.96123     C
C      0.57177  0.11643  0.13983     C
C      0.57317  0.40993  0.14913     C
C       0.5738   0.7967   0.2256     C
O      0.57383  0.32637  0.23417     O
O       0.5747   0.2355   0.6853     O
O      0.57573  0.32537  0.98267     O
C      0.57587  0.88683  0.97993     C
O        0.576   0.2348   0.4373     O
C       0.5763   0.8877   0.5923     C
N      0.57653  0.78247  0.44257     N
C      0.57733  0.44097  0.85327     C
C      0.57867  0.71703  0.72673     C
C      0.57997  0.12163  0.12063     C
C      0.57997  0.71753  0.97433     C
C      0.58027  0.41703  0.16803     C
O       0.5808   0.3403   0.4325     O
C      0.58137  0.80293  0.97673     C
C       0.5818     0.41  0.41834     C
C      0.58197  0.80373  0.72933     C
C       0.5823   0.4771   0.3996     C
C      0.58247  0.89553  0.71323     C
C       0.5828   0.4117  0.66639     C
C       0.5828   0.4781   0.6474     C
C      0.58297  0.16323  0.16803     C
C      0.58317  0.88963  0.73223     C
C       0.5835   0.9681   0.5957     C
O       0.5837   0.3413    0.684     O
C      0.58403  0.14427  0.88637     C
C      0.58413  0.39947  0.89907     C
C      0.58443  0.41087  0.91757     C
C       0.5848   0.7963   0.2442     C
C       0.5849   0.9609   0.3488     C
Cl     0.58633  0.59057  0.87517    Cl
C       0.5883   0.1711  0.66639     C
C      0.58913  0.17357  0.91757     C
C         0.59   0.1718  0.41834     C
C      0.59007  0.16323  0.14913     C
Cl     0.59057  0.58633  0.12483    Cl
Zn     0.59527  0.29485  0.69948    Zn
Zn     0.59582  0.29875  0.44936    Zn
O      0.59607  0.29293  0.49563     O
C      0.59703  0.81017  0.48267     C
C      0.59713  0.80307  0.50157     C
O      0.59737  0.21263  0.19723     O
O       0.5987    0.295   0.7442     O
N       0.5994   0.5613   0.6352     N
C      0.59963  0.16267  0.86597     C
C      0.60003  0.38337  0.86407     C
C      0.60053  0.18467  0.89907     C
N       0.6016   0.5537   0.3819     N
C      0.60307  0.21463  0.17873     C
O      0.60373  0.21237  0.94887     O
C       0.6046   0.1089   0.6509     C
C       0.6047   0.1077   0.4035     C
C      0.60633  0.77057  0.39277     C
C       0.6064   0.6361   0.6245     C
C      0.60657  0.45323  0.08373     C
C       0.6072   0.2188   0.6793     C
C       0.6076   0.6317   0.3733     C
C       0.6077   0.2203   0.4308     C
Cl     0.60777  0.79003  0.67763    Cl
C       0.6084   0.4596   0.4108     C
C      0.60843  0.21977  0.93097     C
O      0.60863  0.39627  0.94887     O
C       0.6089   0.4614   0.6589     C
C      0.61023  0.77287  0.41547     C
C      0.61037  0.49703  0.05423     C
C      0.61133  0.39157  0.93097     C
C      0.61133  0.63047  0.05007     C
C      0.61157  0.39693  0.17873     C
C       0.6116   0.3928   0.6793     C
C       0.6126   0.3923   0.4308     C
C      0.61337  0.64093  0.96113     C
C      0.61357  0.64153  0.72063     C
O      0.61527  0.40263  0.19723     O
C       0.6154   0.0319   0.4043     C
C       0.6158   0.5291    0.641     C
C       0.6163   0.5283   0.3934     C
C      0.61663  0.21667  0.86407     C
O       0.6169   0.8215   0.2124     O
N      0.61877  0.73173  0.71523     N
C       0.6213   0.1518   0.6624     C
C       0.6222   0.1513   0.4147     C
C        0.624   0.0391   0.6512     C
O      0.62577  0.83343  0.96463     O
O      0.62627  0.26273  0.17103     O
C      0.62757  0.91823  0.98453     C
O      0.62787  0.83313  0.71703     O
Zn     0.62818  0.26194  0.96719    Zn
O      0.62833  0.26537  0.92247     O
N      0.62857  0.73393  0.96853     N
C      0.62943  0.65527  0.27297     C
Zn      0.6304  0.36791   0.2173    Zn
C      0.63047  0.61133  0.94993     C
C       0.6317   0.6076   0.6267     C
Zn     0.63209  0.26248   0.2173    Zn
Zn     0.63375  0.37182  0.96719    Zn
C      0.63477  0.91683  0.73763     C
C       0.6352   0.8176   0.2521     C
C       0.6361   0.6064   0.3755     C
O      0.63647  0.37373  0.17103     O
C      0.63697  0.69723  0.70883     C
O      0.63703  0.37167  0.92247     O
C      0.63733  0.82667  0.53167     C
C      0.63807  0.48423  0.06763     C
C       0.6387   0.6918   0.6127     C
C       0.6391   0.6924   0.3722     C
C       0.6398   0.0835   0.3989     C
C      0.64083  0.67807  0.06037     C
C      0.64093  0.61337  0.03887     C
C      0.64153  0.61357  0.27937     C
C      0.64233  0.10167  0.01097     C
C      0.64257  0.70163  0.96003     C
C       0.6433    0.851    0.158     C
C      0.64333  0.15767  0.86127     C
C       0.6443   0.0908   0.6466     C
C      0.64473  0.09037  0.25897     C
C      0.64517  0.79953  0.94653     C
C       0.6464   0.0842   0.3799     C
O      0.64743  0.84067  0.47367     O
C      0.64753  0.70287  0.28327     C
C      0.64893  0.82517  0.51277     C
C      0.65057  0.83723  0.95133     C
Mn     0.65123  0.80957  0.45149    Mn
C      0.65243  0.80357  0.19837     C
C      0.65527  0.62943  0.72703     C
Mn     0.65637  0.80063  0.70221    Mn
C        0.657   0.0976   0.6279     C
O       0.6587   0.2424    0.684     O
O       0.6588    0.424   0.4373     O
O       0.6597   0.2405   0.4325     O
N      0.65993  0.80777  0.42347     N
O       0.6608   0.4253   0.6853     O
C      0.66083  0.86327  0.20257     C
Cl     0.66243  0.74277  0.45817    Cl
C        0.664    0.789   0.1544     C
Zn     0.66667  0.33333  0.18156    Zn
O      0.66667  0.33333  0.20843     O
O      0.66667  0.33333  0.45823     O
Zn     0.66667  0.33333   0.4851    Zn
O      0.66667  0.33333   0.7092     O
Zn     0.66667  0.33333  0.73484    Zn
Zn     0.66667  0.33333  0.93183    Zn
O      0.66667  0.33333  0.95747     O
C      0.66933  0.79167  0.51227     C
Cl      0.6709    0.747   0.2085    Cl
C       0.6725   0.8691   0.4641     C
O      0.67253  0.43117  0.98137     O
N       0.6734   0.8145   0.2432     N
O      0.67363  0.24747  0.23417     O
O      0.67453  0.43187  0.22937     O
O      0.67463  0.25037  0.98267     O
C      0.67633  0.10727  0.03877     C
Mn     0.67697  0.81093  0.96445    Mn
C      0.67807  0.64083  0.93963     C
C       0.6809   0.8178   0.4683     C
Mn      0.6821    0.825  0.21518    Mn
C      0.68277  0.85333  0.71533     C
C       0.6844   0.8429   0.1539     C
C       0.6858    0.722   0.3834     C
O       0.6859   0.8599    0.193     O
C      0.68693  0.10447  0.28677     C
C      0.68817  0.82103  0.72013     C
C       0.6886   0.1123   0.4077     C
C      0.68903  0.11317  0.02007     C
C         0.69    0.181   0.8054     C
C      0.69003  0.87437  0.50867     C
C      0.69077  0.72573  0.70663     C
C        0.691    0.126   0.6557     C
C       0.6918   0.6387   0.3873     C
C       0.6924   0.6391   0.6278     C
C       0.6925   0.7039   0.6063     C
C      0.69353  0.11037  0.26777     C
C      0.69423  0.71997  0.29447     C
C      0.69463  0.71977  0.05397     C
C      0.69527  0.51283  0.59903     C
C        0.696    0.856    0.135     C
O       0.6963   0.4013   0.7442     O
C      0.69637  0.72693  0.95783     C
O      0.69687  0.40393  0.49563     O
C      0.69723  0.63697  0.29117     C
C      0.69813  0.84907  0.41457     C
C      0.69857  0.94873  0.92903     C
Zn     0.69958  0.40473  0.69948    Zn
Zn     0.70125  0.29706  0.44936    Zn
C      0.70163  0.64257  0.03997     C
C      0.70287  0.64753  0.71673     C
Zn     0.70294  0.40418  0.44936    Zn
C       0.7039   0.6925   0.3937     C
N      0.70477  0.77203  0.69813     N
O        0.705   0.3037   0.7442     O
Zn     0.70515  0.30042  0.69948    Zn
O      0.70547  0.87193  0.94963     O
C      0.70577  0.95733  0.68213     C
O      0.70707  0.30313  0.49563     O
O      0.70757  0.87433  0.70203     O
C      0.70933  0.08177  0.01547     C
C      0.71113  0.19577  0.25197     C
C      0.71203  0.19717  0.00427     C
N      0.71457  0.77963  0.95143     N
O      0.71643  0.87127  0.45427     O
C       0.7167   0.2667   0.8026     C
C      0.71703  0.57867  0.27327     C
C      0.71753  0.57997  0.02567     C
C      0.71793  0.08317  0.26237     C
O      0.71807  0.45403  0.46943     O
C      0.71977  0.69463  0.94603     C
C      0.71997  0.69423  0.70553     C
C      0.72073  0.44637  0.23587     C
C      0.72173  0.44787  0.98737     C
C      0.72177  0.45203  0.48793     C
C        0.722   0.4469   0.7357     C
C        0.722   0.6858   0.6166     C
C      0.72297  0.55333  0.61243     C
C       0.7231   0.8293   0.2512     C
C      0.72443  0.51917  0.00777     C
O       0.7247   0.4543   0.7178     O
C       0.7249    0.278   0.7357     C
C      0.72493  0.51787  0.25587     C
Cl     0.72557  0.84893  0.98903    Cl
C      0.72563  0.27927  0.23587     C
C      0.72573  0.69077  0.29337     C
C      0.72613  0.27827  0.98737     C
C      0.72677  0.51333  0.58293     C
C      0.72693  0.69637  0.04217     C
C        0.727   0.8309   0.2739     C
C      0.72863  0.16967  0.26317     C
C      0.72873  0.17097  0.01577     C
O       0.7296   0.2753   0.7178     O
C      0.73027  0.27823  0.48793     C
N      0.73173  0.61877  0.28477     N
C       0.7328   0.2508   0.7676     C
C       0.7333     0.45   0.8026     C
C       0.7337   0.2297   0.8007     C
N      0.73393  0.62857  0.03147     N
O      0.73463  0.36297  0.92247     O
O      0.73597  0.28193  0.46943     O
C       0.7362   0.8726   0.1651     C
C       0.7363   0.8798    0.184     C
O      0.73727  0.36353  0.17103     O
Zn     0.73752   0.3696   0.2173    Zn
Zn     0.73806  0.36625  0.96719    Zn
Cl     0.74277  0.66243  0.54183    Cl
C      0.74327  0.23983  0.51753     C
C      0.74333  0.24847  0.24833     C
C       0.7442   0.2511   0.7491     C
C      0.74503  0.24947  0.00028     C
Cl       0.747   0.6709   0.7915    Cl
C      0.74843  0.04267  0.31787     C
C      0.74853  0.87817  0.42247     C
C       0.7489   0.4931   0.7491     C
C       0.7492    0.482   0.7676     C
C       0.7493   0.2269   0.7803     C
O      0.74963  0.42427  0.98267     O
C      0.74983  0.05127  0.07097     C
C      0.75017  0.97313  0.93443     C
C      0.75037  0.24693  0.49863     C
C      0.75053  0.49557  0.00028     C
C      0.75053  0.56197  0.01927     C
C      0.75087  0.97973  0.95343     C
C      0.75103  0.56147  0.26707     C
C      0.75137  0.88843  0.93733     C
C      0.75153  0.49487  0.24833     C
C      0.75197  0.88823  0.68993     C
O      0.75253  0.42617  0.23417     O
C      0.75307  0.50343  0.49863     C
C      0.75337  0.20833  0.54603     C
C      0.75337  0.80423  0.69233     C
C      0.75467  0.80503  0.93993     C
C        0.756   0.5303   0.8134     C
N       0.7568   0.8726   0.2241     N
C      0.75703  0.97807  0.07437     C
O      0.75733  0.32547  0.22937     O
C      0.75747  0.97763  0.68673     C
O       0.7576   0.4163    0.684     O
O      0.75863  0.32747  0.98137     O
O       0.7595   0.4192   0.4325     O
C      0.75953  0.88957  0.44107     C
C      0.76017  0.50343  0.51753     C
C      0.76157  0.21133  0.52683     C
C      0.76427  0.99033  0.70543     C
O       0.7645   0.3392   0.6853     O
C        0.765   0.8722   0.2427     C
O       0.7652   0.3412   0.4373     O
C      0.76833  0.97567  0.32237     C
C       0.7703    0.504   0.8007     C
C      0.77057  0.60633  0.60723     C
C      0.77113  0.02027  0.04657     C
C      0.77137  0.85523  0.68593     C
C      0.77187  0.85623  0.93373     C
C        0.772   0.2275   0.7432     C
N      0.77203  0.70477  0.30187     N
C       0.7725   0.5445   0.7432     C
C      0.77287  0.61023  0.58453     C
C       0.7731   0.5224   0.7803     C
C      0.77387  0.56833  0.57603     C
C      0.77393  0.00967  0.29457     C
C       0.7743    0.244   0.8134     C
C      0.77437  0.93803  0.92983     C
C      0.77457  0.55033  0.48903     C
C      0.77557  0.93793  0.68243     C
C      0.77577  0.22543  0.48903     C
C      0.77703  0.02687  0.06557     C
C       0.7771   0.2033   0.7744     C
C      0.77823  0.19627  0.27067     C
C      0.77843  0.19707  0.02327     C
C      0.77897  0.02193  0.92563     C
N      0.77963  0.71457  0.04857     N
C       0.7797   0.3874   0.4308     C
C      0.77983  0.02237  0.31327     C
C         0.78   0.8363   0.2791     C
C      0.78023  0.38867  0.93097     C
C       0.7812   0.3884   0.6793     C
N      0.78247  0.57653  0.55743     N
C        0.783   0.8909   0.1557     C
C       0.7831   0.9051   0.1935     C
C      0.78333  0.39997  0.86407     C
C      0.78537  0.38843  0.17873     C
C      0.78657  0.27323  0.58293     C
C      0.78687  0.18983  0.51733     C
O      0.78737  0.38473  0.19723     O
O      0.78763  0.39137  0.94887     O
C       0.7883   0.9133   0.2127     C
C       0.7885   0.2037   0.7558     C
C      0.78867  0.55023  0.52683     C
C      0.78883  0.89467  0.40987     C
C        0.789    0.664   0.8456     C
Cl     0.79003  0.60777  0.32237    Cl
C      0.79167  0.54503  0.54603     C
C      0.79167  0.66933  0.48773     C
C       0.7923    0.149    0.842     C
O      0.79233  0.16657  0.03537     O
C      0.79267  0.02433  0.67763     C
C      0.79293  0.27507  0.25587     C
C      0.79407  0.19693  0.49843     C
N      0.79407  0.21753  0.55743     N
C      0.79447  0.22613  0.57603     C
O      0.79473  0.16687  0.28297     O
C      0.79473  0.27557  0.00777     C
O       0.7954   0.1785   0.7876     O
C       0.7963   0.5848   0.7558     C
C       0.7967   0.5738   0.7744     C
C      0.79757  0.13673  0.79743     C
C      0.79953  0.64517  0.05347     C
Mn     0.80063  0.65637  0.29779    Mn
C      0.80283  0.51487  0.00427     C
C      0.80293  0.58137  0.02327     C
C      0.80303  0.89237  0.48007     C
C      0.80307  0.59713  0.49843     C
C       0.8034   0.1309   0.5359     C
C      0.80357  0.65243  0.80163     C
C      0.80373  0.58197  0.27067     C
C      0.80423  0.51537  0.25197     C
C      0.80423  0.75337  0.30767     C
C      0.80503  0.75467  0.06007     C
O      0.80677  0.15933  0.52633     O
N      0.80777  0.65993  0.57653     N
Mn     0.80957  0.65123  0.54851    Mn
C      0.81017  0.59703  0.51733     C
C      0.81043  0.24897  0.26707     C
C      0.81067  0.17333  0.46833     C
Mn     0.81093  0.67697  0.03555    Mn
C      0.81093  0.91737  0.44697     C
C      0.81143  0.24947  0.01927     C
C      0.81333  0.16277  0.04867     C
C      0.81417  0.87193  0.67443     C
N       0.8145   0.6734   0.7568     N
C      0.81533  0.41587  0.89907     C
C      0.81547  0.87373  0.92253     C
C      0.81567  0.12563  0.49133     C
C      0.81757  0.30473  0.59903     C
C       0.8176   0.1824   0.7479     C
C       0.8176   0.6352   0.7479     C
Cl     0.81773  0.20997  0.32237    Cl
C       0.8178   0.6809   0.5317     C
C      0.81797  0.95553  0.91863     C
C      0.81847  0.95463  0.67093     C
C        0.819    0.509   0.8054     C
C         0.82   0.8801   0.2496     C
C       0.8205   0.8491   0.2657     C
C      0.82103  0.68817  0.27987     C
O       0.8215   0.6169   0.7876     O
C      0.82377  0.17483  0.48723     C
C      0.82433  0.97667  0.47207     C
Mn       0.825   0.6821  0.78482    Mn
C      0.82517  0.64893  0.48723     C
O        0.826   0.1401    0.807     O
C      0.82643  0.41557  0.91757     C
C      0.82667  0.63733  0.46833     C
C       0.8282   0.4182  0.41834     C
C       0.8289   0.4172  0.66639     C
C      0.82903  0.55777  0.01577     C
C       0.8293   0.7231   0.7488     C
C      0.82933  0.93297  0.46737     C
C      0.82943  0.14667  0.28467     C
C       0.8299   0.9163   0.1653     C
C       0.8299   0.9234   0.1842     C
C      0.83033  0.55897  0.26317     C
C      0.83037  0.27703  0.61243     C
C       0.8309    0.727   0.7261     C
O      0.83313  0.62787  0.28297     O
O      0.83323  0.12567  0.29797     O
O      0.83343  0.62577  0.03537     O
O      0.83353  0.12807  0.05037     O
C      0.83577  0.22943  0.60723     C
C       0.8363     0.78   0.7209     C
C      0.83633  0.06197  0.07017     C
C      0.83677  0.41973  0.16803     C
C      0.83677  0.42683  0.14913     C
C      0.83723  0.65057  0.04867     C
C      0.83733  0.43697  0.86597     C
C      0.83737  0.22713  0.58453     C
C      0.83763  0.06207  0.31757     C
C      0.83777  0.92163  0.66694     C
C      0.83847  0.92333  0.91499     C
C         0.84    0.144    0.865     C
C      0.84023  0.92247  0.41577     C
O      0.84067  0.64743  0.52633     O
C       0.8415   0.1571   0.8461     C
Mn     0.84167  0.19043  0.54851    Mn
C      0.84233  0.48567  0.86127     C
C       0.8429   0.6844   0.8461     C
O      0.84517  0.12873  0.54573     O
C      0.84563  0.20047  0.05347     C
C      0.84617  0.36193  0.06763     C
C      0.84667  0.39343  0.08373     C
C      0.84767  0.02333  0.52793     C
C       0.8482   0.4695   0.6624     C
C       0.8487   0.4709   0.4147     C
C      0.84887  0.19643  0.80163     C
Cl     0.84893  0.72557  0.01097    Cl
C      0.84907  0.15093  0.58543     C
C      0.84907  0.69813  0.58543     C
C       0.8491   0.8205   0.7343     C
C        0.851   0.6433    0.842     C
C       0.8512   0.3916   0.4108     C
C      0.85133  0.93387  0.43427     C
N      0.85217  0.19223  0.57653     N
C       0.8525   0.3911   0.6589     C
C      0.85333  0.68277  0.28467     C
C      0.85523  0.77137  0.31407     C
Mn     0.85573  0.19937  0.29779    Mn
C      0.85573  0.43977  0.88637     C
C        0.856    0.696    0.865     C
C      0.85623  0.77187  0.06627     C
C       0.8565   0.1202    0.816     C
Mn      0.8571    0.175  0.78482    Mn
N       0.8589   0.1855   0.7568     N
O       0.8599   0.6859    0.807     O
C      0.86163  0.28297  0.27327     C
C      0.86243  0.04447  0.08137     C
C      0.86243  0.28247  0.02567     C
C      0.86293  0.11157  0.06267     C
C       0.8631   0.1822   0.5317     C
C      0.86327  0.66083  0.79743     C
C       0.8636   0.1274   0.8349     C
C      0.86363  0.42267  0.85327     C
C      0.86373  0.11177  0.31007     C
C      0.86383  0.04537  0.32907     C
Mn     0.86603  0.18907  0.03555    Mn
C      0.86713  0.17897  0.27987     C
C       0.8691   0.6725   0.5359     C
C      0.86997  0.11043  0.55893     C
C      0.87037  0.12183  0.57753     C
O      0.87127  0.71643  0.54573     O
O      0.87193  0.70547  0.05037     O
C      0.87193  0.81417  0.32557     C
C       0.8722    0.765   0.7573     C
C       0.8726   0.7362   0.8349     C
N       0.8726   0.7568   0.7759     N
C      0.87373  0.81547  0.07747     C
C        0.874    0.565   0.6557     C
O      0.87433  0.70757  0.29797     O
C      0.87437  0.69003  0.49133     C
C        0.875   0.0867   0.7873     C
C        0.875    0.211   0.8456     C
Cl     0.87663  0.15107  0.01097    Cl
C      0.87767  0.20833  0.48773     C
C      0.87783  0.43917  0.92347     C
C        0.878   0.0949   0.8065     C
C      0.87817  0.74853  0.57753     C
C      0.87837  0.45833  0.12063     C
O      0.87903  0.93707  0.38447     O
O       0.8793   0.9307   0.1361     O
C       0.8798   0.7363    0.816     C
C       0.8801     0.82   0.7504     C
C       0.8813   0.9364   0.1546     C
C      0.88333  0.94997  0.46927     C
C      0.88357  0.45533  0.13983     C
C      0.88367  0.44123  0.17763     C
N       0.8842   0.1274   0.7759     N
C      0.88547  0.94053  0.65403     C
C      0.88643  0.94177  0.40237     C
C      0.88667  0.38963  0.05423     C
C      0.88683  0.57587  0.02007     C
C      0.88697  0.94103  0.90253     C
N      0.88703  0.26827  0.28477     N
C       0.8877   0.5763   0.4077     C
C      0.88823  0.75197  0.31007     C
C      0.88843  0.75137  0.06267     C
C      0.88957  0.75953  0.55893     C
C      0.88963  0.58317  0.26777     C
C       0.8909    0.783   0.8443     C
C       0.8911   0.4957   0.6509     C
C       0.8921   0.1091   0.8443     C
C       0.8923    0.497   0.4035     C
C      0.89237  0.80303  0.51993     C
C      0.89273  0.56907  0.03877     C
C       0.8928   0.1278   0.7573     C
C      0.89357  0.08263  0.55303     C
C       0.8938   0.1707   0.7488     C
C      0.89417  0.10533  0.59013     C
N      0.89463  0.26607  0.03147     N
C      0.89467  0.78883  0.59013     C
C       0.8948   0.4177   0.3996     C
C       0.8953   0.4172   0.6474     C
C      0.89553  0.58247  0.28677     C
C       0.8961   0.1691   0.7261     C
C      0.89637  0.06703  0.53263     C
C      0.89833  0.54067  0.01097     C
O      0.90147  0.90933  0.89603     O
C      0.90167  0.44053  0.09063     C
O      0.90217  0.90803  0.64803     O
C       0.9024   0.5594   0.6279     C
C       0.9051   0.7831   0.8065     C
C       0.9065   0.0766   0.8158     C
C      0.90713  0.46337  0.89227     C
O      0.90717  0.99303  0.90083     O
O      0.90803  0.90217  0.35197     O
O      0.90907  0.99203  0.64933     O
C       0.9092   0.5535   0.6466     C
O      0.90933  0.90147  0.10397     O
C      0.90963  0.55437  0.25897     C
N      0.90987  0.44913  0.10923     N
C      0.91067  0.10763  0.51993     C
C        0.912   0.3837   0.3934     C
C       0.9133   0.3842    0.641     C
C       0.9133   0.7883   0.7873     C
C       0.9136   0.0837   0.8347     C
O      0.91413  0.00697  0.09917     O
C       0.9147   0.4696   0.6434     C
C      0.91513  0.07667  0.08501     C
C       0.9153   0.4704    0.396     C
C      0.91563  0.14377  0.06627     C
C       0.9158   0.5622   0.3799     C
C      0.91613  0.07837  0.33306     C
C      0.91613  0.14477  0.31407     C
C       0.9163   0.8299   0.8347     C
C       0.9165   0.5563   0.3989     C
C      0.91683  0.63477  0.26237     C
O      0.91703  0.00797  0.35067     O
C      0.91737  0.81093  0.55303     C
C      0.91747  0.06613  0.56573     C
C      0.91777  0.07753  0.58423     C
C      0.91813  0.46297  0.91087     C
C      0.91823  0.62757  0.01547     C
Cl     0.91967  0.25723  0.54183    Cl
C      0.92163  0.83777  0.33306     C
C      0.92247  0.84023  0.58423     C
C      0.92333  0.83847  0.08501     C
C       0.9234   0.8299   0.8158     C
Cl      0.9239    0.253   0.7915    Cl
Zn      0.9286  0.96152  0.36615    Zn
Zn     0.92915  0.96542  0.11603    Zn
O       0.9294   0.9596   0.1623     O
C      0.93037  0.47683  0.14933     C
C      0.93047  0.46973  0.16823     C
O       0.9307   0.8793   0.8639     O
O      0.93203  0.96167  0.41087     O
N      0.93273  0.22797  0.30187     N
C      0.93297  0.82933  0.53263     C
C      0.93337  0.05003  0.53073     C
C      0.93387  0.85133  0.56573     C
N      0.93493  0.22037  0.04857     N
C       0.9364   0.8813   0.8454     C
O      0.93707  0.87903  0.61553     O
C      0.93793  0.77557  0.31757     C
C      0.93803  0.77437  0.07017     C
C      0.93967  0.43723  0.05943     C
C      0.93973  0.30277  0.29117     C
C       0.9399   0.1199   0.7504     C
C      0.94053  0.88547  0.34597     C
C      0.94093  0.29837  0.03997     C
C      0.94103  0.88697  0.09747     C
Cl      0.9411   0.4567   0.3443    Cl
C      0.94173  0.12627  0.07747     C
C      0.94177  0.88643  0.59763     C
O      0.94197  0.06293  0.61553     O
C      0.94223  0.12807  0.32557     C
C      0.94357  0.43953  0.08213     C
C       0.9437   0.1637   0.7209     C
C      0.94467  0.05823  0.59763     C
C      0.94467  0.29713  0.71673     C
C       0.9449   0.0636   0.8454     C
C      0.94493  0.05947  0.34597     C
C      0.94593  0.05897  0.09747     C
C       0.9467   0.3076   0.6278     C
C       0.9469   0.3082   0.3873     C
O       0.9486   0.0693   0.8639     O
C      0.94873  0.69857  0.07097     C
C      0.94913  0.19577  0.30767     C
C      0.94963  0.19497  0.06007     C
C      0.94997  0.88333  0.53073     C
O      0.95023  0.48817  0.87907     O
N       0.9521   0.3984   0.3819     N
C      0.95463  0.81847  0.32907     C
C      0.95553  0.81797  0.08137     C
C      0.95733  0.70577  0.31787     C
O       0.9591   0.5001   0.6313     O
O       0.9596   0.9294   0.8377     O
C       0.9609   0.5849   0.6512     C
O       0.9612   0.4998   0.3837     O
Zn     0.96152   0.9286  0.63385    Zn
O      0.96167  0.93203  0.58913     O
N       0.9619   0.4006   0.6352     N
C      0.96277  0.32193  0.93963     C
Zn     0.96373  0.03458  0.88397    Zn
C       0.9638    0.278   0.6166     C
C      0.96503  0.27427  0.29337     C
Zn     0.96542  0.92915  0.88397    Zn
Zn     0.96709  0.03848  0.63385    Zn
C       0.9681   0.5835   0.4043     C
C      0.96853  0.48427  0.91877     C
C      0.96943  0.27307  0.04217     C
O       0.9698   0.0404   0.8377     O
C       0.9703   0.3639   0.3755     C
O      0.97037  0.03833  0.58913     O
C      0.97067  0.49333  0.19833     C
C       0.9714   0.1509   0.7343     C
C      0.97203  0.35847  0.27937     C
C      0.97243  0.35907  0.03887     C
C      0.97313  0.75017  0.06557     C
C      0.97417  0.34473  0.72703     C
C      0.97427  0.28003  0.70553     C
C      0.97487  0.28023  0.94603     C
C      0.97567  0.76833  0.67763     C
C       0.9759   0.3683   0.6267     C
C      0.97663  0.51767  0.82467     C
C      0.97667  0.82433  0.52793     C
C      0.97763  0.75747  0.31327     C
C      0.97807  0.75703  0.92563     C
C       0.9785   0.4662   0.6132     C
C      0.97973  0.75087  0.04657     C
O      0.98077  0.50733  0.14033     O
C      0.98087  0.36953  0.94993     C
C      0.98227  0.49183  0.17943     C
C       0.9839   0.5039    0.618     C
Mn     0.98457  0.47623  0.11815    Mn
C      0.98577  0.47023  0.86503     C
C       0.9886   0.2961   0.3937     C
Mn      0.9897   0.4673  0.36888    Mn
C      0.99033  0.76427  0.29457     C
O      0.99203  0.90907  0.35067     O
O      0.99213  0.09067  0.10397     O
O      0.99303  0.90717  0.09917     O
N      0.99327  0.47443  0.09013     N
O      0.99413  0.09197  0.35197     O
C      0.99417  0.52993  0.86923     C
Cl     0.99577  0.40943  0.12483    Cl
C      0.99733  0.45567  0.82107     C
