data_I
_chemical_name_common  '/home/zhangsd/repos/MofS-CGCNN/ML/data/TSD/clean_cifs/XASPEP_clean'
_cell_length_a 20.49680
_cell_length_b 20.49680
_cell_length_c 17.81830
_cell_angle_alpha 90.00000
_cell_angle_beta  90.00000
_cell_angle_gamma 90.00000
_space_group_name_H-M_alt      'P 1'


loop_
_space_group_symop_operation_xyz
  'x, y, z' 

loop_
_atom_site_label
_atom_site_fract_x
_atom_site_fract_y
_atom_site_fract_z
_atom_site_type_symbol
H       0.0073   0.3092   0.6059     H
H       0.0073   0.6908   0.1059     H
C       0.0214   0.2897    0.249     C
C       0.0214   0.7103    0.749     C
O      0.03429   0.2572   0.3079     O
O      0.03429   0.7428   0.8079     O
C       0.0375   0.2703   0.7065     C
C       0.0375   0.7297   0.2065     C
C       0.0409   0.2839   0.6297     C
C       0.0409   0.7161   0.1297     C
O       0.0543   0.3109   0.4768     O
O       0.0543   0.6891   0.9768     O
O      0.05435  0.33756   0.2231     O
O      0.05435  0.66244   0.7231     O
H        0.086   0.2269   0.7934     H
H        0.086   0.7731   0.2934     H
C        0.088   0.2363   0.7407     C
C        0.088   0.7637   0.2407     C
C       0.0925   0.2719    0.504     C
C       0.0925   0.7281    0.004     C
C       0.0943   0.2608   0.5873     C
C       0.0943   0.7392   0.0873     C
Zn     0.11906  0.25772  0.35942    Zn
Zn     0.11906  0.74228  0.85942    Zn
O       0.1301   0.2366   0.4644     O
O       0.1301   0.7634   0.9644     O
C       0.1421   0.2155   0.6989     C
C       0.1421   0.7845   0.1989     C
C       0.1437   0.2262   0.6222     C
C       0.1437   0.7738   0.1222     C
Zn     0.15557  0.34443  0.21367    Zn
Zn     0.15557  0.65557  0.71367    Zn
O       0.1593   0.3407   0.3314     O
O       0.1593   0.6593   0.8314     O
O       0.1597  0.24201    0.197     O
O       0.1597  0.75799    0.697     O
O      0.16244  0.44565   0.2231     O
O      0.16244  0.55435   0.7231     O
O       0.1731  0.19216  0.30719     O
O       0.1731  0.80784  0.80719     O
H       0.1796   0.2098   0.5932     H
H       0.1796   0.7902   0.0932     H
C       0.1801   0.1975   0.2365     C
C       0.1801   0.8025   0.7365     C
O       0.1891   0.4457   0.4768     O
O       0.1891   0.5543   0.9768     O
H       0.1908   0.4927   0.6059     H
H       0.1908   0.5073   0.1059     H
O      0.19216   0.1731  0.80719     O
O      0.19216   0.8269  0.30719     O
C       0.1975   0.1801   0.7365     C
C       0.1975   0.8199   0.2365     C
H       0.2098   0.1796   0.0932     H
H       0.2098   0.8204   0.5932     H
C       0.2103   0.4786    0.249     C
C       0.2103   0.5214    0.749     C
C       0.2155   0.1421   0.1989     C
C       0.2155   0.8579   0.6989     C
C       0.2161   0.4591   0.6297     C
C       0.2161   0.5409   0.1297     C
C       0.2262   0.1437   0.1222     C
C       0.2262   0.8563   0.6222     C
H       0.2269    0.086   0.2934     H
H       0.2269    0.914   0.7934     H
C       0.2281   0.4075    0.504     C
C       0.2281   0.5925    0.004     C
C       0.2297   0.4625   0.7065     C
C       0.2297   0.5375   0.2065     C
C       0.2363    0.088   0.2407     C
C       0.2363    0.912   0.7407     C
O       0.2366   0.1301   0.9644     O
O       0.2366   0.8699   0.4644     O
C       0.2392   0.4057   0.5873     C
C       0.2392   0.5943   0.0873     C
O      0.24201   0.1597    0.697     O
O      0.24201   0.8403    0.197     O
Zn     0.24228  0.38094  0.35942    Zn
Zn     0.24228  0.61906  0.85942    Zn
O       0.2428  0.46571   0.3079     O
O       0.2428  0.53429   0.8079     O
O       0.2572  0.03429   0.8079     O
O       0.2572  0.96571   0.3079     O
Zn     0.25772  0.11906  0.85942    Zn
Zn     0.25772  0.88094  0.35942    Zn
O      0.25799   0.3403    0.197     O
O      0.25799   0.6597    0.697     O
C       0.2608   0.0943   0.0873     C
C       0.2608   0.9057   0.5873     C
O       0.2634   0.3699   0.4644     O
O       0.2634   0.6301   0.9644     O
C       0.2637    0.412   0.7407     C
C       0.2637    0.588   0.2407     C
C       0.2703   0.0375   0.2065     C
C       0.2703   0.9625   0.7065     C
C       0.2719   0.0925    0.004     C
C       0.2719   0.9075    0.504     C
H       0.2731    0.414   0.7934     H
H       0.2731    0.586   0.2934     H
C       0.2738   0.3563   0.6222     C
C       0.2738   0.6437   0.1222     C
C       0.2839   0.0409   0.1297     C
C       0.2839   0.9591   0.6297     C
C       0.2845   0.3579   0.6989     C
C       0.2845   0.6421   0.1989     C
C       0.2897   0.0214    0.749     C
C       0.2897   0.9786    0.249     C
H       0.2902   0.3204   0.5932     H
H       0.2902   0.6796   0.0932     H
C       0.3025   0.3199   0.2365     C
C       0.3025   0.6801   0.7365     C
O      0.30784   0.3269  0.30719     O
O      0.30784   0.6731  0.80719     O
H       0.3092   0.0073   0.1059     H
H       0.3092   0.9927   0.6059     H
O       0.3109   0.0543   0.9768     O
O       0.3109   0.9457   0.4768     O
C       0.3199   0.3025   0.7365     C
C       0.3199   0.6975   0.2365     C
H       0.3204   0.2902   0.0932     H
H       0.3204   0.7098   0.5932     H
O       0.3269  0.30784  0.80719     O
O       0.3269  0.69216  0.30719     O
O      0.33756  0.05435   0.7231     O
O      0.33756  0.94565   0.2231     O
O       0.3403  0.25799    0.697     O
O       0.3403  0.74201    0.197     O
O       0.3407   0.1593   0.8314     O
O       0.3407   0.8407   0.3314     O
Zn     0.34443  0.15557  0.71367    Zn
Zn     0.34443  0.84443  0.21367    Zn
C       0.3563   0.2738   0.1222     C
C       0.3563   0.7262   0.6222     C
C       0.3579   0.2845   0.1989     C
C       0.3579   0.7155   0.6989     C
O       0.3699   0.2634   0.9644     O
O       0.3699   0.7366   0.4644     O
Zn     0.38094  0.24228  0.85942    Zn
Zn     0.38094  0.75772  0.35942    Zn
C       0.4057   0.2392   0.0873     C
C       0.4057   0.7608   0.5873     C
C       0.4075   0.2281    0.004     C
C       0.4075   0.7719    0.504     C
C        0.412   0.2637   0.2407     C
C        0.412   0.7363   0.7407     C
H        0.414   0.2731   0.2934     H
H        0.414   0.7269   0.7934     H
O      0.44565  0.16244   0.7231     O
O      0.44565  0.83756   0.2231     O
O       0.4457   0.1891   0.9768     O
O       0.4457   0.8109   0.4768     O
C       0.4591   0.2161   0.1297     C
C       0.4591   0.7839   0.6297     C
C       0.4625   0.2297   0.2065     C
C       0.4625   0.7703   0.7065     C
O      0.46571   0.2428   0.8079     O
O      0.46571   0.7572   0.3079     O
C       0.4786   0.2103    0.749     C
C       0.4786   0.7897    0.249     C
H       0.4927   0.1908   0.1059     H
H       0.4927   0.8092   0.6059     H
H       0.5073   0.1908   0.6059     H
H       0.5073   0.8092   0.1059     H
C       0.5214   0.2103    0.249     C
C       0.5214   0.7897    0.749     C
O      0.53429   0.2428   0.3079     O
O      0.53429   0.7572   0.8079     O
C       0.5375   0.2297   0.7065     C
C       0.5375   0.7703   0.2065     C
C       0.5409   0.2161   0.6297     C
C       0.5409   0.7839   0.1297     C
O       0.5543   0.1891   0.4768     O
O       0.5543   0.8109   0.9768     O
O      0.55435  0.16244   0.2231     O
O      0.55435  0.83756   0.7231     O
H        0.586   0.2731   0.7934     H
H        0.586   0.7269   0.2934     H
C        0.588   0.2637   0.7407     C
C        0.588   0.7363   0.2407     C
C       0.5925   0.2281    0.504     C
C       0.5925   0.7719    0.004     C
C       0.5943   0.2392   0.5873     C
C       0.5943   0.7608   0.0873     C
Zn     0.61906  0.24228  0.35942    Zn
Zn     0.61906  0.75772  0.85942    Zn
O       0.6301   0.2634   0.4644     O
O       0.6301   0.7366   0.9644     O
C       0.6421   0.2845   0.6989     C
C       0.6421   0.7155   0.1989     C
C       0.6437   0.2738   0.6222     C
C       0.6437   0.7262   0.1222     C
Zn     0.65557  0.15557  0.21367    Zn
Zn     0.65557  0.84443  0.71367    Zn
O       0.6593   0.1593   0.3314     O
O       0.6593   0.8407   0.8314     O
O       0.6597  0.25799    0.197     O
O       0.6597  0.74201    0.697     O
O      0.66244  0.05435   0.2231     O
O      0.66244  0.94565   0.7231     O
O       0.6731  0.30784  0.30719     O
O       0.6731  0.69216  0.80719     O
H       0.6796   0.2902   0.5932     H
H       0.6796   0.7098   0.0932     H
C       0.6801   0.3025   0.2365     C
C       0.6801   0.6975   0.7365     C
O       0.6891   0.0543   0.4768     O
O       0.6891   0.9457   0.9768     O
H       0.6908   0.0073   0.6059     H
H       0.6908   0.9927   0.1059     H
O      0.69216   0.3269  0.80719     O
O      0.69216   0.6731  0.30719     O
C       0.6975   0.3199   0.7365     C
C       0.6975   0.6801   0.2365     C
H       0.7098   0.3204   0.0932     H
H       0.7098   0.6796   0.5932     H
C       0.7103   0.0214    0.249     C
C       0.7103   0.9786    0.749     C
C       0.7155   0.3579   0.1989     C
C       0.7155   0.6421   0.6989     C
C       0.7161   0.0409   0.6297     C
C       0.7161   0.9591   0.1297     C
C       0.7262   0.3563   0.1222     C
C       0.7262   0.6437   0.6222     C
H       0.7269    0.414   0.2934     H
H       0.7269    0.586   0.7934     H
C       0.7281   0.0925    0.504     C
C       0.7281   0.9075    0.004     C
C       0.7297   0.0375   0.7065     C
C       0.7297   0.9625   0.2065     C
C       0.7363    0.412   0.2407     C
C       0.7363    0.588   0.7407     C
O       0.7366   0.3699   0.9644     O
O       0.7366   0.6301   0.4644     O
C       0.7392   0.0943   0.5873     C
C       0.7392   0.9057   0.0873     C
O      0.74201   0.3403    0.697     O
O      0.74201   0.6597    0.197     O
Zn     0.74228  0.11906  0.35942    Zn
Zn     0.74228  0.88094  0.85942    Zn
O       0.7428  0.03429   0.3079     O
O       0.7428  0.96571   0.8079     O
O       0.7572  0.46571   0.8079     O
O       0.7572  0.53429   0.3079     O
Zn     0.75772  0.38094  0.85942    Zn
Zn     0.75772  0.61906  0.35942    Zn
O      0.75799   0.1597    0.197     O
O      0.75799   0.8403    0.697     O
C       0.7608   0.4057   0.0873     C
C       0.7608   0.5943   0.5873     C
O       0.7634   0.1301   0.4644     O
O       0.7634   0.8699   0.9644     O
C       0.7637    0.088   0.7407     C
C       0.7637    0.912   0.2407     C
C       0.7703   0.4625   0.2065     C
C       0.7703   0.5375   0.7065     C
C       0.7719   0.4075    0.004     C
C       0.7719   0.5925    0.504     C
H       0.7731    0.086   0.7934     H
H       0.7731    0.914   0.2934     H
C       0.7738   0.1437   0.6222     C
C       0.7738   0.8563   0.1222     C
C       0.7839   0.4591   0.1297     C
C       0.7839   0.5409   0.6297     C
C       0.7845   0.1421   0.6989     C
C       0.7845   0.8579   0.1989     C
C       0.7897   0.4786    0.749     C
C       0.7897   0.5214    0.249     C
H       0.7902   0.1796   0.5932     H
H       0.7902   0.8204   0.0932     H
C       0.8025   0.1801   0.2365     C
C       0.8025   0.8199   0.7365     C
O      0.80784   0.1731  0.30719     O
O      0.80784   0.8269  0.80719     O
H       0.8092   0.4927   0.1059     H
H       0.8092   0.5073   0.6059     H
O       0.8109   0.4457   0.9768     O
O       0.8109   0.5543   0.4768     O
C       0.8199   0.1975   0.7365     C
C       0.8199   0.8025   0.2365     C
H       0.8204   0.2098   0.0932     H
H       0.8204   0.7902   0.5932     H
O       0.8269  0.19216  0.80719     O
O       0.8269  0.80784  0.30719     O
O      0.83756  0.44565   0.7231     O
O      0.83756  0.55435   0.2231     O
O       0.8403  0.24201    0.697     O
O       0.8403  0.75799    0.197     O
O       0.8407   0.3407   0.8314     O
O       0.8407   0.6593   0.3314     O
Zn     0.84443  0.34443  0.71367    Zn
Zn     0.84443  0.65557  0.21367    Zn
C       0.8563   0.2262   0.1222     C
C       0.8563   0.7738   0.6222     C
C       0.8579   0.2155   0.1989     C
C       0.8579   0.7845   0.6989     C
O       0.8699   0.2366   0.9644     O
O       0.8699   0.7634   0.4644     O
Zn     0.88094  0.25772  0.85942    Zn
Zn     0.88094  0.74228  0.35942    Zn
C       0.9057   0.2608   0.0873     C
C       0.9057   0.7392   0.5873     C
C       0.9075   0.2719    0.004     C
C       0.9075   0.7281    0.504     C
C        0.912   0.2363   0.2407     C
C        0.912   0.7637   0.7407     C
H        0.914   0.2269   0.2934     H
H        0.914   0.7731   0.7934     H
O      0.94565  0.33756   0.7231     O
O      0.94565  0.66244   0.2231     O
O       0.9457   0.3109   0.9768     O
O       0.9457   0.6891   0.4768     O
C       0.9591   0.2839   0.1297     C
C       0.9591   0.7161   0.6297     C
C       0.9625   0.2703   0.2065     C
C       0.9625   0.7297   0.7065     C
O      0.96571   0.2572   0.8079     O
O      0.96571   0.7428   0.3079     O
C       0.9786   0.2897    0.749     C
C       0.9786   0.7103    0.249     C
H       0.9927   0.3092   0.1059     H
H       0.9927   0.6908   0.6059     H
