data_I
_chemical_name_common  '/home/zhangsd/repos/MofS-CGCNN/ML/data/TSD/clean_cifs/XEGJIE02_clean'
_cell_length_a 13.10300
_cell_length_b 30.42400
_cell_length_c 23.43400
_cell_angle_alpha 90.00000
_cell_angle_beta  101.39200
_cell_angle_gamma 90.00000
_space_group_name_H-M_alt      'P 1'


loop_
_space_group_symop_operation_xyz
  'x, y, z' 

loop_
_atom_site_label
_atom_site_fract_x
_atom_site_fract_y
_atom_site_fract_z
_atom_site_type_symbol
C       0.0022  0.07764   0.2568     C
C       0.0027  0.76417   0.6534     C
C       0.0067  0.58918   0.7657     C
C       0.0072  0.25868   0.1317     C
H       0.0142    0.308   0.0386     H
C       0.0178  0.45498   0.2362     C
C       0.0225  0.96644   0.7396     C
H       0.0316   0.2051   0.4538     H
O        0.032   0.1859   0.5542     O
O       0.0336  0.32462   0.9353     O
O        0.034  0.24132  0.18147     O
C       0.0345   0.7825    0.555     C
O       0.0394  0.67863  0.77699     O
O       0.0429  0.16615  0.25259     O
O       0.0434  0.75622  0.70594     O
C       0.0439  0.33192   0.2564     C
C       0.0473  0.84444   0.7704     C
N       0.0604  0.80838   0.4613     N
N       0.0607  0.00466   0.2908     N
O       0.0619  0.47684   0.7815     O
O       0.0635  0.96705   0.2753     O
N       0.0636   0.5154   0.7952     N
C       0.0675  0.38084   0.2612     C
H       0.0692   0.0875    0.272     H
C         0.07  0.76286   0.6088     C
H        0.072   0.5987   0.7847     H
C       0.0723  0.28982    0.046     C
C       0.0733  0.89335   0.7695     C
O        0.079  0.50355   0.3604     O
O       0.0812  0.72641   0.8865     O
O       0.0822   0.7193   0.4259     O
C       0.0873  0.26069   0.0929     C
O       0.0923  0.22773  0.36266     O
C       0.0991  0.78337   0.5144     C
O       0.1039  0.01754    0.861     O
O       0.1068  0.02998   0.5982     O
O       0.1113  0.30693  0.28463     O
C       0.1138  0.47167   0.2628     C
N       0.1165  0.53953    0.355     N
O       0.1198  0.81995  0.79495     O
C       0.1217  0.98358    0.761     C
O       0.1226   0.0202   0.3329     O
O       0.1231   0.8244   0.4351     O
N       0.1249  0.32078   0.9604     N
O       0.1295  0.53159  0.83384     O
O       0.1308  0.56685   0.3935     O
O       0.1327  0.43616   0.6744     O
N       0.1348  0.05281   0.8518     N
O       0.1354  0.51979   0.1054     O
O       0.1361   0.2128   0.8582     O
O       0.1367    0.204   0.9478     O
O       0.1406  0.92344   0.1745     O
C       0.1419  0.51901   0.2554     C
O        0.142   0.0812   0.8862     O
C       0.1443  0.55128   0.2991     C
N       0.1445  0.01454   0.6461     N
C       0.1454  0.29116   0.0108     C
C       0.1461  0.03066   0.7509     C
Gd     0.14953  0.23067  0.27149    Gd
Gd     0.15218  0.74169  0.79659    Gd
C       0.1554  0.06369   0.7937     C
C       0.1584  0.04528   0.6967     C
N       0.1607  0.50407   0.1541     N
C       0.1627  0.39523   0.2892     C
C        0.164  0.53413   0.2035     C
C        0.166  0.74243   0.6202     C
N       0.1686   0.7045   0.4223     N
O       0.1709   0.9765   0.6548     O
C       0.1715  0.23317   0.1023     C
C       0.1718  0.90815   0.7909     C
C       0.1723  0.59413   0.2918     C
O        0.174  0.50414   0.6884     O
N       0.1744  0.21792    0.908     N
H       0.1746   0.6143   0.3219     H
H       0.1806   0.2131   0.1328     H
O        0.181  0.46549    0.163     O
O       0.1818  0.66916   0.4041     O
C       0.1833  0.08811   0.6854     C
C       0.1857  0.10609   0.7848     C
C        0.186  0.43998   0.2893     C
H       0.1876   0.0965   0.6478     H
O       0.1876  0.99068   0.1721     O
H       0.1898   0.7289   0.6559     H
C       0.1903  0.57756   0.1947     C
C        0.195  0.95247   0.7863     C
H       0.1953   0.1263   0.8151     H
N        0.196  0.46531   0.6896     N
C       0.1963  0.76357   0.5241     C
C        0.197  0.60735   0.2397     C
O       0.1978  0.33875   0.9452     O
C       0.2017  0.11838   0.7301     C
H       0.2034   0.5864   0.1589     H
N       0.2067  0.95264   0.1844     N
H       0.2119   0.3754   0.3082     H
H       0.2232   0.8887   0.8084     H
O       0.2236  0.68666  0.73549     O
C       0.2266  0.74226    0.578     C
C       0.2328  0.26452   0.0191     C
C       0.2342  0.65317   0.2319     C
O       0.2414  0.17612  0.66889     O
C       0.2418  0.16374   0.7206     C
C       0.2433  0.23536    0.066     C
O       0.2476  0.16398  0.31704     O
O       0.2493  0.17867  0.22503     O
O       0.2507  0.67867  0.27497     O
O       0.2524  0.66398  0.18296     O
C       0.2567  0.73536    0.434     C
C       0.2582  0.66374   0.7794     C
O       0.2586  0.67612  0.83111     O
C       0.2658  0.15317   0.2681     C
C       0.2672  0.76452   0.4809     C
C       0.2734  0.24226    0.922     C
O       0.2764  0.18666  0.76451     O
H       0.2768   0.3887   0.6916     H
H       0.2881   0.8754   0.1918     H
N       0.2933  0.45264   0.3156     N
H       0.2966   0.0864   0.3411     H
C       0.2983  0.61838   0.7699     C
O       0.3022  0.83875   0.5548     O
C        0.303  0.10735   0.2603     C
C       0.3037  0.26357   0.9759     C
N        0.304  0.96531   0.8104     N
H       0.3047   0.6263   0.6849     H
C        0.305  0.45247   0.7137     C
C       0.3097  0.07756   0.3053     C
H       0.3102   0.2289   0.8441     H
O       0.3124  0.49068   0.3279     O
H       0.3124   0.5965   0.8522     H
C        0.314  0.93998   0.2107     C
C       0.3143  0.60609   0.7152     C
C       0.3167  0.58811   0.8146     C
O       0.3182  0.16916   0.0959     O
O        0.319  0.96549    0.337     O
H       0.3194   0.7131   0.3672     H
H       0.3254   0.1143   0.1781     H
N       0.3256  0.71792    0.592     N
O        0.326  0.00414   0.8116     O
C       0.3277  0.09413   0.2082     C
C       0.3282  0.40815   0.7091     C
C       0.3285  0.73317   0.3977     C
O       0.3291   0.4765   0.8452     O
N       0.3314   0.2045   0.0777     N
C        0.334  0.24243   0.8798     C
C        0.336  0.03413   0.2965     C
C       0.3373  0.89523   0.2108     C
N       0.3393  0.00407   0.3459     N
C       0.3416  0.54528   0.8033     C
C       0.3446  0.56369   0.7063     C
Gd     0.34782  0.24169  0.70341    Gd
Gd     0.35047  0.73067  0.22851    Gd
C       0.3539  0.53066   0.7491     C
C       0.3546  0.79116   0.4892     C
N       0.3555  0.51454   0.8539     N
C       0.3557  0.05128   0.2009     C
O        0.358   0.5812   0.6138     O
C       0.3581  0.01901   0.2446     C
O       0.3594  0.42344   0.3255     O
O       0.3633    0.704   0.5522     O
O       0.3639   0.7128   0.6418     O
O       0.3646  0.01979   0.3946     O
N       0.3652  0.55281   0.6482     N
O       0.3673  0.93616   0.8256     O
O       0.3692  0.06685   0.1065     O
O       0.3705  0.03159  0.66616     O
N       0.3751  0.82078   0.5396     N
O       0.3769   0.3244   0.0649     O
O       0.3774   0.5202   0.1671     O
C       0.3783  0.48358    0.739     C
O       0.3802  0.31995  0.70505     O
N       0.3835  0.03953    0.145     N
C       0.3862  0.97167   0.2372     C
O       0.3887  0.80693  0.21537     O
O       0.3932  0.52998   0.9018     O
O       0.3961  0.51754    0.639     O
C       0.4009  0.28337   0.9856     C
O       0.4077  0.72773  0.13734     O
C       0.4127  0.76069   0.4071     C
O       0.4178   0.2193   0.0741     O
O       0.4188  0.22641   0.6135     O
O        0.421  0.00355   0.1396     O
C       0.4267  0.39335   0.7305     C
C       0.4277  0.78982    0.454     C
H        0.428   0.0987   0.7153     H
C         0.43  0.26286   0.8912     C
H       0.4308   0.5875    0.228     H
C       0.4325  0.88084   0.2388     C
N       0.4364   0.0154   0.7048     N
O       0.4365  0.46705   0.2247     O
O       0.4381  0.97684   0.7185     O
N       0.4393  0.50466   0.2092     N
N       0.4396  0.30838   0.0387     N
C       0.4527  0.34444   0.7296     C
C       0.4561  0.83192   0.2436     C
O       0.4566  0.25622  0.79406     O
O       0.4571  0.66615  0.24741     O
O       0.4606  0.17863  0.72301     O
C       0.4655   0.2825    0.945     C
O        0.466  0.74132  0.31853     O
O       0.4664  0.82462   0.5647     O
O        0.468   0.6859   0.9458     O
H       0.4684   0.7051   0.0462     H
C       0.4775  0.46644   0.7604     C
C       0.4822  0.95498   0.2638     C
H       0.4858    0.808   0.4614     H
C       0.4928  0.75868   0.3683     C
C       0.4933  0.08918   0.7343     C
C       0.4973  0.26417   0.8466     C
C       0.4978  0.57764   0.2432     C
C       0.5022  0.42236   0.7568     C
C       0.5027  0.73583   0.1534     C
C       0.5067  0.91082   0.2657     C
C       0.5072  0.24132   0.6317     C
H       0.5142    0.192   0.5386     H
C       0.5178  0.04502   0.7362     C
C       0.5225  0.53356   0.2396     C
H       0.5316   0.2949   0.9538     H
O        0.532   0.3141   0.0542     O
O       0.5336  0.17538   0.4353     O
O        0.534  0.25868  0.68147     O
C       0.5345   0.7175    0.055     C
O       0.5394  0.82137  0.27699     O
O       0.5429  0.33385  0.75259     O
O       0.5434  0.74378  0.20594     O
C       0.5439  0.16808   0.7564     C
C       0.5473  0.65556   0.2704     C
N       0.5604  0.69162   0.9613     N
N       0.5607  0.49534   0.7908     N
O       0.5619  0.02316   0.2815     O
O       0.5635  0.53295   0.7753     O
N       0.5636   0.9846   0.2952     N
C       0.5675  0.11916   0.7612     C
H       0.5692   0.4125    0.772     H
C         0.57  0.73714   0.1088     C
H        0.572   0.9013   0.2847     H
C       0.5723  0.21018    0.546     C
C       0.5733  0.60665   0.2695     C
O        0.579  0.99645   0.8604     O
O       0.5812  0.77359   0.3865     O
O       0.5822   0.7807   0.9259     O
C       0.5873  0.23931   0.5929     C
O       0.5923  0.27227  0.86266     O
C       0.5991  0.71663   0.0144     C
O       0.6039  0.48246    0.361     O
O       0.6068  0.47002   0.0982     O
O       0.6113  0.19307  0.78463     O
C       0.6138  0.02833   0.7628     C
N       0.6165  0.96047    0.855     N
O       0.6198  0.68005  0.29495     O
C       0.6217  0.51642    0.261     C
O       0.6226   0.4798   0.8329     O
O       0.6231   0.6756   0.9351     O
N       0.6249  0.17922   0.4604     N
O       0.6295  0.96841  0.33384     O
O       0.6308  0.93315   0.8935     O
O       0.6327  0.06384   0.1744     O
N       0.6348  0.44719   0.3518     N
O       0.6354  0.98021   0.6054     O
O       0.6361   0.2872   0.3582     O
O       0.6367    0.296   0.4478     O
O       0.6406  0.57656   0.6745     O
C       0.6419  0.98099   0.7554     C
O        0.642   0.4188   0.3862     O
C       0.6443  0.94872   0.7991     C
N       0.6445  0.48546   0.1461     N
C       0.6454  0.20884   0.5108     C
C       0.6461  0.46934   0.2509     C
Gd     0.64953  0.26933  0.77149    Gd
Gd     0.65218  0.75831  0.29659    Gd
C       0.6554  0.43631   0.2937     C
C       0.6584  0.45472   0.1967     C
N       0.6607  0.99593   0.6541     N
C       0.6627  0.10477   0.7892     C
C        0.664  0.96587   0.7035     C
C        0.666  0.75757   0.1202     C
N       0.6686   0.7955   0.9223     N
O       0.6709   0.5235   0.1548     O
C       0.6715  0.26683   0.6023     C
C       0.6718  0.59185   0.2909     C
C       0.6723  0.90587   0.7918     C
O        0.674  0.99586   0.1884     O
N       0.6744  0.28208    0.408     N
H       0.6746   0.8857   0.8219     H
H       0.6806   0.2869   0.6328     H
O        0.681  0.03451    0.663     O
O       0.6818  0.83084   0.9041     O
C       0.6833  0.41189   0.1854     C
C       0.6857  0.39391   0.2848     C
C        0.686  0.06002   0.7893     C
H       0.6876   0.4035   0.1478     H
O       0.6876  0.50932   0.6721     O
H       0.6898   0.7711   0.1559     H
C       0.6903  0.92244   0.6947     C
C        0.695  0.54753   0.2863     C
H       0.6953   0.3737   0.3151     H
N        0.696  0.03469   0.1896     N
C       0.6963  0.73643   0.0241     C
C        0.697  0.89265   0.7397     C
O       0.6978  0.16125   0.4452     O
C       0.7017  0.38162   0.2301     C
H       0.7034   0.9136   0.6589     H
N       0.7067  0.54736   0.6844     N
H       0.7119   0.1246   0.8082     H
H       0.7232   0.6113   0.3084     H
O       0.7236  0.81334  0.23549     O
C       0.7266  0.75774    0.078     C
C       0.7328  0.23548   0.5191     C
C       0.7342  0.84683   0.7319     C
O       0.7414  0.32388  0.16889     O
C       0.7418  0.33626   0.2206     C
C       0.7433  0.26464    0.566     C
O       0.7476  0.33602  0.81704     O
O       0.7493  0.32133  0.72503     O
O       0.7507  0.82133  0.77497     O
O       0.7524  0.83602  0.68296     O
C       0.7567  0.76464    0.934     C
C       0.7582  0.83626   0.2794     C
O       0.7586  0.82388  0.33111     O
C       0.7658  0.34683   0.7681     C
C       0.7672  0.73548   0.9809     C
C       0.7734  0.25774    0.422     C
O       0.7764  0.31334  0.26451     O
H       0.7768   0.1113   0.1916     H
H       0.7881   0.6246   0.6918     H
N       0.7933  0.04736   0.8156     N
H       0.7966   0.4136   0.8411     H
C       0.7983  0.88162   0.2699     C
O       0.8022  0.66125   0.0548     O
C        0.803  0.39265   0.7603     C
C       0.8037  0.23643   0.4759     C
N        0.804  0.53469   0.3104     N
H       0.8047   0.8737   0.1849     H
C        0.805  0.04753   0.2137     C
C       0.8097  0.42244   0.8053     C
H       0.8102   0.2711   0.3441     H
O       0.8124  0.00932   0.8279     O
H       0.8124   0.9035   0.3522     H
C        0.814  0.56002   0.7107     C
C       0.8143  0.89391   0.2152     C
C       0.8167  0.91189   0.3146     C
O       0.8182  0.33084   0.5959     O
O        0.819  0.53451    0.837     O
H       0.8194   0.7869   0.8672     H
H       0.8254   0.3857   0.6781     H
N       0.8256  0.78208    0.092     N
O        0.826  0.49586   0.3116     O
C       0.8277  0.40587   0.7082     C
C       0.8282  0.09185   0.2091     C
C       0.8285  0.76683   0.8977     C
O       0.8291   0.0235   0.3452     O
N       0.8314   0.2955   0.5777     N
C        0.834  0.25757   0.3798     C
C        0.836  0.46587   0.7965     C
C       0.8373  0.60477   0.7108     C
N       0.8393  0.49593   0.8459     N
C       0.8416  0.95472   0.3033     C
C       0.8446  0.93631   0.2063     C
Gd     0.84782  0.25831  0.20341    Gd
Gd     0.85047  0.76933  0.72851    Gd
C       0.8539  0.96934   0.2491     C
C       0.8546  0.70884   0.9892     C
N       0.8555  0.98546   0.3539     N
C       0.8557  0.44872   0.7009     C
O        0.858   0.9188   0.1138     O
C       0.8581  0.48099   0.7446     C
O       0.8594  0.07656   0.8255     O
O       0.8633    0.796   0.0522     O
O       0.8639   0.7872   0.1418     O
O       0.8646  0.48021   0.8946     O
N       0.8652  0.94719   0.1482     N
O       0.8673  0.56384   0.3256     O
O       0.8692  0.43315   0.6065     O
O       0.8705  0.46841  0.16616     O
N       0.8751  0.67922   0.0396     N
O       0.8769   0.1756   0.5649     O
O       0.8774   0.9798   0.6671     O
C       0.8783  0.01642    0.239     C
O       0.8802  0.18005  0.20505     O
N       0.8835  0.46047    0.645     N
C       0.8862  0.52833   0.7372     C
O       0.8887  0.69307  0.71537     O
O       0.8932  0.97002   0.4018     O
O       0.8961  0.98246    0.139     O
C       0.9009  0.21663   0.4856     C
O       0.9077  0.77227  0.63734     O
C       0.9127  0.73931   0.9071     C
O       0.9178   0.2807   0.5741     O
O       0.9188  0.27359   0.1135     O
O        0.921  0.49645   0.6396     O
C       0.9267  0.10665   0.2305     C
C       0.9277  0.71018    0.954     C
H        0.928   0.4013   0.2153     H
C         0.93  0.23714   0.3912     C
H       0.9308   0.9125    0.728     H
C       0.9325  0.61916   0.7388     C
N       0.9364   0.4846   0.2048     N
O       0.9365  0.03295   0.7247     O
O       0.9381  0.52316   0.2185     O
N       0.9393  0.99534   0.7092     N
N       0.9396  0.19162   0.5387     N
C       0.9527  0.15556   0.2296     C
C       0.9561  0.66808   0.7436     C
O       0.9566  0.24378  0.29406     O
O       0.9571  0.83385  0.74741     O
O       0.9606  0.32137  0.22301     O
C       0.9655   0.2175    0.445     C
O        0.966  0.75868  0.81853     O
O       0.9664  0.67538   0.0647     O
O        0.968   0.8141   0.4458     O
H       0.9684   0.7949   0.5462     H
C       0.9775  0.03356   0.2604     C
C       0.9822  0.54502   0.7638     C
H       0.9858    0.692   0.9614     H
C       0.9928  0.74132   0.8683     C
C       0.9933  0.41082   0.2343     C
C       0.9973  0.23583   0.3466     C
C       0.9978  0.92236   0.7432     C
