data_I
_chemical_name_common  '/home/zhangsd/repos/MofS-CGCNN/ML/data/TSD/clean_cifs/XEHTUB_clean'
_cell_length_a  6.80400
_cell_length_b 10.34700
_cell_length_c 11.49800
_cell_angle_alpha 68.14500
_cell_angle_beta  77.49200
_cell_angle_gamma 73.83700
_space_group_name_H-M_alt      'P 1'


loop_
_space_group_symop_operation_xyz
  'x, y, z' 

loop_
_atom_site_label
_atom_site_fract_x
_atom_site_fract_y
_atom_site_fract_z
_atom_site_type_symbol
H        0.013    0.794     0.86     H
N       0.0263   0.6566    0.094     N
N       0.0562   0.4293   0.7986     N
N       0.1088   0.1907   0.0994     N
Cd        0.11  0.42281  0.37036    Cd
C        0.123   0.2902   0.9812     C
O        0.159   0.2033   0.3465     O
O       0.1794    0.565   0.4532     O
H        0.192    0.195    0.144     H
H       0.1988   0.9561   0.3435     H
C       0.2012   0.1368    0.456     C
O       0.2032   0.2008   0.5302     O
C       0.2405   0.9046    0.423     C
N       0.2439   0.4311   0.8062     N
C       0.2489   0.6779    0.387     C
C        0.255   0.9764   0.5014     C
O       0.2873   0.7225   0.2716     O
C       0.2884   0.7562   0.4638     C
N       0.2944    0.342   0.9213     N
C       0.3211   0.8982   0.6193     C
H       0.3291    0.945   0.6727     H
Cd     0.36201  0.67877  0.07763    Cd
C       0.3627   0.6789   0.5794     C
O       0.3657   0.7115   0.8727     O
C       0.3754   0.7499   0.6572     C
O       0.3981   0.4424    0.209     O
H       0.4036     0.58   0.6041     H
C        0.455   0.6677   0.7833     C
C        0.545   0.3323   0.2167     C
H       0.5964     0.42   0.3959     H
O       0.6019   0.5576    0.791     O
C       0.6246   0.2501   0.3428     C
O       0.6343   0.2885   0.1273     O
C       0.6373   0.3211   0.4206     C
Cd     0.63799  0.32123  0.92237    Cd
H       0.6709    0.055   0.3273     H
C       0.6789   0.1018   0.3807     C
N       0.7056    0.658   0.0787     N
C       0.7116   0.2438   0.5362     C
O       0.7127   0.2775   0.7284     O
C        0.745   0.0236   0.4986     C
C       0.7511   0.3221    0.613     C
N       0.7561   0.5689   0.1938     N
C       0.7595   0.0954    0.577     C
O       0.7968   0.7992   0.4698     O
C       0.7988   0.8632    0.544     C
H       0.8012   0.0439   0.6565     H
H        0.808    0.805    0.856     H
O       0.8206    0.435   0.5468     O
O        0.841   0.7967   0.6535     O
C        0.877   0.7098   0.0188     C
Cd        0.89  0.57719  0.62964    Cd
N       0.8912   0.8093   0.9006     N
N       0.9438   0.5707   0.2014     N
N       0.9737   0.3434    0.906     N
H        0.987    0.206     0.14     H
