data_I
_chemical_name_common  '/home/zhangsd/repos/MofS-CGCNN/ML/data/TSD/clean_cifs/XENMIO_SL'
_cell_length_a  6.31080
_cell_length_b 12.63900
_cell_length_c 15.63100
_cell_angle_alpha 95.72300
_cell_angle_beta  99.87800
_cell_angle_gamma 97.86000
_space_group_name_H-M_alt      'P 1'


loop_
_space_group_symop_operation_xyz
  'x, y, z' 

loop_
_atom_site_label
_atom_site_fract_x
_atom_site_fract_y
_atom_site_fract_z
_atom_site_type_symbol
Zn         0.0      0.0      0.0    Zn
O       0.0072   0.0779  0.26538     O
C       0.0149   0.5797  0.77476     C
C       0.0234  0.67075  0.83253     C
C       0.0292   0.7457  0.61759     C
O       0.0482  0.84941  0.95237     O
C       0.0501   0.6689  0.55206     C
Zn     0.05857  0.96194  0.18627    Zn
H       0.0675   0.3839   0.4733     H
H       0.1039   0.2545   0.3645     H
H       0.1054   0.3061   0.1581     H
H       0.1188    0.458   0.2549     H
O       0.1819  0.45429  0.70266     O
C       0.1825  0.90632  0.72842     C
O       0.1826  0.85181  0.24266     O
H       0.1837   0.7301   0.3558     H
O       0.1861  0.08209  0.91391     O
H       0.1861  0.16161  0.92032     H
C       0.2044  0.82335  0.65701     C
C       0.2063  0.54458  0.76105     C
C       0.2205  0.72815  0.87672     C
C       0.2251  0.82723  0.93664     C
C       0.2441  0.67052  0.52438     C
O       0.2501  0.01876  0.10783     O
H       0.2501  0.09828  0.11424     H
O       0.2603  0.58908  0.46097     O
C       0.2984  0.69553  0.34412     C
C       0.3306  0.80432  0.22001     C
O       0.3528  0.95406  0.77722     O
H       0.3561   0.3171   0.7882     H
C       0.3649   0.4087  0.69037     C
C       0.3672  0.61936   0.3944     C
C       0.4012   0.8215  0.62913     C
C       0.4022  0.72022  0.27567     C
C       0.4038  0.60027  0.80483     C
O        0.409  0.88502  0.96788     O
C       0.4104  0.69154  0.86234     C
C       0.4183   0.7463  0.56205     C
O       0.4203  0.81939  0.15633     O
H       0.4229   0.4868   0.5888     H
C       0.4263  0.33292  0.74225     C
H       0.4507   0.2528   0.4577     H
H       0.4557    0.271   0.1081     H
C       0.4661  0.43428   0.6226     C
H       0.4677   0.4234   0.2042     H
H       0.4778   0.1285   0.3439     H
Zn     0.47996  0.04582  0.89945    Zn
Zn     0.52004  0.95418  0.10055    Zn
H       0.5222   0.8715   0.6561     H
H       0.5323   0.5766   0.7958     H
C       0.5339  0.56572   0.3774     C
H       0.5443    0.729   0.8919     H
H       0.5493   0.7472   0.5423     H
C       0.5737  0.66708  0.25775     C
H       0.5771   0.5132   0.4112     H
O       0.5797  0.18061  0.84367     O
C       0.5817   0.2537  0.43795     C
C       0.5896  0.30846  0.13766     C
O        0.591  0.11498  0.03212     O
C       0.5962  0.39973  0.19517     C
C       0.5978  0.27978  0.72433     C
C       0.5988   0.1785  0.37087     C
C       0.6328  0.38064   0.6056     C
C       0.6351   0.5913  0.30963     C
H       0.6439   0.6829   0.2118     H
O       0.6472  0.04594  0.22278     O
C       0.6694  0.19568  0.77999     C
C       0.7016  0.30447  0.65588     C
O       0.7397  0.41092  0.53903     O
H       0.7499  0.90172  0.88576     H
O       0.7499  0.98124  0.89217     O
C       0.7559  0.32948  0.47562     C
C       0.7749  0.17277  0.06336     C
C       0.7795  0.27185  0.12328     C
C       0.7937  0.45542  0.23895     C
C       0.7956  0.17665  0.34299     C
H       0.8139  0.83839  0.07968     H
O       0.8139  0.91791  0.08609     O
H       0.8163   0.2699   0.6442     H
O       0.8174  0.14819  0.75734     O
C       0.8175  0.09368  0.27158     C
O       0.8181  0.54571  0.29734     O
H       0.8812    0.542   0.7451     H
H       0.8946   0.6939   0.8419     H
H       0.8961   0.7455   0.6355     H
H       0.9325   0.6161   0.5267     H
Zn     0.94143  0.03806  0.81373    Zn
C       0.9499   0.3311  0.44794     C
O       0.9518  0.15059  0.04763     O
C       0.9708   0.2543  0.38241     C
C       0.9766  0.32925  0.16747     C
C       0.9851   0.4203  0.22524     C
O       0.9928   0.9221  0.73462     O
