data_I
_chemical_name_common  '/home/zhangsd/repos/MofS-CGCNN/ML/data/TSD/clean_cifs/XEQRAO_clean'
_cell_length_a  7.89510
_cell_length_b  9.80700
_cell_length_c 17.36710
_cell_angle_alpha 106.40000
_cell_angle_beta  96.40700
_cell_angle_gamma 90.00000
_space_group_name_H-M_alt      'P 1'


loop_
_space_group_symop_operation_xyz
  'x, y, z' 

loop_
_atom_site_label
_atom_site_fract_x
_atom_site_fract_y
_atom_site_fract_z
_atom_site_type_symbol
H       0.0016   0.7196   0.5686     H
C       0.0041   0.4747   0.1224     C
O       0.0263  0.56886  0.08792     O
H       0.0637   0.2769    0.199     H
C       0.0673  0.98814  0.42648     C
H       0.0829    0.931   0.3048     H
C       0.0931  0.07335   0.5745     C
C       0.1086  0.68022  0.56944     C
H       0.1109   0.6228   0.4508     H
O        0.112  0.62073  0.90466     O
C       0.1146  0.47745   0.1987     C
C       0.1228  0.36099  0.22818     C
H       0.1415   0.3479   0.6552     H
C       0.1426  0.97872  0.35444     C
H       0.1551   0.7211   0.6918     H
C       0.1625  0.06303  0.50266     C
C       0.1742  0.62224  0.49928     C
C        0.194  0.14672  0.65424     C
C       0.2007  0.29298  0.68436     C
C       0.2013  0.68119  0.64378     C
H       0.2018   0.6793    0.222     H
C       0.2046  0.60087  0.24214     C
C       0.2187   0.3684   0.3012     C
H       0.2242   0.2889   0.3204     H
Cd        0.25  0.52921      0.0    Cd
H       0.2758   0.9685   0.6796     H
C       0.2813   0.0672   0.6988     C
C       0.2954  0.35873  0.75786     C
H       0.2982   0.4573    0.778     H
C       0.2987  0.03741  0.35622     C
C       0.2993  0.60862  0.31564     C
C        0.306  0.49248  0.34576     C
C       0.3258  0.12296  0.50072     C
C       0.3375  0.56037  0.49734     C
H       0.3449   0.0293   0.3082     H
C       0.3574  0.62428  0.64556     C
H       0.3585   0.6927   0.3448     H
C       0.3772  0.13281  0.77182     C
C       0.3854  0.27875   0.8013     C
O        0.388  0.71607  0.09534     O
H       0.3891    0.172   0.5492     H
C       0.3914  0.11078  0.43056     C
C       0.4069  0.49885   0.4255     C
H       0.4171   0.6262   0.6952     H
C       0.4327  0.56166  0.57352     C
H       0.4363   0.0779    0.801     H
O       0.4737  0.48094  0.91208     O
C       0.4959   0.3523   0.8776     C
H       0.4984    0.151   0.4314     H
H       0.5016    0.849   0.5686     H
C       0.5041   0.6477   0.1224     C
O       0.5263  0.51906  0.08792     O
H       0.5637   0.9221    0.199     H
C       0.5673  0.43834  0.42648     C
H       0.5829   0.3738   0.3048     H
C       0.5931  0.50115   0.5745     C
C       0.6086  0.88922  0.56944     C
H       0.6109    0.828   0.4508     H
O        0.612  0.28393  0.90466     O
C       0.6146  0.72125   0.1987     C
C       0.6228  0.86719  0.22818     C
H       0.6415   0.3073   0.6552     H
C       0.6426  0.37572  0.35444     C
H       0.6551   0.9707   0.6918     H
C       0.6625  0.43963  0.50266     C
C       0.6742  0.87704  0.49928     C
C        0.694  0.50752  0.65424     C
C       0.7007  0.39138  0.68436     C
C       0.7013  0.96259  0.64378     C
H       0.7018   0.5427    0.222     H
C       0.7046  0.64127  0.24214     C
C       0.7187   0.9328   0.3012     C
H       0.7242   0.0315   0.3204     H
Cd        0.75  0.47079     -0.0    Cd
H       0.7758   0.7111   0.6796     H
C       0.7813   0.6316   0.6988     C
C       0.7954  0.39913  0.75786     C
H       0.7982   0.3207    0.778     H
C       0.7987  0.31881  0.35622     C
C       0.7993  0.70702  0.31564     C
C        0.806  0.85328  0.34576     C
C       0.8258  0.37776  0.50072     C
C       0.8375  0.93697  0.49734     C
H       0.8449   0.2789   0.3082     H
C       0.8574  0.02128  0.64556     C
H       0.8585   0.6521   0.3448     H
C       0.8772  0.63901  0.77182     C
C       0.8854  0.52255   0.8013     C
O        0.888  0.37927  0.09534     O
H       0.8891   0.3772   0.5492     H
C       0.8914  0.31978  0.43056     C
C       0.9069  0.92665   0.4255     C
H       0.9171    0.069   0.6952     H
C       0.9327  0.01186  0.57352     C
H       0.9363   0.7231    0.801     H
O       0.9737  0.43114  0.91208     O
C       0.9959   0.5253   0.8776     C
H       0.9984   0.2804   0.4314     H
