data_I
_chemical_name_common  '/home/zhangsd/repos/MofS-CGCNN/ML/data/TSD/clean_cifs/XEXLET_clean'
_cell_length_a  4.97380
_cell_length_b 24.83600
_cell_length_c 20.66300
_cell_angle_alpha 90.00000
_cell_angle_beta  95.90300
_cell_angle_gamma 90.00000
_space_group_name_H-M_alt      'P 1'


loop_
_space_group_symop_operation_xyz
  'x, y, z' 

loop_
_atom_site_label
_atom_site_fract_x
_atom_site_fract_y
_atom_site_fract_z
_atom_site_type_symbol
H       0.0023   0.4588   0.7494     H
O       0.0026  0.49845  0.86211     O
C       0.0049   0.1015   0.3384     C
O       0.0169  0.75722   0.2303     O
H       0.0179   0.6395   0.0482     H
C         0.04   0.6334   0.8536     C
C       0.0476  0.14263   0.2923     C
C       0.0529   0.6807    0.819     C
O       0.0568  0.01743  0.62187     O
H       0.0686   0.2974    0.872     H
H       0.0689   0.3882   0.6773     H
C       0.0786   0.6783   0.1359     C
C       0.0923   0.8087   0.8127     C
C       0.1012  0.07073    0.458     C
H       0.1041   0.8365   0.4449     H
N       0.1094  0.22919   0.2059     N
H       0.1135    0.754   0.3919     H
C       0.1139   0.2781   0.1682     C
C       0.1188    0.854   0.7672     C
C       0.1276   0.6399   0.0887     C
N       0.1278  0.37373   0.1013     N
O       0.1286  0.92128  0.52405     O
C        0.141   0.4331   0.7606     C
H       0.1566   0.6047   0.8446     H
C       0.1665  0.10281   0.3997     C
H       0.1756   0.6844    0.787     H
Cd      0.1772  0.45764  0.05949    Cd
C       0.1808    0.391   0.7173     C
C       0.2001    0.938   0.6804     C
C       0.2007   0.7244   0.2389     C
O       0.2178  0.54105  0.01205     O
C       0.2215   0.8324   0.4117     C
C       0.2227    0.783   0.3801     C
O       0.2363  0.80294   0.8634     O
C       0.2422   0.6808   0.1933     C
C       0.2472  0.48805   0.8576     C
C       0.2528  0.98805   0.6424     C
C       0.2578   0.1808   0.3067     C
O       0.2637  0.30294   0.6366     O
C       0.2773    0.283   0.1199     C
C       0.2785   0.3324   0.0883     C
O       0.2822  0.04105  0.48795     O
C       0.2993   0.2244   0.2611     C
C       0.2999    0.438   0.8196     C
C       0.3192    0.891   0.7827     C
Cd      0.3228  0.95764  0.44051    Cd
H       0.3244   0.1844    0.713     H
C       0.3335  0.60281   0.1003     C
H       0.3434   0.1047   0.6554     H
C        0.359   0.9331   0.7394     C
O       0.3714  0.42128  0.97595     O
N       0.3722  0.87373   0.3987     N
C       0.3724   0.1399   0.4113     C
C       0.3812    0.354   0.7328     C
C       0.3861   0.7781   0.3318     C
H       0.3865    0.254   0.1081     H
N       0.3906  0.72919   0.2941     N
H       0.3959   0.3365   0.0551     H
C       0.3988  0.57073    0.042     C
C       0.4077   0.3087   0.6873     C
C       0.4214   0.1783   0.3641     C
H       0.4311   0.8882   0.8227     H
H       0.4314   0.7974    0.628     H
O       0.4432  0.51743  0.87813     O
C       0.4471   0.1807    0.681     C
C       0.4524  0.64263   0.2077     C
C         0.46   0.1334   0.6464     C
H       0.4821   0.1395   0.4518     H
O       0.4831  0.25722   0.2697     O
C       0.4951   0.6015   0.1616     C
O       0.4974  0.99845  0.63789     O
H       0.4977   0.9588   0.7506     H
H       0.5023   0.0412   0.2494     H
O       0.5026  0.00155  0.36211     O
C       0.5049   0.3985   0.8384     C
O       0.5169  0.74278   0.7303     O
H       0.5179   0.8605   0.5482     H
C         0.54   0.8666   0.3536     C
C       0.5476  0.35737   0.7923     C
C       0.5529   0.8193    0.319     C
O       0.5568  0.48257  0.12187     O
H       0.5686   0.2026    0.372     H
H       0.5689   0.1118   0.1773     H
C       0.5786   0.8217   0.6359     C
C       0.5923   0.6913   0.3127     C
C       0.6012  0.42927    0.958     C
H       0.6041   0.6635   0.9449     H
N       0.6094  0.27081   0.7059     N
H       0.6135    0.746   0.8919     H
C       0.6139   0.2219   0.6682     C
C       0.6188    0.646   0.2672     C
C       0.6276   0.8601   0.5887     C
N       0.6278  0.12627   0.6013     N
O       0.6286  0.57872  0.02405     O
C        0.641   0.0669   0.2606     C
H       0.6566   0.8953   0.3446     H
C       0.6665  0.39719   0.8997     C
H       0.6756   0.8156    0.287     H
Cd      0.6772  0.04236  0.55949    Cd
C       0.6808    0.109   0.2173     C
C       0.7001    0.562   0.1804     C
C       0.7007   0.7756   0.7389     C
O       0.7178  0.95895  0.51205     O
C       0.7215   0.6676   0.9117     C
C       0.7227    0.717   0.8801     C
O       0.7363  0.69706   0.3634     O
C       0.7422   0.8192   0.6933     C
C       0.7472  0.01195   0.3576     C
C       0.7528  0.51195   0.1424     C
C       0.7578   0.3192   0.8067     C
O       0.7637  0.19706   0.1366     O
C       0.7773    0.217   0.6199     C
C       0.7785   0.1676   0.5883     C
O       0.7822  0.45895  0.98795     O
C       0.7993   0.2756   0.7611     C
C       0.7999    0.062   0.3196     C
C       0.8192    0.609   0.2827     C
Cd      0.8228  0.54236   0.9405    Cd
H       0.8244   0.3156    0.213     H
C       0.8335  0.89719   0.6003     C
H       0.8434   0.3953   0.1554     H
C        0.859   0.5669   0.2394     C
O       0.8714  0.07872  0.47595     O
N       0.8722  0.62627   0.8987     N
C       0.8724   0.3601   0.9113     C
C       0.8812    0.146   0.2328     C
C       0.8861   0.7219   0.8318     C
H       0.8865    0.246   0.6081     H
N       0.8906  0.77081   0.7941     N
H       0.8959   0.1635   0.5551     H
C       0.8988  0.92927    0.542     C
C       0.9077   0.1913   0.1873     C
C       0.9214   0.3217   0.8641     C
H       0.9311   0.6118   0.3227     H
H       0.9314   0.7026    0.128     H
O       0.9432  0.98257  0.37813     O
C       0.9471   0.3193    0.181     C
C       0.9524  0.85737   0.7077     C
C         0.96   0.3666   0.1464     C
H       0.9821   0.3605   0.9518     H
O       0.9831  0.24278   0.7697     O
C       0.9951   0.8985   0.6616     C
O       0.9974  0.50155  0.13789     O
H       0.9977   0.5412   0.2506     H
