data_I
_chemical_name_common  '/home/zhangsd/repos/MofS-CGCNN/ML/data/TSD/clean_cifs/XICNOO01_clean'
_cell_length_a 27.59840
_cell_length_b 27.59840
_cell_length_c 27.59840
_cell_angle_alpha 60.00000
_cell_angle_beta  60.00000
_cell_angle_gamma 60.00000
_space_group_name_H-M_alt      'P 1'


loop_
_space_group_symop_operation_xyz
  'x, y, z' 

loop_
_atom_site_label
_atom_site_fract_x
_atom_site_fract_y
_atom_site_fract_z
_atom_site_type_symbol
Zr         0.0      0.0  0.41107    Zr
Zr         0.0      0.0  0.58893    Zr
Zr         0.0  0.41107      0.0    Zr
Zr         0.0  0.41107  0.58893    Zr
Zr         0.0  0.58893      0.0    Zr
Zr         0.0  0.58893  0.41107    Zr
H       0.0033   0.3459   0.7815     H
H       0.0033   0.3459   0.8693     H
H       0.0033   0.7815   0.3459     H
H       0.0033   0.7815   0.8693     H
H       0.0033   0.8693   0.3459     H
H       0.0033   0.8693   0.7815     H
C       0.0085   0.3761   0.7825     C
C       0.0085   0.3761   0.8329     C
C       0.0085   0.7825   0.3761     C
C       0.0085   0.7825   0.8329     C
C       0.0085   0.8329   0.3761     C
C       0.0085   0.8329   0.7825     C
O      0.01399  0.40375  0.66459     O
O      0.01399  0.40375  0.91767     O
O      0.01399  0.66459  0.40375     O
O      0.01399  0.66459  0.91767     O
O      0.01399  0.91767  0.40375     O
O      0.01399  0.91767  0.66459     O
C       0.0171  0.42496  0.73488     C
C       0.0171  0.42496  0.82306     C
C       0.0171  0.73488  0.42496     C
C       0.0171  0.73488  0.82306     C
C       0.0171  0.82306  0.42496     C
C       0.0171  0.82306  0.73488     C
Zr     0.01873  0.54534  0.54534    Zr
Zr     0.01873  0.54534  0.89059    Zr
Zr     0.01873  0.89059  0.54534    Zr
C      0.01957  0.44055  0.67421     C
C      0.01957  0.44055  0.86567     C
C      0.01957  0.67421  0.44055     C
C      0.01957  0.67421  0.86567     C
C      0.01957  0.86567  0.44055     C
C      0.01957  0.86567  0.67421     C
O      0.02512  0.49004  0.63762     O
O      0.02512  0.49004  0.84722     O
O      0.02512  0.63762  0.49004     O
O      0.02512  0.63762  0.84722     O
O      0.02512  0.84722  0.49004     O
O      0.02512  0.84722  0.63762     O
S      0.02707  0.47075  0.75109     S
S      0.02707  0.75109  0.47075     S
S      0.02707  0.75109  0.75109     S
O       0.0444   0.0444  0.41292     O
O       0.0444   0.0444  0.49828     O
O       0.0444  0.41292   0.0444     O
O       0.0444  0.41292  0.49828     O
O       0.0444  0.49828   0.0444     O
O       0.0444  0.49828  0.41292     O
O      0.06312  0.45672  0.54328     O
O      0.06312  0.45672  0.93688     O
O      0.06312  0.54328  0.45672     O
O      0.06312  0.54328  0.93688     O
O      0.06312  0.93688  0.45672     O
O      0.06312  0.93688  0.54328     O
O      0.08233  0.33541  0.59625     O
O      0.08233  0.33541  0.98601     O
O      0.08233  0.59625  0.33541     O
O      0.08233  0.59625  0.98601     O
O      0.08233  0.98601  0.33541     O
O      0.08233  0.98601  0.59625     O
Zr     0.10941  0.45466  0.45466    Zr
Zr     0.10941  0.45466  0.98127    Zr
Zr     0.10941  0.98127  0.45466    Zr
H       0.1307   0.2185   0.6541     H
H       0.1307   0.2185   0.9967     H
H       0.1307   0.6541   0.2185     H
H       0.1307   0.6541   0.9967     H
H       0.1307   0.9967   0.2185     H
H       0.1307   0.9967   0.6541     H
C      0.13433  0.32579  0.55945     C
C      0.13433  0.32579  0.98043     C
C      0.13433  0.55945  0.32579     C
C      0.13433  0.55945  0.98043     C
C      0.13433  0.98043  0.32579     C
C      0.13433  0.98043  0.55945     C
O      0.15278  0.36238  0.50996     O
O      0.15278  0.36238  0.97488     O
O      0.15278  0.50996  0.36238     O
O      0.15278  0.50996  0.97488     O
O      0.15278  0.97488  0.36238     O
O      0.15278  0.97488  0.50996     O
C       0.1671   0.2175   0.6239     C
C       0.1671   0.2175   0.9915     C
C       0.1671   0.6239   0.2175     C
C       0.1671   0.6239   0.9915     C
C       0.1671   0.9915   0.2175     C
C       0.1671   0.9915   0.6239     C
C      0.17694  0.26512  0.57504     C
C      0.17694  0.26512   0.9829     C
C      0.17694  0.57504  0.26512     C
C      0.17694  0.57504   0.9829     C
C      0.17694   0.9829  0.26512     C
C      0.17694   0.9829  0.57504     C
C       0.2175   0.1671   0.6239     C
C       0.2175   0.1671   0.9915     C
C       0.2175   0.6239   0.1671     C
C       0.2175   0.6239   0.9915     C
C       0.2175   0.9915   0.1671     C
C       0.2175   0.9915   0.6239     C
H       0.2185   0.1307   0.6541     H
H       0.2185   0.1307   0.9967     H
H       0.2185   0.6541   0.1307     H
H       0.2185   0.6541   0.9967     H
H       0.2185   0.9967   0.1307     H
H       0.2185   0.9967   0.6541     H
S      0.24891  0.24891  0.52925     S
S      0.24891  0.24891  0.97293     S
S      0.24891  0.52925  0.24891     S
S      0.24891  0.52925  0.97293     S
S      0.24891  0.97293  0.24891     S
S      0.24891  0.97293  0.52925     S
C      0.26512  0.17694  0.57504     C
C      0.26512  0.17694   0.9829     C
C      0.26512  0.57504  0.17694     C
C      0.26512  0.57504   0.9829     C
C      0.26512   0.9829  0.17694     C
C      0.26512   0.9829  0.57504     C
C      0.32579  0.13433  0.55945     C
C      0.32579  0.13433  0.98043     C
C      0.32579  0.55945  0.13433     C
C      0.32579  0.55945  0.98043     C
C      0.32579  0.98043  0.13433     C
C      0.32579  0.98043  0.55945     C
O      0.33541  0.08233  0.59625     O
O      0.33541  0.08233  0.98601     O
O      0.33541  0.59625  0.08233     O
O      0.33541  0.59625  0.98601     O
O      0.33541  0.98601  0.08233     O
O      0.33541  0.98601  0.59625     O
H       0.3459   0.0033   0.7815     H
H       0.3459   0.0033   0.8693     H
H       0.3459   0.7815   0.0033     H
H       0.3459   0.7815   0.8693     H
H       0.3459   0.8693   0.0033     H
H       0.3459   0.8693   0.7815     H
O      0.36238  0.15278  0.50996     O
O      0.36238  0.15278  0.97488     O
O      0.36238  0.50996  0.15278     O
O      0.36238  0.50996  0.97488     O
O      0.36238  0.97488  0.15278     O
O      0.36238  0.97488  0.50996     O
C       0.3761   0.0085   0.7825     C
C       0.3761   0.0085   0.8329     C
C       0.3761   0.7825   0.0085     C
C       0.3761   0.7825   0.8329     C
C       0.3761   0.8329   0.0085     C
C       0.3761   0.8329   0.7825     C
O      0.40375  0.01399  0.66459     O
O      0.40375  0.01399  0.91767     O
O      0.40375  0.66459  0.01399     O
O      0.40375  0.66459  0.91767     O
O      0.40375  0.91767  0.01399     O
O      0.40375  0.91767  0.66459     O
Zr     0.41107      0.0      0.0    Zr
Zr     0.41107  0.58893      0.0    Zr
Zr     0.41107      1.0  0.58893    Zr
O      0.41292   0.0444   0.0444     O
O      0.41292   0.0444  0.49828     O
O      0.41292  0.49828   0.0444     O
C      0.42496   0.0171  0.73488     C
C      0.42496   0.0171  0.82306     C
C      0.42496  0.73488   0.0171     C
C      0.42496  0.73488  0.82306     C
C      0.42496  0.82306   0.0171     C
C      0.42496  0.82306  0.73488     C
C      0.44055  0.01957  0.67421     C
C      0.44055  0.01957  0.86567     C
C      0.44055  0.67421  0.01957     C
C      0.44055  0.67421  0.86567     C
C      0.44055  0.86567  0.01957     C
C      0.44055  0.86567  0.67421     C
Zr     0.45466  0.10941  0.45466    Zr
Zr     0.45466  0.10941  0.98127    Zr
Zr     0.45466  0.45466  0.10941    Zr
Zr     0.45466  0.45466  0.98127    Zr
Zr     0.45466  0.98127  0.10941    Zr
Zr     0.45466  0.98127  0.45466    Zr
O      0.45672  0.06312  0.54328     O
O      0.45672  0.06312  0.93688     O
O      0.45672  0.54328  0.06312     O
O      0.45672  0.54328  0.93688     O
O      0.45672  0.93688  0.06312     O
O      0.45672  0.93688  0.54328     O
S      0.47075  0.02707  0.75109     S
S      0.47075  0.75109  0.02707     S
S      0.47075  0.75109  0.75109     S
O      0.49004  0.02512  0.63762     O
O      0.49004  0.02512  0.84722     O
O      0.49004  0.63762  0.02512     O
O      0.49004  0.63762  0.84722     O
O      0.49004  0.84722  0.02512     O
O      0.49004  0.84722  0.63762     O
O      0.49828   0.0444   0.0444     O
O      0.49828   0.0444  0.41292     O
O      0.49828  0.41292   0.0444     O
O      0.50172  0.58708   0.9556     O
O      0.50172   0.9556  0.58708     O
O      0.50172   0.9556   0.9556     O
O      0.50996  0.15278  0.36238     O
O      0.50996  0.15278  0.97488     O
O      0.50996  0.36238  0.15278     O
O      0.50996  0.36238  0.97488     O
O      0.50996  0.97488  0.15278     O
O      0.50996  0.97488  0.36238     O
S      0.52925  0.24891  0.24891     S
S      0.52925  0.24891  0.97293     S
S      0.52925  0.97293  0.24891     S
O      0.54328  0.06312  0.45672     O
O      0.54328  0.06312  0.93688     O
O      0.54328  0.45672  0.06312     O
O      0.54328  0.45672  0.93688     O
O      0.54328  0.93688  0.06312     O
O      0.54328  0.93688  0.45672     O
Zr     0.54534  0.01873  0.54534    Zr
Zr     0.54534  0.01873  0.89059    Zr
Zr     0.54534  0.54534  0.01873    Zr
Zr     0.54534  0.54534  0.89059    Zr
Zr     0.54534  0.89059  0.01873    Zr
Zr     0.54534  0.89059  0.54534    Zr
C      0.55945  0.13433  0.32579     C
C      0.55945  0.13433  0.98043     C
C      0.55945  0.32579  0.13433     C
C      0.55945  0.32579  0.98043     C
C      0.55945  0.98043  0.13433     C
C      0.55945  0.98043  0.32579     C
C      0.57504  0.17694  0.26512     C
C      0.57504  0.17694   0.9829     C
C      0.57504  0.26512  0.17694     C
C      0.57504  0.26512   0.9829     C
C      0.57504   0.9829  0.17694     C
C      0.57504   0.9829  0.26512     C
O      0.58708  0.50172   0.9556     O
O      0.58708   0.9556  0.50172     O
O      0.58708   0.9556   0.9556     O
Zr     0.58893      0.0      0.0    Zr
Zr     0.58893      0.0  0.41107    Zr
Zr     0.58893  0.41107     -0.0    Zr
O      0.59625  0.08233  0.33541     O
O      0.59625  0.08233  0.98601     O
O      0.59625  0.33541  0.08233     O
O      0.59625  0.33541  0.98601     O
O      0.59625  0.98601  0.08233     O
O      0.59625  0.98601  0.33541     O
C       0.6239   0.1671   0.2175     C
C       0.6239   0.1671   0.9915     C
C       0.6239   0.2175   0.1671     C
C       0.6239   0.2175   0.9915     C
C       0.6239   0.9915   0.1671     C
C       0.6239   0.9915   0.2175     C
O      0.63762  0.02512  0.49004     O
O      0.63762  0.02512  0.84722     O
O      0.63762  0.49004  0.02512     O
O      0.63762  0.49004  0.84722     O
O      0.63762  0.84722  0.02512     O
O      0.63762  0.84722  0.49004     O
H       0.6541   0.1307   0.2185     H
H       0.6541   0.1307   0.9967     H
H       0.6541   0.2185   0.1307     H
H       0.6541   0.2185   0.9967     H
H       0.6541   0.9967   0.1307     H
H       0.6541   0.9967   0.2185     H
O      0.66459  0.01399  0.40375     O
O      0.66459  0.01399  0.91767     O
O      0.66459  0.40375  0.01399     O
O      0.66459  0.40375  0.91767     O
O      0.66459  0.91767  0.01399     O
O      0.66459  0.91767  0.40375     O
C      0.67421  0.01957  0.44055     C
C      0.67421  0.01957  0.86567     C
C      0.67421  0.44055  0.01957     C
C      0.67421  0.44055  0.86567     C
C      0.67421  0.86567  0.01957     C
C      0.67421  0.86567  0.44055     C
C      0.73488   0.0171  0.42496     C
C      0.73488   0.0171  0.82306     C
C      0.73488  0.42496   0.0171     C
C      0.73488  0.42496  0.82306     C
C      0.73488  0.82306   0.0171     C
C      0.73488  0.82306  0.42496     C
S      0.75109  0.02707  0.47075     S
S      0.75109  0.02707  0.75109     S
S      0.75109  0.47075  0.02707     S
S      0.75109  0.47075  0.75109     S
S      0.75109  0.75109  0.02707     S
S      0.75109  0.75109  0.47075     S
H       0.7815   0.0033   0.3459     H
H       0.7815   0.0033   0.8693     H
H       0.7815   0.3459   0.0033     H
H       0.7815   0.3459   0.8693     H
H       0.7815   0.8693   0.0033     H
H       0.7815   0.8693   0.3459     H
C       0.7825   0.0085   0.3761     C
C       0.7825   0.0085   0.8329     C
C       0.7825   0.3761   0.0085     C
C       0.7825   0.3761   0.8329     C
C       0.7825   0.8329   0.0085     C
C       0.7825   0.8329   0.3761     C
C      0.82306   0.0171  0.42496     C
C      0.82306   0.0171  0.73488     C
C      0.82306  0.42496   0.0171     C
C      0.82306  0.42496  0.73488     C
C      0.82306  0.73488   0.0171     C
C      0.82306  0.73488  0.42496     C
C       0.8329   0.0085   0.3761     C
C       0.8329   0.0085   0.7825     C
C       0.8329   0.3761   0.0085     C
C       0.8329   0.3761   0.7825     C
C       0.8329   0.7825   0.0085     C
C       0.8329   0.7825   0.3761     C
O      0.84722  0.02512  0.49004     O
O      0.84722  0.02512  0.63762     O
O      0.84722  0.49004  0.02512     O
O      0.84722  0.49004  0.63762     O
O      0.84722  0.63762  0.02512     O
O      0.84722  0.63762  0.49004     O
C      0.86567  0.01957  0.44055     C
C      0.86567  0.01957  0.67421     C
C      0.86567  0.44055  0.01957     C
C      0.86567  0.44055  0.67421     C
C      0.86567  0.67421  0.01957     C
C      0.86567  0.67421  0.44055     C
H       0.8693   0.0033   0.3459     H
H       0.8693   0.0033   0.7815     H
H       0.8693   0.3459   0.0033     H
H       0.8693   0.3459   0.7815     H
H       0.8693   0.7815   0.0033     H
H       0.8693   0.7815   0.3459     H
Zr     0.89059  0.01873  0.54534    Zr
Zr     0.89059  0.54534  0.01873    Zr
Zr     0.89059  0.54534  0.54534    Zr
O      0.91767  0.01399  0.40375     O
O      0.91767  0.01399  0.66459     O
O      0.91767  0.40375  0.01399     O
O      0.91767  0.40375  0.66459     O
O      0.91767  0.66459  0.01399     O
O      0.91767  0.66459  0.40375     O
O      0.93688  0.06312  0.45672     O
O      0.93688  0.06312  0.54328     O
O      0.93688  0.45672  0.06312     O
O      0.93688  0.45672  0.54328     O
O      0.93688  0.54328  0.06312     O
O      0.93688  0.54328  0.45672     O
O       0.9556  0.50172  0.58708     O
O       0.9556  0.50172   0.9556     O
O       0.9556  0.58708  0.50172     O
O       0.9556  0.58708   0.9556     O
O       0.9556   0.9556  0.50172     O
O       0.9556   0.9556  0.58708     O
S      0.97293  0.24891  0.24891     S
S      0.97293  0.24891  0.52925     S
S      0.97293  0.52925  0.24891     S
O      0.97488  0.15278  0.36238     O
O      0.97488  0.15278  0.50996     O
O      0.97488  0.36238  0.15278     O
O      0.97488  0.36238  0.50996     O
O      0.97488  0.50996  0.15278     O
O      0.97488  0.50996  0.36238     O
C      0.98043  0.13433  0.32579     C
C      0.98043  0.13433  0.55945     C
C      0.98043  0.32579  0.13433     C
C      0.98043  0.32579  0.55945     C
C      0.98043  0.55945  0.13433     C
C      0.98043  0.55945  0.32579     C
Zr     0.98127  0.10941  0.45466    Zr
Zr     0.98127  0.45466  0.10941    Zr
Zr     0.98127  0.45466  0.45466    Zr
C       0.9829  0.17694  0.26512     C
C       0.9829  0.17694  0.57504     C
C       0.9829  0.26512  0.17694     C
C       0.9829  0.26512  0.57504     C
C       0.9829  0.57504  0.17694     C
C       0.9829  0.57504  0.26512     C
O      0.98601  0.08233  0.33541     O
O      0.98601  0.08233  0.59625     O
O      0.98601  0.33541  0.08233     O
O      0.98601  0.33541  0.59625     O
O      0.98601  0.59625  0.08233     O
O      0.98601  0.59625  0.33541     O
C       0.9915   0.1671   0.2175     C
C       0.9915   0.1671   0.6239     C
C       0.9915   0.2175   0.1671     C
C       0.9915   0.2175   0.6239     C
C       0.9915   0.6239   0.1671     C
C       0.9915   0.6239   0.2175     C
H       0.9967   0.1307   0.2185     H
H       0.9967   0.1307   0.6541     H
H       0.9967   0.2185   0.1307     H
H       0.9967   0.2185   0.6541     H
H       0.9967   0.6541   0.1307     H
H       0.9967   0.6541   0.2185     H
