data_I
_chemical_name_common  '/home/zhangsd/repos/MofS-CGCNN/ML/data/TSD/clean_cifs/XIDBUJ_clean'
_cell_length_a 11.72100
_cell_length_b 14.95460
_cell_length_c 14.95460
_cell_angle_alpha 96.44850
_cell_angle_beta  107.06000
_cell_angle_gamma 107.06000
_space_group_name_H-M_alt      'P 1'


loop_
_space_group_symop_operation_xyz
  'x, y, z' 

loop_
_atom_site_label
_atom_site_fract_x
_atom_site_fract_y
_atom_site_fract_z
_atom_site_type_symbol
H       0.0484    0.152   0.6202     H
H       0.0484   0.6202    0.152     H
O       0.0707  0.19183  0.29135     O
O       0.0707  0.29135  0.19183     O
N       0.0716  0.57278  0.85878     N
N       0.0716  0.85878  0.57278     N
H       0.0805   0.5098   0.7404     H
H       0.0805   0.7404   0.5098     H
C       0.0876   0.2726   0.2726     C
H       0.1049   0.6395   0.9887     H
H       0.1049   0.9887   0.6395     H
Zn      0.1181  0.19457  0.43919    Zn
Zn      0.1181  0.43919  0.19457    Zn
H       0.1284   0.2049   0.7835     H
H       0.1284   0.7835   0.2049     H
C       0.1286   0.5413   0.8037     C
C       0.1286   0.8037   0.5413     C
C       0.1288   0.1986   0.6482     C
C       0.1288   0.6482   0.1986     C
C       0.1333   0.3582   0.3582     C
C       0.1431   0.6169   0.9491     C
C       0.1431   0.9491   0.6169     C
O        0.148  0.06044  0.41172     O
O        0.148  0.41172  0.06044     O
O         0.15  0.34012  0.44018     O
O         0.15  0.44018  0.34012     O
C       0.1764   0.2295   0.7465     C
C       0.1764   0.7465   0.2295     C
N       0.1926  0.23192  0.59102     N
H       0.1926   0.3424   0.9174     H
N       0.1926  0.59102  0.23192     N
H       0.1926   0.9174   0.3424     H
C       0.2566   0.5534   0.8366     C
C       0.2566   0.8366   0.5534     C
C       0.2596   0.1038   0.4166     C
C       0.2596   0.4166   0.1038     C
C       0.2695   0.6307   0.9865     C
C       0.2695   0.9865   0.6307     C
C        0.279   0.3547   0.9473     C
C        0.279   0.9473   0.3547     C
H        0.293   0.5307   0.7957     H
H        0.293   0.7957   0.5307     H
C       0.2971   0.2981   0.7897     C
C       0.2971   0.7897   0.2981     C
C       0.3094   0.2977   0.6335     C
C       0.3094   0.6335   0.2977     C
O       0.3102   0.1922   0.4404     O
O       0.3102   0.4404   0.1922     O
H       0.3148   0.0503   0.6615     H
H       0.3148   0.6615   0.0503     H
C       0.3303   0.5996   0.9304     C
C       0.3303   0.9304   0.5996     C
C       0.3362   0.0445   0.3929     C
C       0.3362   0.3929   0.0445     C
C       0.3521   0.3351   0.8945     C
C       0.3521   0.8945   0.3351     C
H       0.3554   0.3219   0.5951     H
H       0.3554   0.5951   0.3219     H
C       0.3633   0.3308     0.73     C
C       0.3633     0.73   0.3308     C
H       0.4451   0.3755   0.7561     H
H       0.4451   0.7561   0.3755     H
C       0.4641   0.0874   0.4078     C
C       0.4641   0.4078   0.0874     C
C       0.4684   0.6135   0.9711     C
C       0.4684   0.9711   0.6135     C
N        0.477  0.35163  0.93477     N
N        0.477  0.93477  0.35163     N
H       0.4955   0.5685   0.8469     H
H       0.4955   0.8469   0.5685     H
H       0.5045   0.1531   0.4315     H
H       0.5045   0.4315   0.1531     H
N        0.523  0.06523  0.64837     N
N        0.523  0.64837  0.06523     N
C       0.5316   0.0289   0.3865     C
C       0.5316   0.3865   0.0289     C
C       0.5359   0.5922   0.9126     C
C       0.5359   0.9126   0.5922     C
H       0.5549   0.2439   0.6245     H
H       0.5549   0.6245   0.2439     H
C       0.6367     0.27   0.6692     C
C       0.6367   0.6692     0.27     C
H       0.6446   0.4049   0.6781     H
H       0.6446   0.6781   0.4049     H
C       0.6479   0.1055   0.6649     C
C       0.6479   0.6649   0.1055     C
C       0.6638   0.6071   0.9555     C
C       0.6638   0.9555   0.6071     C
C       0.6697   0.0696   0.4004     C
C       0.6697   0.4004   0.0696     C
H       0.6852   0.3385   0.9497     H
H       0.6852   0.9497   0.3385     H
O       0.6898   0.5596   0.8078     O
O       0.6898   0.8078   0.5596     O
C       0.6906   0.3665   0.7023     C
C       0.6906   0.7023   0.3665     C
C       0.7029   0.2103   0.7019     C
C       0.7029   0.7019   0.2103     C
H        0.707   0.2043   0.4693     H
H        0.707   0.4693   0.2043     H
C        0.721   0.0527   0.6453     C
C        0.721   0.6453   0.0527     C
C       0.7305   0.0135   0.3693     C
C       0.7305   0.3693   0.0135     C
C       0.7404   0.5834   0.8962     C
C       0.7404   0.8962   0.5834     C
C       0.7434   0.1634   0.4466     C
C       0.7434   0.4466   0.1634     C
H       0.8074   0.0826   0.6576     H
N       0.8074  0.40898  0.76808     N
H       0.8074   0.6576   0.0826     H
N       0.8074  0.76808  0.40898     N
C       0.8236   0.2535   0.7705     C
C       0.8236   0.7705   0.2535     C
O         0.85  0.55982  0.65988     O
O         0.85  0.65988  0.55982     O
O        0.852  0.58828  0.93956     O
O        0.852  0.93956  0.58828     O
C       0.8569   0.0509   0.3831     C
C       0.8569   0.3831   0.0509     C
C       0.8667   0.6418   0.6418     C
C       0.8712   0.3518   0.8014     C
C       0.8712   0.8014   0.3518     C
C       0.8714   0.1963   0.4587     C
C       0.8714   0.4587   0.1963     C
H       0.8716   0.2165   0.7951     H
H       0.8716   0.7951   0.2165     H
Zn      0.8819  0.56081  0.80543    Zn
Zn      0.8819  0.80543  0.56081    Zn
H       0.8951   0.0113   0.3605     H
H       0.8951   0.3605   0.0113     H
C       0.9124   0.7274   0.7274     C
H       0.9195   0.2596   0.4902     H
H       0.9195   0.4902   0.2596     H
N       0.9284  0.14122  0.42722     N
N       0.9284  0.42722  0.14122     N
O       0.9293  0.70865  0.80817     O
O       0.9293  0.80817  0.70865     O
H       0.9516   0.3798    0.848     H
H       0.9516    0.848   0.3798     H
