data_I
_chemical_name_common  '/home/zhangsd/repos/MofS-CGCNN/ML/data/TSD/clean_cifs/XIHXAP_clean'
_cell_length_a 12.64600
_cell_length_b 14.83400
_cell_length_c 16.05210
_cell_angle_alpha 90.00000
_cell_angle_beta  98.12630
_cell_angle_gamma 90.00000
_space_group_name_H-M_alt      'P 1'


loop_
_space_group_symop_operation_xyz
  'x, y, z' 

loop_
_atom_site_label
_atom_site_fract_x
_atom_site_fract_y
_atom_site_fract_z
_atom_site_type_symbol
Mn         0.0      0.0      0.0    Mn
Mn         0.0      0.5      0.0    Mn
C       0.0011   0.0536   0.6236     C
C       0.0105   0.6466   0.6784     C
H       0.0191   0.7987   0.2326     H
C       0.0218   0.2921   0.3852     C
Mn     0.02249  0.24871   0.0153    Mn
H       0.0277   0.7459   0.5951     H
C       0.0346   0.1124    0.691     C
C       0.0399   0.8355    0.279     C
H       0.0447   0.4471   0.2461     H
O       0.0456   0.7081   0.8766     O
H       0.0509   0.0169   0.6028     H
C       0.0654   0.4087   0.2912     C
O        0.072   0.1178   0.0795     O
O       0.0809   0.0468   0.8987     O
O       0.0813   0.5645   0.9099     O
C       0.0907   0.6337   0.8674     C
O       0.0962   0.1959   0.9139     O
C       0.1032   0.9502   0.4117     C
C       0.1139   0.1227   0.8804     C
H       0.1242   0.9895   0.4562     H
C       0.1281   0.6387    0.714     C
C       0.1303    0.288   0.4197     C
O       0.1393   0.7757   0.0412     O
O       0.1395   0.9247   0.0545     O
C       0.1445   0.8356   0.3149     C
C       0.1501   0.1163   0.1347     C
C       0.1525   0.1176   0.7271     C
H       0.1526   0.2458   0.4613     H
O         0.16   0.4649   0.0593     O
H       0.1611   0.6216   0.2543     H
C       0.1637   0.6293   0.8005     C
O        0.165   0.3148   0.0667     O
C         0.17   0.4061   0.3278     C
H       0.1791   0.6401   0.6025     H
C       0.1794   0.8949    0.381     C
C         0.18   0.8499   0.0644     C
N       0.1879   0.1162   0.1928     N
C       0.1883   0.1266   0.8139     C
H       0.1926   0.7962   0.2954     H
C       0.2027   0.6358   0.6599     C
C       0.2038   0.3922   0.0782     C
C       0.2051   0.3463   0.3926     C
H       0.2075   0.1111   0.6146     H
H       0.2187   0.4453   0.3087     H
C       0.2297   0.6192   0.2354     C
C       0.2298   0.1183    0.672     C
H       0.2341   0.5661   0.2018     H
H       0.2393   0.6717   0.2024     H
H       0.2607   0.1717   0.2976     H
H       0.2659   0.0661   0.2982     H
C       0.2702   0.6183    0.828     C
C       0.2703   0.1192   0.2646     C
H       0.2813   0.9453   0.1913     H
H       0.2925   0.6111   0.8854     H
C       0.2949   0.8463   0.1074     C
C       0.2962   0.8922   0.4218     C
C       0.2973   0.1358   0.8401     C
H       0.3074   0.2962   0.2046     H
C       0.3117   0.6266   0.6861     C
N       0.3121   0.6162   0.3072     N
C         0.32   0.3499   0.4356     C
C       0.3206   0.3949    0.119     C
H       0.3209   0.1401   0.8975     H
C         0.33   0.9061   0.1722     C
O        0.335   0.8148   0.4333     O
C       0.3363   0.1293   0.6995     C
H       0.3389   0.1216   0.2457     H
O         0.34   0.9649   0.4407     O
H       0.3474   0.7458   0.0387     H
C       0.3475   0.6176   0.7729     C
C       0.3499   0.6163   0.3653     C
C       0.3555   0.3356   0.1851     C
O       0.3605   0.4247   0.4455     O
O       0.3607   0.2757   0.4588     O
C       0.3697    0.788   0.0803     C
C       0.3719   0.1387    0.786     C
H       0.3758   0.4895   0.0438     H
C       0.3861   0.6227   0.6196     C
C       0.3968   0.4502   0.0883     C
O       0.4038   0.6959   0.5861     O
C       0.4093   0.1337   0.6326     C
O       0.4187   0.0645   0.5901     O
O       0.4191   0.5468   0.6013     O
O        0.428   0.6178   0.4205     O
C       0.4346   0.9087   0.2088     C
H       0.4491   0.5169   0.8972     H
O       0.4544   0.2081   0.6234     O
H       0.4553   0.9471   0.2539     H
C       0.4601   0.3355    0.221     C
C       0.4654   0.6124    0.809     C
H       0.4723   0.2459   0.9049     H
Mn     0.47751  0.74871   0.4847    Mn
C       0.4782   0.7921   0.1148     C
H       0.4809   0.2987   0.2674     H
C       0.4895   0.1466   0.8216     C
C       0.4989   0.5536   0.8764     C
Mn         0.5      0.0      0.5    Mn
Mn         0.5      0.5      0.5    Mn
C       0.5011   0.4464   0.1236     C
C       0.5105   0.8534   0.1784     C
H       0.5191   0.7013   0.7326     H
C       0.5218   0.2079   0.8852     C
Mn     0.52249  0.25129   0.5153    Mn
H       0.5277   0.7541   0.0951     H
C       0.5346   0.3876    0.191     C
C       0.5399   0.6645    0.779     C
H       0.5447   0.0529   0.7461     H
O       0.5456   0.7919   0.3766     O
H       0.5509   0.4831   0.1028     H
C       0.5654   0.0913   0.7912     C
O        0.572   0.3822   0.5795     O
O       0.5809   0.4532   0.3987     O
O       0.5813   0.9355   0.4099     O
C       0.5907   0.8663   0.3674     C
O       0.5962   0.3041   0.4139     O
C       0.6032   0.5498   0.9117     C
C       0.6139   0.3773   0.3804     C
H       0.6242   0.5105   0.9562     H
C       0.6281   0.8613    0.214     C
C       0.6303    0.212   0.9197     C
O       0.6393   0.7243   0.5412     O
O       0.6395   0.5753   0.5545     O
C       0.6445   0.6644   0.8149     C
C       0.6501   0.3837   0.6347     C
C       0.6525   0.3824   0.2271     C
H       0.6526   0.2542   0.9613     H
O         0.66   0.0351   0.5593     O
H       0.6611   0.8784   0.7543     H
C       0.6637   0.8707   0.3005     C
O        0.665   0.1852   0.5667     O
C         0.67   0.0939   0.8278     C
H       0.6791   0.8599   0.1025     H
C       0.6794   0.6051    0.881     C
C         0.68   0.6501   0.5644     C
N       0.6879   0.3838   0.6928     N
C       0.6883   0.3734   0.3139     C
H       0.6926   0.7038   0.7954     H
C       0.7027   0.8642   0.1599     C
C       0.7038   0.1078   0.5782     C
C       0.7051   0.1537   0.8926     C
H       0.7075   0.3889   0.1146     H
H       0.7187   0.0547   0.8087     H
C       0.7297   0.8808   0.7354     C
C       0.7298   0.3817    0.172     C
H       0.7341   0.9339   0.7018     H
H       0.7393   0.8283   0.7024     H
H       0.7607   0.3283   0.7976     H
H       0.7659   0.4339   0.7982     H
C       0.7702   0.8817    0.328     C
C       0.7703   0.3808   0.7646     C
H       0.7813   0.5547   0.6913     H
H       0.7925   0.8889   0.3854     H
C       0.7949   0.6537   0.6074     C
C       0.7962   0.6078   0.9218     C
C       0.7973   0.3642   0.3401     C
H       0.8074   0.2038   0.7046     H
C       0.8117   0.8734   0.1861     C
N       0.8121   0.8838   0.8072     N
C         0.82   0.1501   0.9356     C
C       0.8206   0.1051    0.619     C
H       0.8209   0.3599   0.3975     H
C         0.83   0.5939   0.6722     C
O        0.835   0.6852   0.9333     O
C       0.8363   0.3707   0.1995     C
H       0.8389   0.3784   0.7457     H
O         0.84   0.5351   0.9407     O
H       0.8474   0.7542   0.5387     H
C       0.8475   0.8824   0.2729     C
C       0.8499   0.8837   0.8653     C
C       0.8555   0.1644   0.6851     C
O       0.8605   0.0753   0.9455     O
O       0.8607   0.2243   0.9588     O
C       0.8697    0.712   0.5803     C
C       0.8719   0.3613    0.286     C
H       0.8758   0.0105   0.5438     H
C       0.8861   0.8773   0.1196     C
C       0.8968   0.0498   0.5883     C
O       0.9038   0.8041   0.0861     O
C       0.9093   0.3663   0.1326     C
O       0.9187   0.4355   0.0901     O
O       0.9191   0.9532   0.1013     O
O        0.928   0.8822   0.9205     O
C       0.9346   0.5913   0.7088     C
H       0.9491   0.9831   0.3972     H
O       0.9544   0.2919   0.1234     O
H       0.9553   0.5529   0.7539     H
C       0.9601   0.1645    0.721     C
C       0.9654   0.8876    0.309     C
H       0.9723   0.2541   0.4049     H
Mn     0.97751  0.75129   0.9847    Mn
C       0.9782   0.7079   0.6148     C
H       0.9809   0.2013   0.7674     H
C       0.9895   0.3534   0.3216     C
C       0.9989   0.9464   0.3764     C
