data_I
_chemical_name_common  '/home/zhangsd/repos/MofS-CGCNN/ML/data/TSD/clean_cifs/XILLEL_clean'
_cell_length_a 32.70200
_cell_length_b 32.70200
_cell_length_c 32.70200
_cell_angle_alpha 90.00000
_cell_angle_beta  90.00000
_cell_angle_gamma 90.00000
_space_group_name_H-M_alt      'P 1'


loop_
_space_group_symop_operation_xyz
  'x, y, z' 

loop_
_atom_site_label
_atom_site_fract_x
_atom_site_fract_y
_atom_site_fract_z
_atom_site_type_symbol
C       0.0022   0.2887   0.3058     C
C       0.0022   0.3058   0.7887     C
C       0.0022   0.4442   0.9613     C
C       0.0022   0.4613   0.4442     C
C       0.0022   0.7887   0.8058     C
C       0.0022   0.8058   0.2887     C
C       0.0022   0.9442   0.4613     C
C       0.0022   0.9613   0.9442     C
H       0.0025   0.0403   0.3791     H
H       0.0025   0.2097   0.8709     H
H       0.0025   0.3709   0.2097     H
H       0.0025   0.3791   0.5403     H
H       0.0025   0.5403   0.8791     H
H       0.0025   0.7097   0.3709     H
H       0.0025   0.8709   0.7097     H
H       0.0025   0.8791   0.0403     H
C      0.00563   0.0225   0.5639     C
C      0.00563   0.0639   0.0225     C
C      0.00563   0.1861   0.2275     C
C      0.00563   0.2275   0.6861     C
C      0.00563   0.5225   0.0639     C
C      0.00563   0.5639   0.5225     C
C      0.00563   0.6861   0.7275     C
C      0.00563   0.7275   0.1861     C
H       0.0117   0.2669   0.8366     H
H       0.0117   0.3366   0.2669     H
H       0.0117   0.4134   0.4831     H
H       0.0117   0.4831   0.9134     H
H       0.0117   0.7669   0.3366     H
H       0.0117   0.8366   0.7669     H
H       0.0117   0.9134   0.9831     H
H       0.0117   0.9831   0.4134     H
H       0.0169   0.0866   0.4883     H
H       0.0169   0.1634   0.7617     H
H       0.0169   0.2617   0.1634     H
H       0.0169   0.4883   0.5866     H
H       0.0169   0.5866   0.9883     H
H       0.0169   0.6634   0.2617     H
H       0.0169   0.7617   0.6634     H
H       0.0169   0.9883   0.0866     H
C       0.0225  0.00563   0.0639     C
C       0.0225   0.0639  0.50563     C
C       0.0225   0.1861  0.74437     C
C       0.0225  0.24437   0.1861     C
C       0.0225  0.50563   0.5639     C
C       0.0225   0.5639  0.00563     C
C       0.0225   0.6861  0.24437     C
C       0.0225  0.74437   0.6861     C
C        0.024   0.1133   0.9503     C
C        0.024   0.1367   0.2997     C
C        0.024   0.2997   0.6367     C
C        0.024   0.4503   0.1133     C
C        0.024   0.6133   0.4503     C
C        0.024   0.6367   0.7997     C
C        0.024   0.7997   0.1367     C
C        0.024   0.9503   0.6133     C
N      0.03604  0.29716   0.3319     N
N      0.03604   0.3319  0.79716     N
N      0.03604   0.4181  0.95284     N
N      0.03604  0.45284   0.4181     N
N      0.03604  0.79716   0.8319     N
N      0.03604   0.8319  0.29716     N
N      0.03604   0.9181  0.45284     N
N      0.03604  0.95284   0.9181     N
H       0.0382   0.0939   0.3431     H
H       0.0382   0.1561   0.9069     H
H       0.0382   0.3431   0.5939     H
H       0.0382   0.4069   0.1561     H
H       0.0382   0.5939   0.8431     H
H       0.0382   0.6561   0.4069     H
H       0.0382   0.8431   0.0939     H
H       0.0382   0.9069   0.6561     H
C       0.0387   0.0558   0.9978     C
C       0.0387   0.1942   0.2522     C
C       0.0387   0.2522   0.6942     C
C       0.0387   0.4978   0.0558     C
C       0.0387   0.5558   0.4978     C
C       0.0387   0.6942   0.7522     C
C       0.0387   0.7522   0.1942     C
C       0.0387   0.9978   0.5558     C
H       0.0403   0.0025   0.8791     H
H       0.0403   0.2475   0.3709     H
H       0.0403   0.3709   0.7475     H
H       0.0403   0.3791   0.0025     H
H       0.0403   0.5025   0.3791     H
H       0.0403   0.7475   0.8709     H
H       0.0403   0.8709   0.2475     H
H       0.0403   0.8791   0.5025     H
C       0.0459   0.1184   0.3295     C
C       0.0459   0.1316   0.9205     C
C       0.0459   0.3295   0.6184     C
C       0.0459   0.4205   0.1316     C
C       0.0459   0.6184   0.8295     C
C       0.0459   0.6316   0.4205     C
C       0.0459   0.8295   0.1184     C
C       0.0459   0.9205   0.6316     C
N      0.04716   0.0819  0.96396     N
N      0.04716   0.1681  0.28604     N
N      0.04716  0.28604   0.6681     N
N      0.04716  0.46396   0.0819     N
N      0.04716   0.5819  0.46396     N
N      0.04716   0.6681  0.78604     N
N      0.04716  0.78604   0.1681     N
N      0.04716  0.96396   0.5819     N
C       0.0497    0.274   0.3633     C
C       0.0497   0.3633    0.774     C
C       0.0497   0.3867    0.976     C
C       0.0497    0.476   0.3867     C
C       0.0497    0.774   0.8633     C
C       0.0497   0.8633    0.274     C
C       0.0497   0.8867    0.476     C
C       0.0497    0.976   0.8867     C
C       0.0558   0.0387   0.4978     C
C       0.0558   0.2113   0.7522     C
C       0.0558   0.2522   0.2113     C
C       0.0558   0.4978   0.5387     C
C       0.0558   0.5387   0.9978     C
C       0.0558   0.7113   0.2522     C
C       0.0558   0.7522   0.7113     C
C       0.0558   0.9978   0.0387     C
H       0.0575   0.3116   0.8519     H
H       0.0575   0.3519   0.3116     H
H       0.0575   0.3981   0.4384     H
H       0.0575   0.4384   0.8981     H
H       0.0575   0.8116   0.3519     H
H       0.0575   0.8519   0.8116     H
H       0.0575   0.8981   0.9384     H
H       0.0575   0.9384   0.3981     H
C      0.06001   0.3305  0.33113     C
C      0.06001  0.33113   0.8305     C
C      0.06001  0.41887   0.9195     C
C      0.06001   0.4195  0.41887     C
C      0.06001   0.8305  0.83113     C
C      0.06001  0.83113   0.3305     C
C      0.06001  0.91887   0.4195     C
C      0.06001   0.9195  0.91887     C
H       0.0616   0.1019   0.4425     H
H       0.0616   0.1481   0.8075     H
H       0.0616   0.3075   0.1481     H
H       0.0616   0.4425   0.6019     H
H       0.0616   0.6019   0.9425     H
H       0.0616   0.6481   0.3075     H
H       0.0616   0.8075   0.6481     H
H       0.0616   0.9425   0.1019     H
C       0.0639  0.00563   0.5225     C
C       0.0639   0.0225  0.00563     C
C       0.0639   0.2275  0.24437     C
C       0.0639  0.24437   0.7275     C
C       0.0639  0.50563   0.0225     C
C       0.0639   0.5225  0.50563     C
C       0.0639   0.7275  0.74437     C
C       0.0639  0.74437   0.2275     C
C       0.0795   0.2959   0.3816     C
C       0.0795   0.3684   0.9541     C
C       0.0795   0.3816   0.7959     C
C       0.0795   0.4541   0.3684     C
C       0.0795   0.7959   0.8816     C
C       0.0795   0.8684   0.4541     C
C       0.0795   0.8816   0.2959     C
C       0.0795   0.9541   0.8684     C
N      0.08019   0.1103  0.91293     N
N      0.08019   0.1397  0.33707     N
N      0.08019  0.33707   0.6397     N
N      0.08019  0.41293   0.1103     N
N      0.08019   0.6103  0.41293     N
N      0.08019   0.6397  0.83707     N
N      0.08019  0.83707   0.1397     N
N      0.08019  0.91293   0.6103     N
C       0.0805  0.08113  0.93999     C
C       0.0805  0.16887  0.31001     C
C       0.0805  0.31001  0.66887     C
C       0.0805  0.43999  0.08113     C
C       0.0805  0.58113  0.43999     C
C       0.0805  0.66887  0.81001     C
C       0.0805  0.81001  0.16887     C
C       0.0805  0.93999  0.58113     C
C      0.08113   0.0805  0.43999     C
C      0.08113   0.1695  0.81001     C
C      0.08113  0.31001   0.1695     C
C      0.08113  0.43999   0.5805     C
C      0.08113   0.5805  0.93999     C
C      0.08113   0.6695  0.31001     C
C      0.08113  0.81001   0.6695     C
C      0.08113  0.93999   0.0805     C
N       0.0819  0.04716  0.46396     N
N       0.0819  0.20284  0.78604     N
N       0.0819  0.28604  0.20284     N
N       0.0819  0.46396  0.54716     N
N       0.0819  0.54716  0.96396     N
N       0.0819  0.70284  0.28604     N
N       0.0819  0.78604  0.70284     N
N       0.0819  0.96396  0.04716     N
H       0.0866   0.0169   0.9883     H
H       0.0866   0.2331   0.2617     H
H       0.0866   0.2617   0.7331     H
H       0.0866   0.4883   0.0169     H
H       0.0866   0.5169   0.4883     H
H       0.0866   0.7331   0.7617     H
H       0.0866   0.7617   0.2331     H
H       0.0866   0.9883   0.5169     H
N      0.08707  0.33019   0.3603     N
N      0.08707   0.3603  0.83019     N
N      0.08707   0.3897  0.91981     N
N      0.08707  0.41981   0.3897     N
N      0.08707  0.83019   0.8603     N
N      0.08707   0.8603  0.33019     N
N      0.08707   0.8897  0.41981     N
N      0.08707  0.91981   0.8897     N
H       0.0931   0.2882   0.4061     H
H       0.0931   0.3439   0.9618     H
H       0.0931   0.4061   0.7882     H
H       0.0931   0.4618   0.3439     H
H       0.0931   0.7882   0.9061     H
H       0.0931   0.8439   0.4618     H
H       0.0931   0.9061   0.2882     H
H       0.0931   0.9618   0.8439     H
H       0.0939   0.0382   0.8431     H
H       0.0939   0.2118   0.4069     H
H       0.0939   0.3431   0.0382     H
H       0.0939   0.4069   0.7118     H
H       0.0939   0.5382   0.3431     H
H       0.0939   0.7118   0.9069     H
H       0.0939   0.8431   0.5382     H
H       0.0939   0.9069   0.2118     H
H       0.1019   0.0616   0.9425     H
H       0.1019   0.1884   0.3075     H
H       0.1019   0.3075   0.6884     H
H       0.1019   0.4425   0.0616     H
H       0.1019   0.5616   0.4425     H
H       0.1019   0.6884   0.8075     H
H       0.1019   0.8075   0.1884     H
H       0.1019   0.9425   0.5616     H
N       0.1103  0.08019  0.41293     N
N       0.1103  0.16981  0.83707     N
N       0.1103  0.33707  0.16981     N
N       0.1103  0.41293  0.58019     N
N       0.1103  0.58019  0.91293     N
N       0.1103  0.66981  0.33707     N
N       0.1103  0.83707  0.66981     N
N       0.1103  0.91293  0.08019     N
C       0.1133    0.024   0.4503     C
C       0.1133    0.226   0.7997     C
C       0.1133   0.2997    0.226     C
C       0.1133   0.4503    0.524     C
C       0.1133    0.524   0.9503     C
C       0.1133    0.726   0.2997     C
C       0.1133   0.7997    0.726     C
C       0.1133   0.9503    0.024     C
C       0.1184   0.0459   0.8295     C
C       0.1184   0.2041   0.4205     C
C       0.1184   0.3295   0.0459     C
C       0.1184   0.4205   0.7041     C
C       0.1184   0.5459   0.3295     C
C       0.1184   0.7041   0.9205     C
C       0.1184   0.8295   0.5459     C
C       0.1184   0.9205   0.2041     C
H       0.1209   0.2525   0.7903     H
H       0.1209   0.2903   0.2525     H
H       0.1209   0.4597   0.4975     H
H       0.1209   0.4975   0.9597     H
H       0.1209   0.7525   0.2903     H
H       0.1209   0.7903   0.7525     H
H       0.1209   0.9597   0.9975     H
H       0.1209   0.9975   0.4597     H
Zn       0.125    0.125    0.375    Zn
Zn       0.125    0.125    0.875    Zn
Zn       0.125    0.375    0.125    Zn
Zn       0.125    0.375    0.375    Zn
Zn       0.125    0.375    0.625    Zn
Zn       0.125    0.375    0.875    Zn
Zn       0.125    0.625    0.375    Zn
Zn       0.125    0.625    0.875    Zn
Zn       0.125    0.875    0.125    Zn
Zn       0.125    0.875    0.375    Zn
Zn       0.125    0.875    0.625    Zn
Zn       0.125    0.875    0.875    Zn
H       0.1291   0.2525   0.4597     H
H       0.1291   0.2903   0.9975     H
H       0.1291   0.4597   0.7525     H
H       0.1291   0.4975   0.2903     H
H       0.1291   0.7525   0.9597     H
H       0.1291   0.7903   0.4975     H
H       0.1291   0.9597   0.2525     H
H       0.1291   0.9975   0.7903     H
C       0.1316   0.0459   0.4205     C
C       0.1316   0.2041   0.8295     C
C       0.1316   0.3295   0.2041     C
C       0.1316   0.4205   0.5459     C
C       0.1316   0.5459   0.9205     C
C       0.1316   0.7041   0.3295     C
C       0.1316   0.8295   0.7041     C
C       0.1316   0.9205   0.0459     C
C       0.1367    0.024   0.7997     C
C       0.1367    0.226   0.4503     C
C       0.1367   0.2997    0.024     C
C       0.1367   0.4503    0.726     C
C       0.1367    0.524   0.2997     C
C       0.1367    0.726   0.9503     C
C       0.1367   0.7997    0.524     C
C       0.1367   0.9503    0.226     C
N       0.1397  0.08019  0.83707     N
N       0.1397  0.16981  0.41293     N
N       0.1397  0.33707  0.08019     N
N       0.1397  0.41293  0.66981     N
N       0.1397  0.58019  0.33707     N
N       0.1397  0.66981  0.91293     N
N       0.1397  0.83707  0.58019     N
N       0.1397  0.91293  0.16981     N
H       0.1481   0.0616   0.3075     H
H       0.1481   0.1884   0.9425     H
H       0.1481   0.3075   0.5616     H
H       0.1481   0.4425   0.1884     H
H       0.1481   0.5616   0.8075     H
H       0.1481   0.6884   0.4425     H
H       0.1481   0.8075   0.0616     H
H       0.1481   0.9425   0.6884     H
H       0.1561   0.0382   0.4069     H
H       0.1561   0.2118   0.8431     H
H       0.1561   0.3431   0.2118     H
H       0.1561   0.4069   0.5382     H
H       0.1561   0.5382   0.9069     H
H       0.1561   0.7118   0.3431     H
H       0.1561   0.8431   0.7118     H
H       0.1561   0.9069   0.0382     H
H       0.1569   0.2882   0.8439     H
H       0.1569   0.3439   0.2882     H
H       0.1569   0.4061   0.4618     H
H       0.1569   0.4618   0.9061     H
H       0.1569   0.7882   0.3439     H
H       0.1569   0.8439   0.7882     H
H       0.1569   0.9061   0.9618     H
H       0.1569   0.9618   0.4061     H
N      0.16293  0.33019   0.8897     N
N      0.16293   0.3603  0.41981     N
N      0.16293   0.3897  0.33019     N
N      0.16293  0.41981   0.8603     N
N      0.16293  0.83019   0.3897     N
N      0.16293   0.8603  0.91981     N
N      0.16293   0.8897  0.83019     N
N      0.16293  0.91981   0.3603     N
H       0.1634   0.0169   0.2617     H
H       0.1634   0.2331   0.9883     H
H       0.1634   0.2617   0.5169     H
H       0.1634   0.4883   0.2331     H
H       0.1634   0.5169   0.7617     H
H       0.1634   0.7331   0.4883     H
H       0.1634   0.7617   0.0169     H
H       0.1634   0.9883   0.7331     H
N       0.1681  0.04716  0.78604     N
N       0.1681  0.20284  0.46396     N
N       0.1681  0.28604  0.04716     N
N       0.1681  0.46396  0.70284     N
N       0.1681  0.54716  0.28604     N
N       0.1681  0.70284  0.96396     N
N       0.1681  0.78604  0.54716     N
N       0.1681  0.96396  0.20284     N
C      0.16887   0.0805  0.81001     C
C      0.16887   0.1695  0.43999     C
C      0.16887  0.31001   0.0805     C
C      0.16887  0.43999   0.6695     C
C      0.16887   0.5805  0.31001     C
C      0.16887   0.6695  0.93999     C
C      0.16887  0.81001   0.5805     C
C      0.16887  0.93999   0.1695     C
C       0.1695  0.08113  0.31001     C
C       0.1695  0.16887  0.93999     C
C       0.1695  0.31001  0.58113     C
C       0.1695  0.43999  0.16887     C
C       0.1695  0.58113  0.81001     C
C       0.1695  0.66887  0.43999     C
C       0.1695  0.81001  0.08113     C
C       0.1695  0.93999  0.66887     C
N      0.16981   0.1103  0.33707     N
N      0.16981   0.1397  0.91293     N
N      0.16981  0.33707   0.6103     N
N      0.16981  0.41293   0.1397     N
N      0.16981   0.6103  0.83707     N
N      0.16981   0.6397  0.41293     N
N      0.16981  0.83707   0.1103     N
N      0.16981  0.91293   0.6397     N
C       0.1705   0.2959   0.8684     C
C       0.1705   0.3684   0.2959     C
C       0.1705   0.3816   0.4541     C
C       0.1705   0.4541   0.8816     C
C       0.1705   0.7959   0.3684     C
C       0.1705   0.8684   0.7959     C
C       0.1705   0.8816   0.9541     C
C       0.1705   0.9541   0.3816     C
C       0.1861  0.00563   0.7275     C
C       0.1861   0.0225  0.24437     C
C       0.1861   0.2275  0.00563     C
C       0.1861  0.24437   0.5225     C
C       0.1861  0.50563   0.2275     C
C       0.1861   0.5225  0.74437     C
C       0.1861   0.7275  0.50563     C
C       0.1861  0.74437   0.0225     C
H       0.1884   0.1019   0.8075     H
H       0.1884   0.1481   0.4425     H
H       0.1884   0.3075   0.1019     H
H       0.1884   0.4425   0.6481     H
H       0.1884   0.6019   0.3075     H
H       0.1884   0.6481   0.9425     H
H       0.1884   0.8075   0.6019     H
H       0.1884   0.9425   0.1481     H
C      0.18999   0.3305  0.91887     C
C      0.18999  0.33113   0.4195     C
C      0.18999  0.41887   0.3305     C
C      0.18999   0.4195  0.83113     C
C      0.18999   0.8305  0.41887     C
C      0.18999  0.83113   0.9195     C
C      0.18999  0.91887   0.8305     C
C      0.18999   0.9195  0.33113     C
H       0.1925   0.3116   0.3981     H
H       0.1925   0.3519   0.9384     H
H       0.1925   0.3981   0.8116     H
H       0.1925   0.4384   0.3519     H
H       0.1925   0.8116   0.8981     H
H       0.1925   0.8519   0.4384     H
H       0.1925   0.8981   0.3116     H
H       0.1925   0.9384   0.8519     H
C       0.1942   0.0387   0.7522     C
C       0.1942   0.2113   0.4978     C
C       0.1942   0.2522   0.0387     C
C       0.1942   0.4978   0.7113     C
C       0.1942   0.5387   0.2522     C
C       0.1942   0.7113   0.9978     C
C       0.1942   0.7522   0.5387     C
C       0.1942   0.9978   0.2113     C
C       0.2003    0.274   0.8867     C
C       0.2003   0.3633    0.476     C
C       0.2003   0.3867    0.274     C
C       0.2003    0.476   0.8633     C
C       0.2003    0.774   0.3867     C
C       0.2003   0.8633    0.976     C
C       0.2003   0.8867    0.774     C
C       0.2003    0.976   0.3633     C
N      0.20284   0.0819  0.28604     N
N      0.20284   0.1681  0.96396     N
N      0.20284  0.28604   0.5819     N
N      0.20284  0.46396   0.1681     N
N      0.20284   0.5819  0.78604     N
N      0.20284   0.6681  0.46396     N
N      0.20284  0.78604   0.0819     N
N      0.20284  0.96396   0.6681     N
C       0.2041   0.1184   0.9205     C
C       0.2041   0.1316   0.3295     C
C       0.2041   0.3295   0.6316     C
C       0.2041   0.4205   0.1184     C
C       0.2041   0.6184   0.4205     C
C       0.2041   0.6316   0.8295     C
C       0.2041   0.8295   0.1316     C
C       0.2041   0.9205   0.6184     C
H       0.2097   0.0025   0.3709     H
H       0.2097   0.2475   0.8791     H
H       0.2097   0.3709   0.5025     H
H       0.2097   0.3791   0.2475     H
H       0.2097   0.5025   0.8709     H
H       0.2097   0.7475   0.3791     H
H       0.2097   0.8709   0.0025     H
H       0.2097   0.8791   0.7475     H
C       0.2113   0.0558   0.2522     C
C       0.2113   0.1942   0.9978     C
C       0.2113   0.2522   0.5558     C
C       0.2113   0.4978   0.1942     C
C       0.2113   0.5558   0.7522     C
C       0.2113   0.6942   0.4978     C
C       0.2113   0.7522   0.0558     C
C       0.2113   0.9978   0.6942     C
H       0.2118   0.0939   0.9069     H
H       0.2118   0.1561   0.3431     H
H       0.2118   0.3431   0.6561     H
H       0.2118   0.4069   0.0939     H
H       0.2118   0.5939   0.4069     H
H       0.2118   0.6561   0.8431     H
H       0.2118   0.8431   0.1561     H
H       0.2118   0.9069   0.5939     H
N      0.21396  0.29716   0.9181     N
N      0.21396   0.3319  0.45284     N
N      0.21396   0.4181  0.29716     N
N      0.21396  0.45284   0.8319     N
N      0.21396  0.79716   0.4181     N
N      0.21396   0.8319  0.95284     N
N      0.21396   0.9181  0.79716     N
N      0.21396  0.95284   0.3319     N
C        0.226   0.1133   0.2997     C
C        0.226   0.1367   0.9503     C
C        0.226   0.2997   0.6133     C
C        0.226   0.4503   0.1367     C
C        0.226   0.6133   0.7997     C
C        0.226   0.6367   0.4503     C
C        0.226   0.7997   0.1133     C
C        0.226   0.9503   0.6367     C
C       0.2275  0.00563   0.1861     C
C       0.2275   0.0639  0.74437     C
C       0.2275   0.1861  0.50563     C
C       0.2275  0.24437   0.0639     C
C       0.2275  0.50563   0.6861     C
C       0.2275   0.5639  0.24437     C
C       0.2275   0.6861  0.00563     C
C       0.2275  0.74437   0.5639     C
H       0.2331   0.0866   0.7617     H
H       0.2331   0.1634   0.4883     H
H       0.2331   0.2617   0.0866     H
H       0.2331   0.4883   0.6634     H
H       0.2331   0.5866   0.2617     H
H       0.2331   0.6634   0.9883     H
H       0.2331   0.7617   0.5866     H
H       0.2331   0.9883   0.1634     H
H       0.2383   0.2669   0.4134     H
H       0.2383   0.3366   0.9831     H
H       0.2383   0.4134   0.7669     H
H       0.2383   0.4831   0.3366     H
H       0.2383   0.7669   0.9134     H
H       0.2383   0.8366   0.4831     H
H       0.2383   0.9134   0.2669     H
H       0.2383   0.9831   0.8366     H
C      0.24437   0.0225   0.6861     C
C      0.24437   0.0639   0.2275     C
C      0.24437   0.1861   0.0225     C
C      0.24437   0.2275   0.5639     C
C      0.24437   0.5225   0.1861     C
C      0.24437   0.5639   0.7275     C
C      0.24437   0.6861   0.5225     C
C      0.24437   0.7275   0.0639     C
H       0.2475   0.0403   0.8709     H
H       0.2475   0.2097   0.3791     H
H       0.2475   0.3709   0.0403     H
H       0.2475   0.3791   0.7097     H
H       0.2475   0.5403   0.3709     H
H       0.2475   0.7097   0.8791     H
H       0.2475   0.8709   0.5403     H
H       0.2475   0.8791   0.2097     H
C       0.2478   0.2887   0.9442     C
C       0.2478   0.3058   0.4613     C
C       0.2478   0.4442   0.2887     C
C       0.2478   0.4613   0.8058     C
C       0.2478   0.7887   0.4442     C
C       0.2478   0.8058   0.9613     C
C       0.2478   0.9442   0.7887     C
C       0.2478   0.9613   0.3058     C
C       0.2522   0.0387   0.1942     C
C       0.2522   0.0558   0.7113     C
C       0.2522   0.1942   0.5387     C
C       0.2522   0.2113   0.0558     C
C       0.2522   0.5387   0.6942     C
C       0.2522   0.5558   0.2113     C
C       0.2522   0.6942   0.0387     C
C       0.2522   0.7113   0.5558     C
H       0.2525   0.1209   0.2903     H
H       0.2525   0.1291   0.9597     H
H       0.2525   0.2903   0.6209     H
H       0.2525   0.4597   0.1291     H
H       0.2525   0.6209   0.7903     H
H       0.2525   0.6291   0.4597     H
H       0.2525   0.7903   0.1209     H
H       0.2525   0.9597   0.6291     H
C      0.25563   0.2725   0.4361     C
C      0.25563   0.3139   0.9775     C
C      0.25563   0.4361   0.7725     C
C      0.25563   0.4775   0.3139     C
C      0.25563   0.7725   0.9361     C
C      0.25563   0.8139   0.4775     C
C      0.25563   0.9361   0.2725     C
C      0.25563   0.9775   0.8139     C
H       0.2617   0.0169   0.6634     H
H       0.2617   0.0866   0.2331     H
H       0.2617   0.1634   0.0169     H
H       0.2617   0.2331   0.5866     H
H       0.2617   0.5169   0.1634     H
H       0.2617   0.5866   0.7331     H
H       0.2617   0.6634   0.5169     H
H       0.2617   0.7331   0.0866     H
H       0.2669   0.0117   0.3366     H
H       0.2669   0.2383   0.9134     H
H       0.2669   0.3366   0.5117     H
H       0.2669   0.4134   0.2383     H
H       0.2669   0.5117   0.8366     H
H       0.2669   0.7383   0.4134     H
H       0.2669   0.8366   0.0117     H
H       0.2669   0.9134   0.7383     H
C       0.2725  0.25563   0.9361     C
C       0.2725   0.3139  0.49437     C
C       0.2725   0.4361  0.25563     C
C       0.2725  0.49437   0.8139     C
C       0.2725  0.75563   0.4361     C
C       0.2725   0.8139  0.99437     C
C       0.2725   0.9361  0.75563     C
C       0.2725  0.99437   0.3139     C
C        0.274   0.0497   0.8633     C
C        0.274   0.2003   0.3867     C
C        0.274   0.3633   0.0497     C
C        0.274   0.3867   0.7003     C
C        0.274   0.5497   0.3633     C
C        0.274   0.7003   0.8867     C
C        0.274   0.8633   0.5497     C
C        0.274   0.8867   0.2003     C
N      0.28604  0.04716   0.1681     N
N      0.28604   0.0819  0.70284     N
N      0.28604   0.1681  0.54716     N
N      0.28604  0.20284   0.0819     N
N      0.28604  0.54716   0.6681     N
N      0.28604   0.5819  0.20284     N
N      0.28604   0.6681  0.04716     N
N      0.28604  0.70284   0.5819     N
H       0.2882   0.0931   0.9061     H
H       0.2882   0.1569   0.3439     H
H       0.2882   0.3439   0.6569     H
H       0.2882   0.4061   0.0931     H
H       0.2882   0.5931   0.4061     H
H       0.2882   0.6569   0.8439     H
H       0.2882   0.8439   0.1569     H
H       0.2882   0.9061   0.5931     H
C       0.2887   0.0022   0.8058     C
C       0.2887   0.2478   0.4442     C
C       0.2887   0.3058   0.0022     C
C       0.2887   0.4442   0.7478     C
C       0.2887   0.5022   0.3058     C
C       0.2887   0.7478   0.9442     C
C       0.2887   0.8058   0.5022     C
C       0.2887   0.9442   0.2478     C
H       0.2903   0.1209   0.7525     H
H       0.2903   0.1291   0.4975     H
H       0.2903   0.2525   0.1209     H
H       0.2903   0.4975   0.6291     H
H       0.2903   0.6209   0.2525     H
H       0.2903   0.6291   0.9975     H
H       0.2903   0.7525   0.6209     H
H       0.2903   0.9975   0.1291     H
C       0.2959   0.0795   0.8816     C
C       0.2959   0.1705   0.3684     C
C       0.2959   0.3684   0.6705     C
C       0.2959   0.3816   0.0795     C
C       0.2959   0.5795   0.3816     C
C       0.2959   0.6705   0.8684     C
C       0.2959   0.8684   0.1705     C
C       0.2959   0.8816   0.5795     C
N      0.29716  0.03604   0.8319     N
N      0.29716  0.21396   0.4181     N
N      0.29716   0.3319  0.03604     N
N      0.29716   0.4181  0.71396     N
N      0.29716  0.53604   0.3319     N
N      0.29716  0.71396   0.9181     N
N      0.29716   0.8319  0.53604     N
N      0.29716   0.9181  0.21396     N
C       0.2997    0.024   0.1367     C
C       0.2997   0.1133    0.726     C
C       0.2997   0.1367    0.524     C
C       0.2997    0.226   0.1133     C
C       0.2997    0.524   0.6367     C
C       0.2997   0.6133    0.226     C
C       0.2997   0.6367    0.024     C
C       0.2997    0.726   0.6133     C
C       0.3058   0.0022   0.2887     C
C       0.3058   0.2478   0.9613     C
C       0.3058   0.2887   0.5022     C
C       0.3058   0.4613   0.2478     C
C       0.3058   0.5022   0.7887     C
C       0.3058   0.7478   0.4613     C
C       0.3058   0.7887   0.0022     C
C       0.3058   0.9613   0.7478     C
H       0.3075   0.0616   0.6481     H
H       0.3075   0.1019   0.1884     H
H       0.3075   0.1481   0.0616     H
H       0.3075   0.1884   0.6019     H
H       0.3075   0.5616   0.1481     H
H       0.3075   0.6019   0.6884     H
H       0.3075   0.6481   0.5616     H
H       0.3075   0.6884   0.1019     H
C      0.31001   0.0805  0.16887     C
C      0.31001  0.08113   0.6695     C
C      0.31001  0.16887   0.5805     C
C      0.31001   0.1695  0.08113     C
C      0.31001   0.5805  0.66887     C
C      0.31001  0.58113   0.1695     C
C      0.31001  0.66887   0.0805     C
C      0.31001   0.6695  0.58113     C
H       0.3116   0.0575   0.3519     H
H       0.3116   0.1925   0.8981     H
H       0.3116   0.3519   0.5575     H
H       0.3116   0.3981   0.1925     H
H       0.3116   0.5575   0.8519     H
H       0.3116   0.6925   0.3981     H
H       0.3116   0.8519   0.0575     H
H       0.3116   0.8981   0.6925     H
C       0.3139  0.25563   0.4775     C
C       0.3139   0.2725  0.99437     C
C       0.3139   0.4775  0.75563     C
C       0.3139  0.49437   0.2725     C
C       0.3139  0.75563   0.9775     C
C       0.3139   0.7725  0.49437     C
C       0.3139   0.9775  0.25563     C
C       0.3139  0.99437   0.7725     C
C       0.3295   0.0459   0.1184     C
C       0.3295   0.1184   0.5459     C
C       0.3295   0.1316   0.7041     C
C       0.3295   0.2041   0.1316     C
C       0.3295   0.5459   0.6184     C
C       0.3295   0.6184   0.0459     C
C       0.3295   0.6316   0.2041     C
C       0.3295   0.7041   0.6316     C
N      0.33019  0.08707   0.8603     N
N      0.33019  0.16293   0.3897     N
N      0.33019   0.3603  0.08707     N
N      0.33019   0.3897  0.66293     N
N      0.33019  0.58707   0.3603     N
N      0.33019  0.66293   0.8897     N
N      0.33019   0.8603  0.58707     N
N      0.33019   0.8897  0.16293     N
C       0.3305  0.06001  0.83113     C
C       0.3305  0.18999  0.41887     C
C       0.3305  0.33113  0.06001     C
C       0.3305  0.41887  0.68999     C
C       0.3305  0.56001  0.33113     C
C       0.3305  0.68999  0.91887     C
C       0.3305  0.83113  0.56001     C
C       0.3305  0.91887  0.18999     C
C      0.33113  0.06001   0.3305     C
C      0.33113  0.18999   0.9195     C
C      0.33113   0.3305  0.56001     C
C      0.33113   0.4195  0.18999     C
C      0.33113  0.56001   0.8305     C
C      0.33113  0.68999   0.4195     C
C      0.33113   0.8305  0.06001     C
C      0.33113   0.9195  0.68999     C
N       0.3319  0.03604  0.29716     N
N       0.3319  0.21396  0.95284     N
N       0.3319  0.29716  0.53604     N
N       0.3319  0.45284  0.21396     N
N       0.3319  0.53604  0.79716     N
N       0.3319  0.71396  0.45284     N
N       0.3319  0.79716  0.03604     N
N       0.3319  0.95284  0.71396     N
H       0.3366   0.0117   0.7669     H
H       0.3366   0.2383   0.4831     H
H       0.3366   0.2669   0.0117     H
H       0.3366   0.4831   0.7383     H
H       0.3366   0.5117   0.2669     H
H       0.3366   0.7383   0.9831     H
H       0.3366   0.7669   0.5117     H
H       0.3366   0.9831   0.2383     H
N      0.33707  0.08019   0.1397     N
N      0.33707   0.1103  0.66981     N
N      0.33707   0.1397  0.58019     N
N      0.33707  0.16981   0.1103     N
N      0.33707  0.58019   0.6397     N
N      0.33707   0.6103  0.16981     N
N      0.33707   0.6397  0.08019     N
N      0.33707  0.66981   0.6103     N
H       0.3431   0.0382   0.0939     H
H       0.3431   0.0939   0.5382     H
H       0.3431   0.1561   0.7118     H
H       0.3431   0.2118   0.1561     H
H       0.3431   0.5382   0.5939     H
H       0.3431   0.5939   0.0382     H
H       0.3431   0.6561   0.2118     H
H       0.3431   0.7118   0.6561     H
H       0.3439   0.0931   0.4618     H
H       0.3439   0.1569   0.7882     H
H       0.3439   0.2882   0.1569     H
H       0.3439   0.4618   0.5931     H
H       0.3439   0.5931   0.9618     H
H       0.3439   0.6569   0.2882     H
H       0.3439   0.7882   0.6569     H
H       0.3439   0.9618   0.0931     H
H       0.3519   0.0575   0.8116     H
H       0.3519   0.1925   0.4384     H
H       0.3519   0.3116   0.0575     H
H       0.3519   0.4384   0.6925     H
H       0.3519   0.5575   0.3116     H
H       0.3519   0.6925   0.9384     H
H       0.3519   0.8116   0.5575     H
H       0.3519   0.9384   0.1925     H
N       0.3603  0.08707  0.33019     N
N       0.3603  0.16293  0.91981     N
N       0.3603  0.33019  0.58707     N
N       0.3603  0.41981  0.16293     N
N       0.3603  0.58707  0.83019     N
N       0.3603  0.66293  0.41981     N
N       0.3603  0.83019  0.08707     N
N       0.3603  0.91981  0.66293     N
C       0.3633   0.0497    0.274     C
C       0.3633   0.2003    0.976     C
C       0.3633    0.274   0.5497     C
C       0.3633    0.476   0.2003     C
C       0.3633   0.5497    0.774     C
C       0.3633   0.7003    0.476     C
C       0.3633    0.774   0.0497     C
C       0.3633    0.976   0.7003     C
C       0.3684   0.0795   0.4541     C
C       0.3684   0.1705   0.7959     C
C       0.3684   0.2959   0.1705     C
C       0.3684   0.4541   0.5795     C
C       0.3684   0.5795   0.9541     C
C       0.3684   0.6705   0.2959     C
C       0.3684   0.7959   0.6705     C
C       0.3684   0.9541   0.0795     C
H       0.3709   0.0025   0.7097     H
H       0.3709   0.0403   0.2475     H
H       0.3709   0.2097   0.0025     H
H       0.3709   0.2475   0.5403     H
H       0.3709   0.5025   0.2097     H
H       0.3709   0.5403   0.7475     H
H       0.3709   0.7097   0.5025     H
H       0.3709   0.7475   0.0403     H
Zn       0.375    0.125    0.125    Zn
Zn       0.375    0.125    0.375    Zn
Zn       0.375    0.125    0.625    Zn
Zn       0.375    0.125    0.875    Zn
Zn       0.375    0.375    0.125    Zn
Zn       0.375    0.375    0.625    Zn
Zn       0.375    0.625    0.125    Zn
Zn       0.375    0.625    0.375    Zn
Zn       0.375    0.625    0.625    Zn
Zn       0.375    0.625    0.875    Zn
Zn       0.375    0.875    0.125    Zn
Zn       0.375    0.875    0.625    Zn
H       0.3791   0.0025   0.0403     H
H       0.3791   0.0403   0.5025     H
H       0.3791   0.2097   0.7475     H
H       0.3791   0.2475   0.2097     H
H       0.3791   0.5025   0.5403     H
H       0.3791   0.5403   0.0025     H
H       0.3791   0.7097   0.2475     H
H       0.3791   0.7475   0.7097     H
C       0.3816   0.0795   0.2959     C
C       0.3816   0.1705   0.9541     C
C       0.3816   0.2959   0.5795     C
C       0.3816   0.4541   0.1705     C
C       0.3816   0.5795   0.7959     C
C       0.3816   0.6705   0.4541     C
C       0.3816   0.7959   0.0795     C
C       0.3816   0.9541   0.6705     C
C       0.3867   0.0497    0.476     C
C       0.3867   0.2003    0.774     C
C       0.3867    0.274   0.2003     C
C       0.3867    0.476   0.5497     C
C       0.3867   0.5497    0.976     C
C       0.3867   0.7003    0.274     C
C       0.3867    0.774   0.7003     C
C       0.3867    0.976   0.0497     C
N       0.3897  0.08707  0.41981     N
N       0.3897  0.16293  0.83019     N
N       0.3897  0.33019  0.16293     N
N       0.3897  0.41981  0.58707     N
N       0.3897  0.58707  0.91981     N
N       0.3897  0.66293  0.33019     N
N       0.3897  0.83019  0.66293     N
N       0.3897  0.91981  0.08707     N
H       0.3981   0.0575   0.9384     H
H       0.3981   0.1925   0.3116     H
H       0.3981   0.3116   0.6925     H
H       0.3981   0.4384   0.0575     H
H       0.3981   0.5575   0.4384     H
H       0.3981   0.6925   0.8116     H
H       0.3981   0.8116   0.1925     H
H       0.3981   0.9384   0.5575     H
H       0.4061   0.0931   0.2882     H
H       0.4061   0.1569   0.9618     H
H       0.4061   0.2882   0.5931     H
H       0.4061   0.4618   0.1569     H
H       0.4061   0.5931   0.7882     H
H       0.4061   0.6569   0.4618     H
H       0.4061   0.7882   0.0931     H
H       0.4061   0.9618   0.6569     H
H       0.4069   0.0382   0.6561     H
H       0.4069   0.0939   0.2118     H
H       0.4069   0.1561   0.0382     H
H       0.4069   0.2118   0.5939     H
H       0.4069   0.5382   0.1561     H
H       0.4069   0.5939   0.7118     H
H       0.4069   0.6561   0.5382     H
H       0.4069   0.7118   0.0939     H
N      0.41293  0.08019   0.6103     N
N      0.41293   0.1103  0.08019     N
N      0.41293   0.1397  0.16981     N
N      0.41293  0.16981   0.6397     N
N      0.41293  0.58019   0.1103     N
N      0.41293   0.6103  0.58019     N
N      0.41293   0.6397  0.66981     N
N      0.41293  0.66981   0.1397     N
H       0.4134   0.0117   0.9831     H
H       0.4134   0.2383   0.2669     H
H       0.4134   0.2669   0.7383     H
H       0.4134   0.4831   0.0117     H
H       0.4134   0.5117   0.4831     H
H       0.4134   0.7383   0.7669     H
H       0.4134   0.7669   0.2383     H
H       0.4134   0.9831   0.5117     H
N       0.4181  0.03604  0.45284     N
N       0.4181  0.21396  0.79716     N
N       0.4181  0.29716  0.21396     N
N       0.4181  0.45284  0.53604     N
N       0.4181  0.53604  0.95284     N
N       0.4181  0.71396  0.29716     N
N       0.4181  0.79716  0.71396     N
N       0.4181  0.95284  0.03604     N
C      0.41887  0.06001   0.4195     C
C      0.41887  0.18999   0.8305     C
C      0.41887   0.3305  0.18999     C
C      0.41887   0.4195  0.56001     C
C      0.41887  0.56001   0.9195     C
C      0.41887  0.68999   0.3305     C
C      0.41887   0.8305  0.68999     C
C      0.41887   0.9195  0.06001     C
C       0.4195  0.06001  0.91887     C
C       0.4195  0.18999  0.33113     C
C       0.4195  0.33113  0.68999     C
C       0.4195  0.41887  0.06001     C
C       0.4195  0.56001  0.41887     C
C       0.4195  0.68999  0.83113     C
C       0.4195  0.83113  0.18999     C
C       0.4195  0.91887  0.56001     C
N      0.41981  0.08707   0.8897     N
N      0.41981  0.16293   0.3603     N
N      0.41981   0.3603  0.66293     N
N      0.41981   0.3897  0.08707     N
N      0.41981  0.58707   0.3897     N
N      0.41981  0.66293   0.8603     N
N      0.41981   0.8603  0.16293     N
N      0.41981   0.8897  0.58707     N
C       0.4205   0.0459   0.6316     C
C       0.4205   0.1184   0.2041     C
C       0.4205   0.1316   0.0459     C
C       0.4205   0.2041   0.6184     C
C       0.4205   0.5459   0.1316     C
C       0.4205   0.6184   0.7041     C
C       0.4205   0.6316   0.5459     C
C       0.4205   0.7041   0.1184     C
C       0.4361  0.25563   0.2725     C
C       0.4361   0.2725  0.75563     C
C       0.4361   0.4775  0.99437     C
C       0.4361  0.49437   0.4775     C
C       0.4361  0.75563   0.7725     C
C       0.4361   0.7725  0.25563     C
C       0.4361   0.9775  0.49437     C
C       0.4361  0.99437   0.9775     C
H       0.4384   0.0575   0.3981     H
H       0.4384   0.1925   0.8519     H
H       0.4384   0.3519   0.1925     H
H       0.4384   0.3981   0.5575     H
H       0.4384   0.5575   0.8981     H
H       0.4384   0.6925   0.3519     H
H       0.4384   0.8519   0.6925     H
H       0.4384   0.8981   0.0575     H
C      0.43999   0.0805  0.58113     C
C      0.43999  0.08113   0.0805     C
C      0.43999  0.16887   0.1695     C
C      0.43999   0.1695  0.66887     C
C      0.43999   0.5805  0.08113     C
C      0.43999  0.58113   0.5805     C
C      0.43999  0.66887   0.6695     C
C      0.43999   0.6695  0.16887     C
H       0.4425   0.0616   0.1019     H
H       0.4425   0.1019   0.5616     H
H       0.4425   0.1481   0.6884     H
H       0.4425   0.1884   0.1481     H
H       0.4425   0.5616   0.6019     H
H       0.4425   0.6019   0.0616     H
H       0.4425   0.6481   0.1884     H
H       0.4425   0.6884   0.6481     H
C       0.4442   0.0022   0.4613     C
C       0.4442   0.2478   0.7887     C
C       0.4442   0.2887   0.2478     C
C       0.4442   0.4613   0.5022     C
C       0.4442   0.5022   0.9613     C
C       0.4442   0.7478   0.2887     C
C       0.4442   0.7887   0.7478     C
C       0.4442   0.9613   0.0022     C
C       0.4503    0.024   0.6133     C
C       0.4503   0.1133    0.024     C
C       0.4503   0.1367    0.226     C
C       0.4503    0.226   0.6367     C
C       0.4503    0.524   0.1133     C
C       0.4503   0.6133    0.524     C
C       0.4503   0.6367    0.726     C
C       0.4503    0.726   0.1367     C
N      0.45284  0.03604   0.9181     N
N      0.45284  0.21396   0.3319     N
N      0.45284   0.3319  0.71396     N
N      0.45284   0.4181  0.03604     N
N      0.45284  0.53604   0.4181     N
N      0.45284  0.71396   0.8319     N
N      0.45284   0.8319  0.21396     N
N      0.45284   0.9181  0.53604     N
C       0.4541   0.0795   0.8684     C
C       0.4541   0.1705   0.3816     C
C       0.4541   0.3684   0.0795     C
C       0.4541   0.3816   0.6705     C
C       0.4541   0.5795   0.3684     C
C       0.4541   0.6705   0.8816     C
C       0.4541   0.8684   0.5795     C
C       0.4541   0.8816   0.1705     C
H       0.4597   0.1209   0.9975     H
H       0.4597   0.1291   0.2525     H
H       0.4597   0.2525   0.6291     H
H       0.4597   0.4975   0.1209     H
H       0.4597   0.6209   0.4975     H
H       0.4597   0.6291   0.7525     H
H       0.4597   0.7525   0.1291     H
H       0.4597   0.9975   0.6209     H
C       0.4613   0.0022   0.9442     C
C       0.4613   0.2478   0.3058     C
C       0.4613   0.3058   0.7478     C
C       0.4613   0.4442   0.0022     C
C       0.4613   0.5022   0.4442     C
C       0.4613   0.7478   0.8058     C
C       0.4613   0.8058   0.2478     C
C       0.4613   0.9442   0.5022     C
H       0.4618   0.0931   0.8439     H
H       0.4618   0.1569   0.4061     H
H       0.4618   0.3439   0.0931     H
H       0.4618   0.4061   0.6569     H
H       0.4618   0.5931   0.3439     H
H       0.4618   0.6569   0.9061     H
H       0.4618   0.8439   0.5931     H
H       0.4618   0.9061   0.1569     H
N      0.46396  0.04716   0.5819     N
N      0.46396   0.0819  0.04716     N
N      0.46396   0.1681  0.20284     N
N      0.46396  0.20284   0.6681     N
N      0.46396  0.54716   0.0819     N
N      0.46396   0.5819  0.54716     N
N      0.46396   0.6681  0.70284     N
N      0.46396  0.70284   0.1681     N
C        0.476   0.0497   0.8867     C
C        0.476   0.2003   0.3633     C
C        0.476   0.3633   0.7003     C
C        0.476   0.3867   0.0497     C
C        0.476   0.5497   0.3867     C
C        0.476   0.7003   0.8633     C
C        0.476   0.8633   0.2003     C
C        0.476   0.8867   0.5497     C
C       0.4775  0.25563   0.8139     C
C       0.4775   0.3139  0.25563     C
C       0.4775   0.4361  0.49437     C
C       0.4775  0.49437   0.9361     C
C       0.4775  0.75563   0.3139     C
C       0.4775   0.8139  0.75563     C
C       0.4775   0.9361  0.99437     C
C       0.4775  0.99437   0.4361     C
H       0.4831   0.0117   0.4134     H
H       0.4831   0.2383   0.8366     H
H       0.4831   0.3366   0.2383     H
H       0.4831   0.4134   0.5117     H
H       0.4831   0.5117   0.9134     H
H       0.4831   0.7383   0.3366     H
H       0.4831   0.8366   0.7383     H
H       0.4831   0.9134   0.0117     H
H       0.4883   0.0169   0.0866     H
H       0.4883   0.0866   0.5169     H
H       0.4883   0.1634   0.7331     H
H       0.4883   0.2331   0.1634     H
H       0.4883   0.5169   0.5866     H
H       0.4883   0.5866   0.0169     H
H       0.4883   0.6634   0.2331     H
H       0.4883   0.7331   0.6634     H
C      0.49437   0.2725   0.3139     C
C      0.49437   0.3139   0.7725     C
C      0.49437   0.4361   0.9775     C
C      0.49437   0.4775   0.4361     C
C      0.49437   0.7725   0.8139     C
C      0.49437   0.8139   0.2725     C
C      0.49437   0.9361   0.4775     C
C      0.49437   0.9775   0.9361     C
H       0.4975   0.1209   0.4597     H
H       0.4975   0.1291   0.7903     H
H       0.4975   0.2903   0.1291     H
H       0.4975   0.4597   0.6209     H
H       0.4975   0.6209   0.9597     H
H       0.4975   0.6291   0.2903     H
H       0.4975   0.7903   0.6291     H
H       0.4975   0.9597   0.1209     H
C       0.4978   0.0387   0.5558     C
C       0.4978   0.0558   0.0387     C
C       0.4978   0.1942   0.2113     C
C       0.4978   0.2113   0.6942     C
C       0.4978   0.5387   0.0558     C
C       0.4978   0.5558   0.5387     C
C       0.4978   0.6942   0.7113     C
C       0.4978   0.7113   0.1942     C
C       0.5022   0.2887   0.8058     C
C       0.5022   0.3058   0.2887     C
C       0.5022   0.4442   0.4613     C
C       0.5022   0.4613   0.9442     C
C       0.5022   0.7887   0.3058     C
C       0.5022   0.8058   0.7887     C
C       0.5022   0.9442   0.9613     C
C       0.5022   0.9613   0.4442     C
H       0.5025   0.0403   0.8791     H
H       0.5025   0.2097   0.3709     H
H       0.5025   0.3709   0.7097     H
H       0.5025   0.3791   0.0403     H
H       0.5025   0.5403   0.3791     H
H       0.5025   0.7097   0.8709     H
H       0.5025   0.8709   0.2097     H
H       0.5025   0.8791   0.5403     H
C      0.50563   0.0225   0.0639     C
C      0.50563   0.0639   0.5225     C
C      0.50563   0.1861   0.7275     C
C      0.50563   0.2275   0.1861     C
C      0.50563   0.5225   0.5639     C
C      0.50563   0.5639   0.0225     C
C      0.50563   0.6861   0.2275     C
C      0.50563   0.7275   0.6861     C
H       0.5117   0.2669   0.3366     H
H       0.5117   0.3366   0.7669     H
H       0.5117   0.4134   0.9831     H
H       0.5117   0.4831   0.4134     H
H       0.5117   0.7669   0.8366     H
H       0.5117   0.8366   0.2669     H
H       0.5117   0.9134   0.4831     H
H       0.5117   0.9831   0.9134     H
H       0.5169   0.0866   0.9883     H
H       0.5169   0.1634   0.2617     H
H       0.5169   0.2617   0.6634     H
H       0.5169   0.4883   0.0866     H
H       0.5169   0.5866   0.4883     H
H       0.5169   0.6634   0.7617     H
H       0.5169   0.7617   0.1634     H
H       0.5169   0.9883   0.5866     H
C       0.5225  0.00563   0.5639     C
C       0.5225   0.0639  0.00563     C
C       0.5225   0.1861  0.24437     C
C       0.5225  0.24437   0.6861     C
C       0.5225  0.50563   0.0639     C
C       0.5225   0.5639  0.50563     C
C       0.5225   0.6861  0.74437     C
C       0.5225  0.74437   0.1861     C
C        0.524   0.1133   0.4503     C
C        0.524   0.1367   0.7997     C
C        0.524   0.2997   0.1367     C
C        0.524   0.4503   0.6133     C
C        0.524   0.6133   0.9503     C
C        0.524   0.6367   0.2997     C
C        0.524   0.7997   0.6367     C
C        0.524   0.9503   0.1133     C
N      0.53604  0.29716   0.8319     N
N      0.53604   0.3319  0.29716     N
N      0.53604   0.4181  0.45284     N
N      0.53604  0.45284   0.9181     N
N      0.53604  0.79716   0.3319     N
N      0.53604   0.8319  0.79716     N
N      0.53604   0.9181  0.95284     N
N      0.53604  0.95284   0.4181     N
H       0.5382   0.0939   0.8431     H
H       0.5382   0.1561   0.4069     H
H       0.5382   0.3431   0.0939     H
H       0.5382   0.4069   0.6561     H
H       0.5382   0.5939   0.3431     H
H       0.5382   0.6561   0.9069     H
H       0.5382   0.8431   0.5939     H
H       0.5382   0.9069   0.1561     H
C       0.5387   0.0558   0.4978     C
C       0.5387   0.1942   0.7522     C
C       0.5387   0.2522   0.1942     C
C       0.5387   0.4978   0.5558     C
C       0.5387   0.5558   0.9978     C
C       0.5387   0.6942   0.2522     C
C       0.5387   0.7522   0.6942     C
C       0.5387   0.9978   0.0558     C
H       0.5403   0.0025   0.3791     H
H       0.5403   0.2475   0.8709     H
H       0.5403   0.3709   0.2475     H
H       0.5403   0.3791   0.5025     H
H       0.5403   0.5025   0.8791     H
H       0.5403   0.7475   0.3709     H
H       0.5403   0.8709   0.7475     H
H       0.5403   0.8791   0.0025     H
C       0.5459   0.1184   0.8295     C
C       0.5459   0.1316   0.4205     C
C       0.5459   0.3295   0.1184     C
C       0.5459   0.4205   0.6316     C
C       0.5459   0.6184   0.3295     C
C       0.5459   0.6316   0.9205     C
C       0.5459   0.8295   0.6184     C
C       0.5459   0.9205   0.1316     C
N      0.54716   0.0819  0.46396     N
N      0.54716   0.1681  0.78604     N
N      0.54716  0.28604   0.1681     N
N      0.54716  0.46396   0.5819     N
N      0.54716   0.5819  0.96396     N
N      0.54716   0.6681  0.28604     N
N      0.54716  0.78604   0.6681     N
N      0.54716  0.96396   0.0819     N
C       0.5497    0.274   0.8633     C
C       0.5497   0.3633    0.274     C
C       0.5497   0.3867    0.476     C
C       0.5497    0.476   0.8867     C
C       0.5497    0.774   0.3633     C
C       0.5497   0.8633    0.774     C
C       0.5497   0.8867    0.976     C
C       0.5497    0.976   0.3867     C
C       0.5558   0.0387   0.9978     C
C       0.5558   0.2113   0.2522     C
C       0.5558   0.2522   0.7113     C
C       0.5558   0.4978   0.0387     C
C       0.5558   0.5387   0.4978     C
C       0.5558   0.7113   0.7522     C
C       0.5558   0.7522   0.2113     C
C       0.5558   0.9978   0.5387     C
H       0.5575   0.3116   0.3519     H
H       0.5575   0.3519   0.8116     H
H       0.5575   0.3981   0.9384     H
H       0.5575   0.4384   0.3981     H
H       0.5575   0.8116   0.8519     H
H       0.5575   0.8519   0.3116     H
H       0.5575   0.8981   0.4384     H
H       0.5575   0.9384   0.8981     H
C      0.56001   0.3305  0.83113     C
C      0.56001  0.33113   0.3305     C
C      0.56001  0.41887   0.4195     C
C      0.56001   0.4195  0.91887     C
C      0.56001   0.8305  0.33113     C
C      0.56001  0.83113   0.8305     C
C      0.56001  0.91887   0.9195     C
C      0.56001   0.9195  0.41887     C
H       0.5616   0.1019   0.9425     H
H       0.5616   0.1481   0.3075     H
H       0.5616   0.3075   0.6481     H
H       0.5616   0.4425   0.1019     H
H       0.5616   0.6019   0.4425     H
H       0.5616   0.6481   0.8075     H
H       0.5616   0.8075   0.1481     H
H       0.5616   0.9425   0.6019     H
C       0.5639  0.00563   0.0225     C
C       0.5639   0.0225  0.50563     C
C       0.5639   0.2275  0.74437     C
C       0.5639  0.24437   0.2275     C
C       0.5639  0.50563   0.5225     C
C       0.5639   0.5225  0.00563     C
C       0.5639   0.7275  0.24437     C
C       0.5639  0.74437   0.7275     C
C       0.5795   0.2959   0.8816     C
C       0.5795   0.3684   0.4541     C
C       0.5795   0.3816   0.2959     C
C       0.5795   0.4541   0.8684     C
C       0.5795   0.7959   0.3816     C
C       0.5795   0.8684   0.9541     C
C       0.5795   0.8816   0.7959     C
C       0.5795   0.9541   0.3684     C
N      0.58019   0.1103  0.41293     N
N      0.58019   0.1397  0.83707     N
N      0.58019  0.33707   0.1397     N
N      0.58019  0.41293   0.6103     N
N      0.58019   0.6103  0.91293     N
N      0.58019   0.6397  0.33707     N
N      0.58019  0.83707   0.6397     N
N      0.58019  0.91293   0.1103     N
C       0.5805  0.08113  0.43999     C
C       0.5805  0.16887  0.81001     C
C       0.5805  0.31001  0.16887     C
C       0.5805  0.43999  0.58113     C
C       0.5805  0.58113  0.93999     C
C       0.5805  0.66887  0.31001     C
C       0.5805  0.81001  0.66887     C
C       0.5805  0.93999  0.08113     C
C      0.58113   0.0805  0.93999     C
C      0.58113   0.1695  0.31001     C
C      0.58113  0.31001   0.6695     C
C      0.58113  0.43999   0.0805     C
C      0.58113   0.5805  0.43999     C
C      0.58113   0.6695  0.81001     C
C      0.58113  0.81001   0.1695     C
C      0.58113  0.93999   0.5805     C
N       0.5819  0.04716  0.96396     N
N       0.5819  0.20284  0.28604     N
N       0.5819  0.28604  0.70284     N
N       0.5819  0.46396  0.04716     N
N       0.5819  0.54716  0.46396     N
N       0.5819  0.70284  0.78604     N
N       0.5819  0.78604  0.20284     N
N       0.5819  0.96396  0.54716     N
H       0.5866   0.0169   0.4883     H
H       0.5866   0.2331   0.7617     H
H       0.5866   0.2617   0.2331     H
H       0.5866   0.4883   0.5169     H
H       0.5866   0.5169   0.9883     H
H       0.5866   0.7331   0.2617     H
H       0.5866   0.7617   0.7331     H
H       0.5866   0.9883   0.0169     H
N      0.58707  0.33019   0.8603     N
N      0.58707   0.3603  0.33019     N
N      0.58707   0.3897  0.41981     N
N      0.58707  0.41981   0.8897     N
N      0.58707  0.83019   0.3603     N
N      0.58707   0.8603  0.83019     N
N      0.58707   0.8897  0.91981     N
N      0.58707  0.91981   0.3897     N
H       0.5931   0.2882   0.9061     H
H       0.5931   0.3439   0.4618     H
H       0.5931   0.4061   0.2882     H
H       0.5931   0.4618   0.8439     H
H       0.5931   0.7882   0.4061     H
H       0.5931   0.8439   0.9618     H
H       0.5931   0.9061   0.7882     H
H       0.5931   0.9618   0.3439     H
H       0.5939   0.0382   0.3431     H
H       0.5939   0.2118   0.9069     H
H       0.5939   0.3431   0.5382     H
H       0.5939   0.4069   0.2118     H
H       0.5939   0.5382   0.8431     H
H       0.5939   0.7118   0.4069     H
H       0.5939   0.8431   0.0382     H
H       0.5939   0.9069   0.7118     H
H       0.6019   0.0616   0.4425     H
H       0.6019   0.1884   0.8075     H
H       0.6019   0.3075   0.1884     H
H       0.6019   0.4425   0.5616     H
H       0.6019   0.5616   0.9425     H
H       0.6019   0.6884   0.3075     H
H       0.6019   0.8075   0.6884     H
H       0.6019   0.9425   0.0616     H
N       0.6103  0.08019  0.91293     N
N       0.6103  0.16981  0.33707     N
N       0.6103  0.33707  0.66981     N
N       0.6103  0.41293  0.08019     N
N       0.6103  0.58019  0.41293     N
N       0.6103  0.66981  0.83707     N
N       0.6103  0.83707  0.16981     N
N       0.6103  0.91293  0.58019     N
C       0.6133    0.024   0.9503     C
C       0.6133    0.226   0.2997     C
C       0.6133   0.2997    0.726     C
C       0.6133   0.4503    0.024     C
C       0.6133    0.524   0.4503     C
C       0.6133    0.726   0.7997     C
C       0.6133   0.7997    0.226     C
C       0.6133   0.9503    0.524     C
C       0.6184   0.0459   0.3295     C
C       0.6184   0.2041   0.9205     C
C       0.6184   0.3295   0.5459     C
C       0.6184   0.4205   0.2041     C
C       0.6184   0.5459   0.8295     C
C       0.6184   0.7041   0.4205     C
C       0.6184   0.8295   0.0459     C
C       0.6184   0.9205   0.7041     C
H       0.6209   0.2525   0.2903     H
H       0.6209   0.2903   0.7525     H
H       0.6209   0.4597   0.9975     H
H       0.6209   0.4975   0.4597     H
H       0.6209   0.7525   0.7903     H
H       0.6209   0.7903   0.2525     H
H       0.6209   0.9597   0.4975     H
H       0.6209   0.9975   0.9597     H
Zn       0.625    0.125    0.375    Zn
Zn       0.625    0.125    0.875    Zn
Zn       0.625    0.375    0.125    Zn
Zn       0.625    0.375    0.375    Zn
Zn       0.625    0.375    0.625    Zn
Zn       0.625    0.375    0.875    Zn
Zn       0.625    0.625    0.375    Zn
Zn       0.625    0.625    0.875    Zn
Zn       0.625    0.875    0.125    Zn
Zn       0.625    0.875    0.375    Zn
Zn       0.625    0.875    0.625    Zn
Zn       0.625    0.875    0.875    Zn
H       0.6291   0.2525   0.9597     H
H       0.6291   0.2903   0.4975     H
H       0.6291   0.4597   0.2525     H
H       0.6291   0.4975   0.7903     H
H       0.6291   0.7525   0.4597     H
H       0.6291   0.7903   0.9975     H
H       0.6291   0.9597   0.7525     H
H       0.6291   0.9975   0.2903     H
C       0.6316   0.0459   0.9205     C
C       0.6316   0.2041   0.3295     C
C       0.6316   0.3295   0.7041     C
C       0.6316   0.4205   0.0459     C
C       0.6316   0.5459   0.4205     C
C       0.6316   0.7041   0.8295     C
C       0.6316   0.8295   0.2041     C
C       0.6316   0.9205   0.5459     C
C       0.6367    0.024   0.2997     C
C       0.6367    0.226   0.9503     C
C       0.6367   0.2997    0.524     C
C       0.6367   0.4503    0.226     C
C       0.6367    0.524   0.7997     C
C       0.6367    0.726   0.4503     C
C       0.6367   0.7997    0.024     C
C       0.6367   0.9503    0.726     C
N       0.6397  0.08019  0.33707     N
N       0.6397  0.16981  0.91293     N
N       0.6397  0.33707  0.58019     N
N       0.6397  0.41293  0.16981     N
N       0.6397  0.58019  0.83707     N
N       0.6397  0.66981  0.41293     N
N       0.6397  0.83707  0.08019     N
N       0.6397  0.91293  0.66981     N
H       0.6481   0.0616   0.8075     H
H       0.6481   0.1884   0.4425     H
H       0.6481   0.3075   0.0616     H
H       0.6481   0.4425   0.6884     H
H       0.6481   0.5616   0.3075     H
H       0.6481   0.6884   0.9425     H
H       0.6481   0.8075   0.5616     H
H       0.6481   0.9425   0.1884     H
H       0.6561   0.0382   0.9069     H
H       0.6561   0.2118   0.3431     H
H       0.6561   0.3431   0.7118     H
H       0.6561   0.4069   0.0382     H
H       0.6561   0.5382   0.4069     H
H       0.6561   0.7118   0.8431     H
H       0.6561   0.8431   0.2118     H
H       0.6561   0.9069   0.5382     H
H       0.6569   0.2882   0.3439     H
H       0.6569   0.3439   0.7882     H
H       0.6569   0.4061   0.9618     H
H       0.6569   0.4618   0.4061     H
H       0.6569   0.7882   0.8439     H
H       0.6569   0.8439   0.2882     H
H       0.6569   0.9061   0.4618     H
H       0.6569   0.9618   0.9061     H
N      0.66293  0.33019   0.3897     N
N      0.66293   0.3603  0.91981     N
N      0.66293   0.3897  0.83019     N
N      0.66293  0.41981   0.3603     N
N      0.66293  0.83019   0.8897     N
N      0.66293   0.8603  0.41981     N
N      0.66293   0.8897  0.33019     N
N      0.66293  0.91981   0.8603     N
H       0.6634   0.0169   0.7617     H
H       0.6634   0.2331   0.4883     H
H       0.6634   0.2617   0.0169     H
H       0.6634   0.4883   0.7331     H
H       0.6634   0.5169   0.2617     H
H       0.6634   0.7331   0.9883     H
H       0.6634   0.7617   0.5169     H
H       0.6634   0.9883   0.2331     H
N       0.6681  0.04716  0.28604     N
N       0.6681  0.20284  0.96396     N
N       0.6681  0.28604  0.54716     N
N       0.6681  0.46396  0.20284     N
N       0.6681  0.54716  0.78604     N
N       0.6681  0.70284  0.46396     N
N       0.6681  0.78604  0.04716     N
N       0.6681  0.96396  0.70284     N
C      0.66887   0.0805  0.31001     C
C      0.66887   0.1695  0.93999     C
C      0.66887  0.31001   0.5805     C
C      0.66887  0.43999   0.1695     C
C      0.66887   0.5805  0.81001     C
C      0.66887   0.6695  0.43999     C
C      0.66887  0.81001   0.0805     C
C      0.66887  0.93999   0.6695     C
C       0.6695  0.08113  0.81001     C
C       0.6695  0.16887  0.43999     C
C       0.6695  0.31001  0.08113     C
C       0.6695  0.43999  0.66887     C
C       0.6695  0.58113  0.31001     C
C       0.6695  0.66887  0.93999     C
C       0.6695  0.81001  0.58113     C
C       0.6695  0.93999  0.16887     C
N      0.66981   0.1103  0.83707     N
N      0.66981   0.1397  0.41293     N
N      0.66981  0.33707   0.1103     N
N      0.66981  0.41293   0.6397     N
N      0.66981   0.6103  0.33707     N
N      0.66981   0.6397  0.91293     N
N      0.66981  0.83707   0.6103     N
N      0.66981  0.91293   0.1397     N
C       0.6705   0.2959   0.3684     C
C       0.6705   0.3684   0.7959     C
C       0.6705   0.3816   0.9541     C
C       0.6705   0.4541   0.3816     C
C       0.6705   0.7959   0.8684     C
C       0.6705   0.8684   0.2959     C
C       0.6705   0.8816   0.4541     C
C       0.6705   0.9541   0.8816     C
C       0.6861  0.00563   0.2275     C
C       0.6861   0.0225  0.74437     C
C       0.6861   0.2275  0.50563     C
C       0.6861  0.24437   0.0225     C
C       0.6861  0.50563   0.7275     C
C       0.6861   0.5225  0.24437     C
C       0.6861   0.7275  0.00563     C
C       0.6861  0.74437   0.5225     C
H       0.6884   0.1019   0.3075     H
H       0.6884   0.1481   0.9425     H
H       0.6884   0.3075   0.6019     H
H       0.6884   0.4425   0.1481     H
H       0.6884   0.6019   0.8075     H
H       0.6884   0.6481   0.4425     H
H       0.6884   0.8075   0.1019     H
H       0.6884   0.9425   0.6481     H
C      0.68999   0.3305  0.41887     C
C      0.68999  0.33113   0.9195     C
C      0.68999  0.41887   0.8305     C
C      0.68999   0.4195  0.33113     C
C      0.68999   0.8305  0.91887     C
C      0.68999  0.83113   0.4195     C
C      0.68999  0.91887   0.3305     C
C      0.68999   0.9195  0.83113     C
H       0.6925   0.3116   0.8981     H
H       0.6925   0.3519   0.4384     H
H       0.6925   0.3981   0.3116     H
H       0.6925   0.4384   0.8519     H
H       0.6925   0.8116   0.3981     H
H       0.6925   0.8519   0.9384     H
H       0.6925   0.8981   0.8116     H
H       0.6925   0.9384   0.3519     H
C       0.6942   0.0387   0.2522     C
C       0.6942   0.2113   0.9978     C
C       0.6942   0.2522   0.5387     C
C       0.6942   0.4978   0.2113     C
C       0.6942   0.5387   0.7522     C
C       0.6942   0.7113   0.4978     C
C       0.6942   0.7522   0.0387     C
C       0.6942   0.9978   0.7113     C
C       0.7003    0.274   0.3867     C
C       0.7003   0.3633    0.976     C
C       0.7003   0.3867    0.774     C
C       0.7003    0.476   0.3633     C
C       0.7003    0.774   0.8867     C
C       0.7003   0.8633    0.476     C
C       0.7003   0.8867    0.274     C
C       0.7003    0.976   0.8633     C
N      0.70284   0.0819  0.78604     N
N      0.70284   0.1681  0.46396     N
N      0.70284  0.28604   0.0819     N
N      0.70284  0.46396   0.6681     N
N      0.70284   0.5819  0.28604     N
N      0.70284   0.6681  0.96396     N
N      0.70284  0.78604   0.5819     N
N      0.70284  0.96396   0.1681     N
C       0.7041   0.1184   0.4205     C
C       0.7041   0.1316   0.8295     C
C       0.7041   0.3295   0.1316     C
C       0.7041   0.4205   0.6184     C
C       0.7041   0.6184   0.9205     C
C       0.7041   0.6316   0.3295     C
C       0.7041   0.8295   0.6316     C
C       0.7041   0.9205   0.1184     C
H       0.7097   0.0025   0.8709     H
H       0.7097   0.2475   0.3791     H
H       0.7097   0.3709   0.0025     H
H       0.7097   0.3791   0.7475     H
H       0.7097   0.5025   0.3709     H
H       0.7097   0.7475   0.8791     H
H       0.7097   0.8709   0.5025     H
H       0.7097   0.8791   0.2475     H
C       0.7113   0.0558   0.7522     C
C       0.7113   0.1942   0.4978     C
C       0.7113   0.2522   0.0558     C
C       0.7113   0.4978   0.6942     C
C       0.7113   0.5558   0.2522     C
C       0.7113   0.6942   0.9978     C
C       0.7113   0.7522   0.5558     C
C       0.7113   0.9978   0.1942     C
H       0.7118   0.0939   0.4069     H
H       0.7118   0.1561   0.8431     H
H       0.7118   0.3431   0.1561     H
H       0.7118   0.4069   0.5939     H
H       0.7118   0.5939   0.9069     H
H       0.7118   0.6561   0.3431     H
H       0.7118   0.8431   0.6561     H
H       0.7118   0.9069   0.0939     H
N      0.71396  0.29716   0.4181     N
N      0.71396   0.3319  0.95284     N
N      0.71396   0.4181  0.79716     N
N      0.71396  0.45284   0.3319     N
N      0.71396  0.79716   0.9181     N
N      0.71396   0.8319  0.45284     N
N      0.71396   0.9181  0.29716     N
N      0.71396  0.95284   0.8319     N
C        0.726   0.1133   0.7997     C
C        0.726   0.1367   0.4503     C
C        0.726   0.2997   0.1133     C
C        0.726   0.4503   0.6367     C
C        0.726   0.6133   0.2997     C
C        0.726   0.6367   0.9503     C
C        0.726   0.7997   0.6133     C
C        0.726   0.9503   0.1367     C
C       0.7275  0.00563   0.6861     C
C       0.7275   0.0639  0.24437     C
C       0.7275   0.1861  0.00563     C
C       0.7275  0.24437   0.5639     C
C       0.7275  0.50563   0.1861     C
C       0.7275   0.5639  0.74437     C
C       0.7275   0.6861  0.50563     C
C       0.7275  0.74437   0.0639     C
H       0.7331   0.0866   0.2617     H
H       0.7331   0.1634   0.9883     H
H       0.7331   0.2617   0.5866     H
H       0.7331   0.4883   0.1634     H
H       0.7331   0.5866   0.7617     H
H       0.7331   0.6634   0.4883     H
H       0.7331   0.7617   0.0866     H
H       0.7331   0.9883   0.6634     H
H       0.7383   0.2669   0.9134     H
H       0.7383   0.3366   0.4831     H
H       0.7383   0.4134   0.2669     H
H       0.7383   0.4831   0.8366     H
H       0.7383   0.7669   0.4134     H
H       0.7383   0.8366   0.9831     H
H       0.7383   0.9134   0.7669     H
H       0.7383   0.9831   0.3366     H
C      0.74437   0.0225   0.1861     C
C      0.74437   0.0639   0.7275     C
C      0.74437   0.1861   0.5225     C
C      0.74437   0.2275   0.0639     C
C      0.74437   0.5225   0.6861     C
C      0.74437   0.5639   0.2275     C
C      0.74437   0.6861   0.0225     C
C      0.74437   0.7275   0.5639     C
H       0.7475   0.0403   0.3709     H
H       0.7475   0.2097   0.8791     H
H       0.7475   0.3709   0.5403     H
H       0.7475   0.3791   0.2097     H
H       0.7475   0.5403   0.8709     H
H       0.7475   0.7097   0.3791     H
H       0.7475   0.8709   0.0403     H
H       0.7475   0.8791   0.7097     H
C       0.7478   0.2887   0.4442     C
C       0.7478   0.3058   0.9613     C
C       0.7478   0.4442   0.7887     C
C       0.7478   0.4613   0.3058     C
C       0.7478   0.7887   0.9442     C
C       0.7478   0.8058   0.4613     C
C       0.7478   0.9442   0.2887     C
C       0.7478   0.9613   0.8058     C
C       0.7522   0.0387   0.6942     C
C       0.7522   0.0558   0.2113     C
C       0.7522   0.1942   0.0387     C
C       0.7522   0.2113   0.5558     C
C       0.7522   0.5387   0.1942     C
C       0.7522   0.5558   0.7113     C
C       0.7522   0.6942   0.5387     C
C       0.7522   0.7113   0.0558     C
H       0.7525   0.1209   0.7903     H
H       0.7525   0.1291   0.4597     H
H       0.7525   0.2903   0.1209     H
H       0.7525   0.4597   0.6291     H
H       0.7525   0.6209   0.2903     H
H       0.7525   0.6291   0.9597     H
H       0.7525   0.7903   0.6209     H
H       0.7525   0.9597   0.1291     H
C      0.75563   0.2725   0.9361     C
C      0.75563   0.3139   0.4775     C
C      0.75563   0.4361   0.2725     C
C      0.75563   0.4775   0.8139     C
C      0.75563   0.7725   0.4361     C
C      0.75563   0.8139   0.9775     C
C      0.75563   0.9361   0.7725     C
C      0.75563   0.9775   0.3139     C
H       0.7617   0.0169   0.1634     H
H       0.7617   0.0866   0.7331     H
H       0.7617   0.1634   0.5169     H
H       0.7617   0.2331   0.0866     H
H       0.7617   0.5169   0.6634     H
H       0.7617   0.5866   0.2331     H
H       0.7617   0.6634   0.0169     H
H       0.7617   0.7331   0.5866     H
H       0.7669   0.0117   0.8366     H
H       0.7669   0.2383   0.4134     H
H       0.7669   0.3366   0.0117     H
H       0.7669   0.4134   0.7383     H
H       0.7669   0.5117   0.3366     H
H       0.7669   0.7383   0.9134     H
H       0.7669   0.8366   0.5117     H
H       0.7669   0.9134   0.2383     H
C       0.7725  0.25563   0.4361     C
C       0.7725   0.3139  0.99437     C
C       0.7725   0.4361  0.75563     C
C       0.7725  0.49437   0.3139     C
C       0.7725  0.75563   0.9361     C
C       0.7725   0.8139  0.49437     C
C       0.7725   0.9361  0.25563     C
C       0.7725  0.99437   0.8139     C
C        0.774   0.0497   0.3633     C
C        0.774   0.2003   0.8867     C
C        0.774   0.3633   0.5497     C
C        0.774   0.3867   0.2003     C
C        0.774   0.5497   0.8633     C
C        0.774   0.7003   0.3867     C
C        0.774   0.8633   0.0497     C
C        0.774   0.8867   0.7003     C
N      0.78604  0.04716   0.6681     N
N      0.78604   0.0819  0.20284     N
N      0.78604   0.1681  0.04716     N
N      0.78604  0.20284   0.5819     N
N      0.78604  0.54716   0.1681     N
N      0.78604   0.5819  0.70284     N
N      0.78604   0.6681  0.54716     N
N      0.78604  0.70284   0.0819     N
H       0.7882   0.0931   0.4061     H
H       0.7882   0.1569   0.8439     H
H       0.7882   0.3439   0.1569     H
H       0.7882   0.4061   0.5931     H
H       0.7882   0.5931   0.9061     H
H       0.7882   0.6569   0.3439     H
H       0.7882   0.8439   0.6569     H
H       0.7882   0.9061   0.0931     H
C       0.7887   0.0022   0.3058     C
C       0.7887   0.2478   0.9442     C
C       0.7887   0.3058   0.5022     C
C       0.7887   0.4442   0.2478     C
C       0.7887   0.5022   0.8058     C
C       0.7887   0.7478   0.4442     C
C       0.7887   0.8058   0.0022     C
C       0.7887   0.9442   0.7478     C
H       0.7903   0.1209   0.2525     H
H       0.7903   0.1291   0.9975     H
H       0.7903   0.2525   0.6209     H
H       0.7903   0.4975   0.1291     H
H       0.7903   0.6209   0.7525     H
H       0.7903   0.6291   0.4975     H
H       0.7903   0.7525   0.1209     H
H       0.7903   0.9975   0.6291     H
C       0.7959   0.0795   0.3816     C
C       0.7959   0.1705   0.8684     C
C       0.7959   0.3684   0.1705     C
C       0.7959   0.3816   0.5795     C
C       0.7959   0.5795   0.8816     C
C       0.7959   0.6705   0.3684     C
C       0.7959   0.8684   0.6705     C
C       0.7959   0.8816   0.0795     C
N      0.79716  0.03604   0.3319     N
N      0.79716  0.21396   0.9181     N
N      0.79716   0.3319  0.53604     N
N      0.79716   0.4181  0.21396     N
N      0.79716  0.53604   0.8319     N
N      0.79716  0.71396   0.4181     N
N      0.79716   0.8319  0.03604     N
N      0.79716   0.9181  0.71396     N
C       0.7997    0.024   0.6367     C
C       0.7997   0.1133    0.226     C
C       0.7997   0.1367    0.024     C
C       0.7997    0.226   0.6133     C
C       0.7997    0.524   0.1367     C
C       0.7997   0.6133    0.726     C
C       0.7997   0.6367    0.524     C
C       0.7997    0.726   0.1133     C
C       0.8058   0.0022   0.7887     C
C       0.8058   0.2478   0.4613     C
C       0.8058   0.2887   0.0022     C
C       0.8058   0.4613   0.7478     C
C       0.8058   0.5022   0.2887     C
C       0.8058   0.7478   0.9613     C
C       0.8058   0.7887   0.5022     C
C       0.8058   0.9613   0.2478     C
H       0.8075   0.0616   0.1481     H
H       0.8075   0.1019   0.6884     H
H       0.8075   0.1481   0.5616     H
H       0.8075   0.1884   0.1019     H
H       0.8075   0.5616   0.6481     H
H       0.8075   0.6019   0.1884     H
H       0.8075   0.6481   0.0616     H
H       0.8075   0.6884   0.6019     H
C      0.81001   0.0805  0.66887     C
C      0.81001  0.08113   0.1695     C
C      0.81001  0.16887   0.0805     C
C      0.81001   0.1695  0.58113     C
C      0.81001   0.5805  0.16887     C
C      0.81001  0.58113   0.6695     C
C      0.81001  0.66887   0.5805     C
C      0.81001   0.6695  0.08113     C
H       0.8116   0.0575   0.8519     H
H       0.8116   0.1925   0.3981     H
H       0.8116   0.3519   0.0575     H
H       0.8116   0.3981   0.6925     H
H       0.8116   0.5575   0.3519     H
H       0.8116   0.6925   0.8981     H
H       0.8116   0.8519   0.5575     H
H       0.8116   0.8981   0.1925     H
C       0.8139  0.25563   0.9775     C
C       0.8139   0.2725  0.49437     C
C       0.8139   0.4775  0.25563     C
C       0.8139  0.49437   0.7725     C
C       0.8139  0.75563   0.4775     C
C       0.8139   0.7725  0.99437     C
C       0.8139   0.9775  0.75563     C
C       0.8139  0.99437   0.2725     C
C       0.8295   0.0459   0.6184     C
C       0.8295   0.1184   0.0459     C
C       0.8295   0.1316   0.2041     C
C       0.8295   0.2041   0.6316     C
C       0.8295   0.5459   0.1184     C
C       0.8295   0.6184   0.5459     C
C       0.8295   0.6316   0.7041     C
C       0.8295   0.7041   0.1316     C
N      0.83019  0.08707   0.3603     N
N      0.83019  0.16293   0.8897     N
N      0.83019   0.3603  0.58707     N
N      0.83019   0.3897  0.16293     N
N      0.83019  0.58707   0.8603     N
N      0.83019  0.66293   0.3897     N
N      0.83019   0.8603  0.08707     N
N      0.83019   0.8897  0.66293     N
C       0.8305  0.06001  0.33113     C
C       0.8305  0.18999  0.91887     C
C       0.8305  0.33113  0.56001     C
C       0.8305  0.41887  0.18999     C
C       0.8305  0.56001  0.83113     C
C       0.8305  0.68999  0.41887     C
C       0.8305  0.83113  0.06001     C
C       0.8305  0.91887  0.68999     C
C      0.83113  0.06001   0.8305     C
C      0.83113  0.18999   0.4195     C
C      0.83113   0.3305  0.06001     C
C      0.83113   0.4195  0.68999     C
C      0.83113  0.56001   0.3305     C
C      0.83113  0.68999   0.9195     C
C      0.83113   0.8305  0.56001     C
C      0.83113   0.9195  0.18999     C
N       0.8319  0.03604  0.79716     N
N       0.8319  0.21396  0.45284     N
N       0.8319  0.29716  0.03604     N
N       0.8319  0.45284  0.71396     N
N       0.8319  0.53604  0.29716     N
N       0.8319  0.71396  0.95284     N
N       0.8319  0.79716  0.53604     N
N       0.8319  0.95284  0.21396     N
H       0.8366   0.0117   0.2669     H
H       0.8366   0.2383   0.9831     H
H       0.8366   0.2669   0.5117     H
H       0.8366   0.4831   0.2383     H
H       0.8366   0.5117   0.7669     H
H       0.8366   0.7383   0.4831     H
H       0.8366   0.7669   0.0117     H
H       0.8366   0.9831   0.7383     H
N      0.83707  0.08019   0.6397     N
N      0.83707   0.1103  0.16981     N
N      0.83707   0.1397  0.08019     N
N      0.83707  0.16981   0.6103     N
N      0.83707  0.58019   0.1397     N
N      0.83707   0.6103  0.66981     N
N      0.83707   0.6397  0.58019     N
N      0.83707  0.66981   0.1103     N
H       0.8431   0.0382   0.5939     H
H       0.8431   0.0939   0.0382     H
H       0.8431   0.1561   0.2118     H
H       0.8431   0.2118   0.6561     H
H       0.8431   0.5382   0.0939     H
H       0.8431   0.5939   0.5382     H
H       0.8431   0.6561   0.7118     H
H       0.8431   0.7118   0.1561     H
H       0.8439   0.0931   0.9618     H
H       0.8439   0.1569   0.2882     H
H       0.8439   0.2882   0.6569     H
H       0.8439   0.4618   0.0931     H
H       0.8439   0.5931   0.4618     H
H       0.8439   0.6569   0.7882     H
H       0.8439   0.7882   0.1569     H
H       0.8439   0.9618   0.5931     H
H       0.8519   0.0575   0.3116     H
H       0.8519   0.1925   0.9384     H
H       0.8519   0.3116   0.5575     H
H       0.8519   0.4384   0.1925     H
H       0.8519   0.5575   0.8116     H
H       0.8519   0.6925   0.4384     H
H       0.8519   0.8116   0.0575     H
H       0.8519   0.9384   0.6925     H
N       0.8603  0.08707  0.83019     N
N       0.8603  0.16293  0.41981     N
N       0.8603  0.33019  0.08707     N
N       0.8603  0.41981  0.66293     N
N       0.8603  0.58707  0.33019     N
N       0.8603  0.66293  0.91981     N
N       0.8603  0.83019  0.58707     N
N       0.8603  0.91981  0.16293     N
C       0.8633   0.0497    0.774     C
C       0.8633   0.2003    0.476     C
C       0.8633    0.274   0.0497     C
C       0.8633    0.476   0.7003     C
C       0.8633   0.5497    0.274     C
C       0.8633   0.7003    0.976     C
C       0.8633    0.774   0.5497     C
C       0.8633    0.976   0.2003     C
C       0.8684   0.0795   0.9541     C
C       0.8684   0.1705   0.2959     C
C       0.8684   0.2959   0.6705     C
C       0.8684   0.4541   0.0795     C
C       0.8684   0.5795   0.4541     C
C       0.8684   0.6705   0.7959     C
C       0.8684   0.7959   0.1705     C
C       0.8684   0.9541   0.5795     C
H       0.8709   0.0025   0.2097     H
H       0.8709   0.0403   0.7475     H
H       0.8709   0.2097   0.5025     H
H       0.8709   0.2475   0.0403     H
H       0.8709   0.5025   0.7097     H
H       0.8709   0.5403   0.2475     H
H       0.8709   0.7097   0.0025     H
H       0.8709   0.7475   0.5403     H
Zn       0.875    0.125    0.125    Zn
Zn       0.875    0.125    0.375    Zn
Zn       0.875    0.125    0.625    Zn
Zn       0.875    0.125    0.875    Zn
Zn       0.875    0.375    0.125    Zn
Zn       0.875    0.375    0.625    Zn
Zn       0.875    0.625    0.125    Zn
Zn       0.875    0.625    0.375    Zn
Zn       0.875    0.625    0.625    Zn
Zn       0.875    0.625    0.875    Zn
Zn       0.875    0.875    0.125    Zn
Zn       0.875    0.875    0.625    Zn
H       0.8791   0.0025   0.5403     H
H       0.8791   0.0403   0.0025     H
H       0.8791   0.2097   0.2475     H
H       0.8791   0.2475   0.7097     H
H       0.8791   0.5025   0.0403     H
H       0.8791   0.5403   0.5025     H
H       0.8791   0.7097   0.7475     H
H       0.8791   0.7475   0.2097     H
C       0.8816   0.0795   0.7959     C
C       0.8816   0.1705   0.4541     C
C       0.8816   0.2959   0.0795     C
C       0.8816   0.4541   0.6705     C
C       0.8816   0.5795   0.2959     C
C       0.8816   0.6705   0.9541     C
C       0.8816   0.7959   0.5795     C
C       0.8816   0.9541   0.1705     C
C       0.8867   0.0497    0.976     C
C       0.8867   0.2003    0.274     C
C       0.8867    0.274   0.7003     C
C       0.8867    0.476   0.0497     C
C       0.8867   0.5497    0.476     C
C       0.8867   0.7003    0.774     C
C       0.8867    0.774   0.2003     C
C       0.8867    0.976   0.5497     C
N       0.8897  0.08707  0.91981     N
N       0.8897  0.16293  0.33019     N
N       0.8897  0.33019  0.66293     N
N       0.8897  0.41981  0.08707     N
N       0.8897  0.58707  0.41981     N
N       0.8897  0.66293  0.83019     N
N       0.8897  0.83019  0.16293     N
N       0.8897  0.91981  0.58707     N
H       0.8981   0.0575   0.4384     H
H       0.8981   0.1925   0.8116     H
H       0.8981   0.3116   0.1925     H
H       0.8981   0.4384   0.5575     H
H       0.8981   0.5575   0.9384     H
H       0.8981   0.6925   0.3116     H
H       0.8981   0.8116   0.6925     H
H       0.8981   0.9384   0.0575     H
H       0.9061   0.0931   0.7882     H
H       0.9061   0.1569   0.4618     H
H       0.9061   0.2882   0.0931     H
H       0.9061   0.4618   0.6569     H
H       0.9061   0.5931   0.2882     H
H       0.9061   0.6569   0.9618     H
H       0.9061   0.7882   0.5931     H
H       0.9061   0.9618   0.1569     H
H       0.9069   0.0382   0.1561     H
H       0.9069   0.0939   0.7118     H
H       0.9069   0.1561   0.5382     H
H       0.9069   0.2118   0.0939     H
H       0.9069   0.5382   0.6561     H
H       0.9069   0.5939   0.2118     H
H       0.9069   0.6561   0.0382     H
H       0.9069   0.7118   0.5939     H
N      0.91293  0.08019   0.1103     N
N      0.91293   0.1103  0.58019     N
N      0.91293   0.1397  0.66981     N
N      0.91293  0.16981   0.1397     N
N      0.91293  0.58019   0.6103     N
N      0.91293   0.6103  0.08019     N
N      0.91293   0.6397  0.16981     N
N      0.91293  0.66981   0.6397     N
H       0.9134   0.0117   0.4831     H
H       0.9134   0.2383   0.7669     H
H       0.9134   0.2669   0.2383     H
H       0.9134   0.4831   0.5117     H
H       0.9134   0.5117   0.9831     H
H       0.9134   0.7383   0.2669     H
H       0.9134   0.7669   0.7383     H
H       0.9134   0.9831   0.0117     H
N       0.9181  0.03604  0.95284     N
N       0.9181  0.21396  0.29716     N
N       0.9181  0.29716  0.71396     N
N       0.9181  0.45284  0.03604     N
N       0.9181  0.53604  0.45284     N
N       0.9181  0.71396  0.79716     N
N       0.9181  0.79716  0.21396     N
N       0.9181  0.95284  0.53604     N
C      0.91887  0.06001   0.9195     C
C      0.91887  0.18999   0.3305     C
C      0.91887   0.3305  0.68999     C
C      0.91887   0.4195  0.06001     C
C      0.91887  0.56001   0.4195     C
C      0.91887  0.68999   0.8305     C
C      0.91887   0.8305  0.18999     C
C      0.91887   0.9195  0.56001     C
C       0.9195  0.06001  0.41887     C
C       0.9195  0.18999  0.83113     C
C       0.9195  0.33113  0.18999     C
C       0.9195  0.41887  0.56001     C
C       0.9195  0.56001  0.91887     C
C       0.9195  0.68999  0.33113     C
C       0.9195  0.83113  0.68999     C
C       0.9195  0.91887  0.06001     C
N      0.91981  0.08707   0.3897     N
N      0.91981  0.16293   0.8603     N
N      0.91981   0.3603  0.16293     N
N      0.91981   0.3897  0.58707     N
N      0.91981  0.58707   0.8897     N
N      0.91981  0.66293   0.3603     N
N      0.91981   0.8603  0.66293     N
N      0.91981   0.8897  0.08707     N
C       0.9205   0.0459   0.1316     C
C       0.9205   0.1184   0.7041     C
C       0.9205   0.1316   0.5459     C
C       0.9205   0.2041   0.1184     C
C       0.9205   0.5459   0.6316     C
C       0.9205   0.6184   0.2041     C
C       0.9205   0.6316   0.0459     C
C       0.9205   0.7041   0.6184     C
C       0.9361  0.25563   0.7725     C
C       0.9361   0.2725  0.25563     C
C       0.9361   0.4775  0.49437     C
C       0.9361  0.49437   0.9775     C
C       0.9361  0.75563   0.2725     C
C       0.9361   0.7725  0.75563     C
C       0.9361   0.9775  0.99437     C
C       0.9361  0.99437   0.4775     C
H       0.9384   0.0575   0.8981     H
H       0.9384   0.1925   0.3519     H
H       0.9384   0.3519   0.6925     H
H       0.9384   0.3981   0.0575     H
H       0.9384   0.5575   0.3981     H
H       0.9384   0.6925   0.8519     H
H       0.9384   0.8519   0.1925     H
H       0.9384   0.8981   0.5575     H
C      0.93999   0.0805  0.08113     C
C      0.93999  0.08113   0.5805     C
C      0.93999  0.16887   0.6695     C
C      0.93999   0.1695  0.16887     C
C      0.93999   0.5805  0.58113     C
C      0.93999  0.58113   0.0805     C
C      0.93999  0.66887   0.1695     C
C      0.93999   0.6695  0.66887     C
H       0.9425   0.0616   0.6019     H
H       0.9425   0.1019   0.0616     H
H       0.9425   0.1481   0.1884     H
H       0.9425   0.1884   0.6481     H
H       0.9425   0.5616   0.1019     H
H       0.9425   0.6019   0.5616     H
H       0.9425   0.6481   0.6884     H
H       0.9425   0.6884   0.1481     H
C       0.9442   0.0022   0.9613     C
C       0.9442   0.2478   0.2887     C
C       0.9442   0.2887   0.7478     C
C       0.9442   0.4613   0.0022     C
C       0.9442   0.5022   0.4613     C
C       0.9442   0.7478   0.7887     C
C       0.9442   0.7887   0.2478     C
C       0.9442   0.9613   0.5022     C
C       0.9503    0.024   0.1133     C
C       0.9503   0.1133    0.524     C
C       0.9503   0.1367    0.726     C
C       0.9503    0.226   0.1367     C
C       0.9503    0.524   0.6133     C
C       0.9503   0.6133    0.024     C
C       0.9503   0.6367    0.226     C
C       0.9503    0.726   0.6367     C
N      0.95284  0.03604   0.4181     N
N      0.95284  0.21396   0.8319     N
N      0.95284   0.3319  0.21396     N
N      0.95284   0.4181  0.53604     N
N      0.95284  0.53604   0.9181     N
N      0.95284  0.71396   0.3319     N
N      0.95284   0.8319  0.71396     N
N      0.95284   0.9181  0.03604     N
C       0.9541   0.0795   0.3684     C
C       0.9541   0.1705   0.8816     C
C       0.9541   0.3684   0.5795     C
C       0.9541   0.3816   0.1705     C
C       0.9541   0.5795   0.8684     C
C       0.9541   0.6705   0.3816     C
C       0.9541   0.8684   0.0795     C
C       0.9541   0.8816   0.6705     C
H       0.9597   0.1209   0.4975     H
H       0.9597   0.1291   0.7525     H
H       0.9597   0.2525   0.1291     H
H       0.9597   0.4975   0.6209     H
H       0.9597   0.6209   0.9975     H
H       0.9597   0.6291   0.2525     H
H       0.9597   0.7525   0.6291     H
H       0.9597   0.9975   0.1209     H
C       0.9613   0.0022   0.4442     C
C       0.9613   0.2478   0.8058     C
C       0.9613   0.3058   0.2478     C
C       0.9613   0.4442   0.5022     C
C       0.9613   0.5022   0.9442     C
C       0.9613   0.7478   0.3058     C
C       0.9613   0.8058   0.7478     C
C       0.9613   0.9442   0.0022     C
H       0.9618   0.0931   0.3439     H
H       0.9618   0.1569   0.9061     H
H       0.9618   0.3439   0.5931     H
H       0.9618   0.4061   0.1569     H
H       0.9618   0.5931   0.8439     H
H       0.9618   0.6569   0.4061     H
H       0.9618   0.8439   0.0931     H
H       0.9618   0.9061   0.6569     H
N      0.96396  0.04716   0.0819     N
N      0.96396   0.0819  0.54716     N
N      0.96396   0.1681  0.70284     N
N      0.96396  0.20284   0.1681     N
N      0.96396  0.54716   0.5819     N
N      0.96396   0.5819  0.04716     N
N      0.96396   0.6681  0.20284     N
N      0.96396  0.70284   0.6681     N
C        0.976   0.0497   0.3867     C
C        0.976   0.2003   0.8633     C
C        0.976   0.3633   0.2003     C
C        0.976   0.3867   0.5497     C
C        0.976   0.5497   0.8867     C
C        0.976   0.7003   0.3633     C
C        0.976   0.8633   0.7003     C
C        0.976   0.8867   0.0497     C
C       0.9775  0.25563   0.3139     C
C       0.9775   0.3139  0.75563     C
C       0.9775   0.4361  0.99437     C
C       0.9775  0.49437   0.4361     C
C       0.9775  0.75563   0.8139     C
C       0.9775   0.8139  0.25563     C
C       0.9775   0.9361  0.49437     C
C       0.9775  0.99437   0.9361     C
H       0.9831   0.0117   0.9134     H
H       0.9831   0.2383   0.3366     H
H       0.9831   0.3366   0.7383     H
H       0.9831   0.4134   0.0117     H
H       0.9831   0.5117   0.4134     H
H       0.9831   0.7383   0.8366     H
H       0.9831   0.8366   0.2383     H
H       0.9831   0.9134   0.5117     H
H       0.9883   0.0169   0.5866     H
H       0.9883   0.0866   0.0169     H
H       0.9883   0.1634   0.2331     H
H       0.9883   0.2331   0.6634     H
H       0.9883   0.5169   0.0866     H
H       0.9883   0.5866   0.5169     H
H       0.9883   0.6634   0.7331     H
H       0.9883   0.7331   0.1634     H
C      0.99437   0.2725   0.8139     C
C      0.99437   0.3139   0.2725     C
C      0.99437   0.4361   0.4775     C
C      0.99437   0.4775   0.9361     C
C      0.99437   0.7725   0.3139     C
C      0.99437   0.8139   0.7725     C
C      0.99437   0.9361   0.9775     C
C      0.99437   0.9775   0.4361     C
H       0.9975   0.1209   0.9597     H
H       0.9975   0.1291   0.2903     H
H       0.9975   0.2903   0.6291     H
H       0.9975   0.4597   0.1209     H
H       0.9975   0.6209   0.4597     H
H       0.9975   0.6291   0.7903     H
H       0.9975   0.7903   0.1291     H
H       0.9975   0.9597   0.6209     H
C       0.9978   0.0387   0.0558     C
C       0.9978   0.0558   0.5387     C
C       0.9978   0.1942   0.7113     C
C       0.9978   0.2113   0.1942     C
C       0.9978   0.5387   0.5558     C
C       0.9978   0.5558   0.0387     C
C       0.9978   0.6942   0.2113     C
C       0.9978   0.7113   0.6942     C
