data_I
_chemical_name_common  '/home/zhangsd/repos/MofS-CGCNN/ML/data/TSD/clean_cifs/XISXEE_clean'
_cell_length_a 14.99270
_cell_length_b 17.23210
_cell_length_c 24.79800
_cell_angle_alpha 90.00000
_cell_angle_beta  90.00000
_cell_angle_gamma 90.00000
_space_group_name_H-M_alt      'P 1'


loop_
_space_group_symop_operation_xyz
  'x, y, z' 

loop_
_atom_site_label
_atom_site_fract_x
_atom_site_fract_y
_atom_site_fract_z
_atom_site_type_symbol
C          0.0      0.0   0.2459     C
C          0.0      0.0   0.7541     C
O          0.0      0.5   0.4438     O
O          0.0      0.5   0.5562     O
H       0.0137   0.1201   0.1809     H
H       0.0137   0.1201   0.8191     H
C       0.0138   0.1794   0.3352     C
C       0.0138   0.1794   0.6648     C
C       0.0239   0.9332  0.28504     C
C       0.0239   0.9332  0.71496     C
O       0.0274   0.7116   0.4159     O
O       0.0274   0.7116   0.5841     O
C       0.0318   0.1276   0.2948     C
C       0.0318   0.1276   0.7052     C
H        0.053   0.2204    0.341     H
H        0.053   0.2204    0.659     H
C       0.0594   0.8272    0.367     C
C       0.0594   0.8272    0.633     C
C       0.0633   0.0888    0.175     C
C       0.0633   0.0888    0.825     C
C       0.0756   0.0231  0.20663     C
C       0.0756   0.0231  0.79337     C
O       0.0793   0.6406      0.5     O
C       0.0801   0.7706   0.4123     C
C       0.0801   0.7706   0.5877     C
H       0.0826    0.134   0.2737     H
H       0.0826    0.134   0.7263     H
C       0.1019   0.9401   0.3163     C
C       0.1019   0.9401   0.6837     C
Ni     0.10493  0.52422      0.5    Ni
H       0.1157   0.1548   0.1161     H
H       0.1157   0.1548   0.8839     H
C       0.1186   0.8868   0.3572     C
C       0.1186   0.8868   0.6428     C
C       0.1235   0.1087    0.135     C
C       0.1235   0.1087    0.865     C
H       0.1421   0.9801   0.3096     H
H       0.1421   0.9801   0.6904     H
O       0.1429   0.7833  0.44174     O
O       0.1429   0.7833  0.55826     O
C       0.1487   0.9773   0.1956     C
C       0.1487   0.9773   0.8044     C
H       0.1592   0.9334   0.2165     H
H       0.1592   0.9334   0.7835     H
H       0.1699   0.8914   0.3781     H
H       0.1699   0.8914   0.6219     H
O       0.1908   0.5327  0.43869     O
O       0.1908   0.5327  0.56131     O
C       0.1932   0.0622   0.1229     C
C       0.1932   0.0622   0.8771     C
Ni     0.19456  0.71086      0.5    Ni
C       0.2069   0.9953   0.1539     C
C       0.2069   0.9953   0.8461     C
C       0.2439   0.5832   0.4225     C
C       0.2439   0.5832   0.5775     C
H        0.245    0.463   0.3534     H
H        0.245    0.463   0.6466     H
O       0.2465   0.1485  0.05876     O
O       0.2465   0.1485  0.94124     O
O       0.2535   0.6485  0.44124     O
O       0.2535   0.6485  0.55876     O
H        0.255    0.963   0.1466     H
H        0.255    0.963   0.8534     H
C       0.2561   0.0832   0.0775     C
C       0.2561   0.0832   0.9225     C
C       0.2931   0.4953   0.3461     C
C       0.2931   0.4953   0.6539     C
Ni     0.30544  0.21086      0.0    Ni
C       0.3068   0.5622   0.3771     C
C       0.3068   0.5622   0.6229     C
O       0.3092   0.0327  0.06131     O
O       0.3092   0.0327  0.93869     O
H       0.3301   0.3914   0.1219     H
H       0.3301   0.3914   0.8781     H
H       0.3408   0.4334   0.2835     H
H       0.3408   0.4334   0.7165     H
C       0.3513   0.4773   0.3044     C
C       0.3513   0.4773   0.6956     C
O       0.3571   0.2833  0.05826     O
O       0.3571   0.2833  0.94174     O
H       0.3579   0.4801   0.1904     H
H       0.3579   0.4801   0.8096     H
C       0.3765   0.6087    0.365     C
C       0.3765   0.6087    0.635     C
C       0.3814   0.3868   0.1428     C
C       0.3814   0.3868   0.8572     C
H       0.3843   0.6548   0.3839     H
H       0.3843   0.6548   0.6161     H
Ni     0.39507  0.02422      0.0    Ni
C       0.3981   0.4401   0.1837     C
C       0.3981   0.4401   0.8163     C
H       0.4174    0.634   0.2263     H
H       0.4174    0.634   0.7737     H
C       0.4199   0.2706   0.0877     C
C       0.4199   0.2706   0.9123     C
O       0.4207   0.1406      0.0     O
C       0.4244   0.5231  0.29337     C
C       0.4244   0.5231  0.70663     C
C       0.4367   0.5888    0.325     C
C       0.4367   0.5888    0.675     C
C       0.4406   0.3272    0.133     C
C       0.4406   0.3272    0.867     C
H        0.447   0.7204    0.159     H
H        0.447   0.7204    0.841     H
C       0.4682   0.6276   0.2052     C
C       0.4682   0.6276   0.7948     C
O       0.4726   0.2116   0.0841     O
O       0.4726   0.2116   0.9159     O
C       0.4761   0.4332  0.21496     C
C       0.4761   0.4332  0.78504     C
C       0.4862   0.6794   0.1648     C
C       0.4862   0.6794   0.8352     C
H       0.4863   0.6201   0.3191     H
H       0.4863   0.6201   0.6809     H
O          0.5      0.0   0.0562     O
O          0.5      0.0   0.9438     O
C          0.5      0.5   0.2541     C
C          0.5      0.5   0.7459     C
H       0.5137   0.3799   0.3191     H
H       0.5137   0.3799   0.6809     H
C       0.5138   0.3206   0.1648     C
C       0.5138   0.3206   0.8352     C
C       0.5239   0.5668  0.21496     C
C       0.5239   0.5668  0.78504     C
O       0.5274   0.7884   0.0841     O
O       0.5274   0.7884   0.9159     O
C       0.5318   0.3724   0.2052     C
C       0.5318   0.3724   0.7948     C
H        0.553   0.2796    0.159     H
H        0.553   0.2796    0.841     H
C       0.5594   0.6728    0.133     C
C       0.5594   0.6728    0.867     C
C       0.5633   0.4112    0.325     C
C       0.5633   0.4112    0.675     C
C       0.5756   0.4769  0.29337     C
C       0.5756   0.4769  0.70663     C
O       0.5793   0.8594      0.0     O
C       0.5801   0.7294   0.0877     C
C       0.5801   0.7294   0.9123     C
H       0.5826    0.366   0.2263     H
H       0.5826    0.366   0.7737     H
C       0.6019   0.5599   0.1837     C
C       0.6019   0.5599   0.8163     C
Ni     0.60493  0.97578      0.0    Ni
H       0.6157   0.3452   0.3839     H
H       0.6157   0.3452   0.6161     H
C       0.6186   0.6132   0.1428     C
C       0.6186   0.6132   0.8572     C
C       0.6235   0.3913    0.365     C
C       0.6235   0.3913    0.635     C
H       0.6421   0.5199   0.1904     H
H       0.6421   0.5199   0.8096     H
O       0.6429   0.7167  0.05826     O
O       0.6429   0.7167  0.94174     O
C       0.6487   0.5227   0.3044     C
C       0.6487   0.5227   0.6956     C
H       0.6592   0.5666   0.2835     H
H       0.6592   0.5666   0.7165     H
H       0.6699   0.6086   0.1219     H
H       0.6699   0.6086   0.8781     H
O       0.6908   0.9673  0.06131     O
O       0.6908   0.9673  0.93869     O
C       0.6932   0.4378   0.3771     C
C       0.6932   0.4378   0.6229     C
Ni     0.69456  0.78914      0.0    Ni
C       0.7069   0.5047   0.3461     C
C       0.7069   0.5047   0.6539     C
C       0.7439   0.9168   0.0775     C
C       0.7439   0.9168   0.9225     C
H        0.745    0.037   0.1466     H
H        0.745    0.037   0.8534     H
O       0.7465   0.3515  0.44124     O
O       0.7465   0.3515  0.55876     O
O       0.7535   0.8515  0.05876     O
O       0.7535   0.8515  0.94124     O
H        0.755    0.537   0.3534     H
H        0.755    0.537   0.6466     H
C       0.7561   0.4168   0.4225     C
C       0.7561   0.4168   0.5775     C
C       0.7931   0.0047   0.1539     C
C       0.7931   0.0047   0.8461     C
Ni     0.80544  0.28914      0.5    Ni
C       0.8068   0.9378   0.1229     C
C       0.8068   0.9378   0.8771     C
O       0.8092   0.4673  0.43869     O
O       0.8092   0.4673  0.56131     O
H       0.8301   0.1086   0.3781     H
H       0.8301   0.1086   0.6219     H
H       0.8408   0.0666   0.2165     H
H       0.8408   0.0666   0.7835     H
C       0.8513   0.0227   0.1956     C
C       0.8513   0.0227   0.8044     C
O       0.8571   0.2167  0.44174     O
O       0.8571   0.2167  0.55826     O
H       0.8579   0.0199   0.3096     H
H       0.8579   0.0199   0.6904     H
C       0.8765   0.8913    0.135     C
C       0.8765   0.8913    0.865     C
C       0.8814   0.1132   0.3572     C
C       0.8814   0.1132   0.6428     C
H       0.8843   0.8452   0.1161     H
H       0.8843   0.8452   0.8839     H
Ni     0.89507  0.47578      0.5    Ni
C       0.8981   0.0599   0.3163     C
C       0.8981   0.0599   0.6837     C
H       0.9174    0.866   0.2737     H
H       0.9174    0.866   0.7263     H
C       0.9199   0.2294   0.4123     C
C       0.9199   0.2294   0.5877     C
O       0.9207   0.3594      0.5     O
C       0.9244   0.9769  0.20663     C
C       0.9244   0.9769  0.79337     C
C       0.9367   0.9112    0.175     C
C       0.9367   0.9112    0.825     C
C       0.9406   0.1728    0.367     C
C       0.9406   0.1728    0.633     C
H        0.947   0.7796    0.341     H
H        0.947   0.7796    0.659     H
C       0.9682   0.8724   0.2948     C
C       0.9682   0.8724   0.7052     C
O       0.9726   0.2884   0.4159     O
O       0.9726   0.2884   0.5841     O
C       0.9761   0.0668  0.28504     C
C       0.9761   0.0668  0.71496     C
C       0.9862   0.8206   0.3352     C
C       0.9862   0.8206   0.6648     C
H       0.9863   0.8799   0.1809     H
H       0.9863   0.8799   0.8191     H
