data_I
_chemical_name_common  '/home/zhangsd/repos/MofS-CGCNN/ML/data/TSD/clean_cifs/XIWYEH_clean'
_cell_length_a 10.74550
_cell_length_b  6.34690
_cell_length_c 20.48000
_cell_angle_alpha 90.00000
_cell_angle_beta  104.28600
_cell_angle_gamma 90.00000
_space_group_name_H-M_alt      'P 1'


loop_
_space_group_symop_operation_xyz
  'x, y, z' 

loop_
_atom_site_label
_atom_site_fract_x
_atom_site_fract_y
_atom_site_fract_z
_atom_site_type_symbol
O       0.0025   0.5403   0.3028     O
O       0.0029    0.969   0.7085     O
P       0.0252   0.0488   0.3665     P
O       0.0497    0.046    0.171     O
O       0.0656   0.4868   0.5782     O
O       0.0865   0.8483   0.4012     O
Ti      0.0967    0.543   0.3935    Ti
O       0.1024   0.9155    0.613     O
Ti      0.1094   0.9649   0.7997    Ti
O       0.1116   0.2704    0.801     O
O       0.1123   0.6571   0.7995     O
O       0.1138   0.2356   0.3919     O
P       0.1162   0.4623    0.757     P
H       0.1362   0.8067   0.6305     H
O       0.1458   0.4013   0.1572     O
H       0.1497   0.1166   0.5656     H
P       0.1723   0.1716   0.1777     P
O       0.1755   0.1816   0.5369     O
P       0.1798   0.4184   0.5532     P
H       0.1812   0.7447   0.2469     H
O       0.1878   0.5319   0.4889     O
O       0.1978   0.9711   0.8944     O
O       0.2347    0.462     0.73     O
O       0.2443   0.0699   0.1299     O
O       0.2466   0.6757   0.2491     O
O       0.2534   0.1757   0.2509     O
O       0.2557   0.5699   0.3701     O
O       0.2653    0.962     0.77     O
O       0.3022   0.4711   0.6056     O
O       0.3122   0.0319   0.0111     O
H       0.3188   0.2447   0.2531     H
P       0.3202   0.9184   0.9468     P
O       0.3245   0.6816   0.9631     O
P       0.3277   0.6716   0.3223     P
H       0.3503   0.6166   0.9344     H
O       0.3542   0.9013   0.3428     O
H       0.3638   0.3067   0.8695     H
P       0.3838   0.9623    0.743     P
O       0.3862   0.7356   0.1081     O
O       0.3877   0.1571   0.7005     O
O       0.3884   0.7704    0.699     O
Ti      0.3906   0.4649   0.7003    Ti
O       0.3976   0.4155    0.887     O
Ti      0.4033    0.043   0.1065    Ti
O       0.4135   0.3483   0.0988     O
O       0.4344   0.9868   0.9218     O
O       0.4503    0.546    0.329     O
P       0.4748   0.5488   0.1335     P
O       0.4971    0.469   0.7915     O
O       0.4975   0.0403   0.1972     O
O       0.5025   0.9597   0.8028     O
O       0.5029    0.531   0.2085     O
P       0.5252   0.4512   0.8665     P
O       0.5497    0.454    0.671     O
O       0.5656   0.0132   0.0782     O
O       0.5865   0.6517   0.9012     O
Ti      0.5967    0.957   0.8935    Ti
O       0.6024   0.5845    0.113     O
Ti      0.6094   0.5351   0.2997    Ti
O       0.6116   0.2296    0.301     O
O       0.6123   0.8429   0.2995     O
O       0.6138   0.2644   0.8919     O
P       0.6162   0.0377    0.257     P
H       0.6362   0.6933   0.1305     H
O       0.6458   0.0987   0.6572     O
H       0.6497   0.3834   0.0656     H
P       0.6723   0.3284   0.6777     P
O       0.6755   0.3184   0.0369     O
P       0.6798   0.0816   0.0532     P
H       0.6812   0.7553   0.7469     H
O       0.6878   0.9681   0.9889     O
O       0.6978   0.5289   0.3944     O
O       0.7347    0.038     0.23     O
O       0.7443   0.4301   0.6299     O
O       0.7466   0.8243   0.7491     O
O       0.7534   0.3243   0.7509     O
O       0.7557   0.9301   0.8701     O
O       0.7653    0.538     0.27     O
O       0.8022   0.0289   0.1056     O
O       0.8122   0.4681   0.5111     O
H       0.8188   0.2553   0.7531     H
P       0.8202   0.5816   0.4468     P
O       0.8245   0.8184   0.4631     O
P       0.8277   0.8284   0.8223     P
H       0.8503   0.8834   0.4344     H
O       0.8542   0.5987   0.8428     O
H       0.8638   0.1933   0.3695     H
P       0.8838   0.5377    0.243     P
O       0.8862   0.7644   0.6081     O
O       0.8877   0.3429   0.2005     O
O       0.8884   0.7296    0.199     O
Ti      0.8906   0.0351   0.2003    Ti
O       0.8976   0.0845    0.387     O
Ti      0.9033    0.457   0.6065    Ti
O       0.9135   0.1517   0.5988     O
O       0.9344   0.5132   0.4218     O
O       0.9503    0.954    0.829     O
P       0.9748   0.9512   0.6335     P
O       0.9971    0.031   0.2915     O
O       0.9975   0.4597   0.6972     O
