data_I
_chemical_name_common  '/home/zhangsd/repos/MofS-CGCNN/ML/data/TSD/clean_cifs/XOCWET_clean'
_cell_length_a 11.00100
_cell_length_b 11.56300
_cell_length_c 13.43200
_cell_angle_alpha 69.35800
_cell_angle_beta  79.86900
_cell_angle_gamma 61.86400
_space_group_name_H-M_alt      'P 1'


loop_
_space_group_symop_operation_xyz
  'x, y, z' 

loop_
_atom_site_label
_atom_site_fract_x
_atom_site_fract_y
_atom_site_fract_z
_atom_site_type_symbol
U          0.0      0.5      0.5     U
C       0.0106   0.3366   0.8454     C
C       0.0361   0.2565     0.78     C
C       0.0768    0.724   0.2828     C
O       0.0962    0.645   0.3772     O
H       0.0988   0.3598   0.9519     H
C       0.1181   0.3103   0.9049     C
C       0.1237   0.5473   0.1503     C
O       0.1378   0.7967   0.2391     O
O       0.1408   0.4729   0.0943     O
O       0.1441   0.2503   0.5236     O
C       0.1694   0.1533   0.7744     C
H       0.1859    0.097   0.7334     H
O       0.2239   0.5166   0.2049     O
C       0.2512    0.214   0.8967     C
C       0.2575   0.2559   0.4945     C
O       0.2618   0.3691   0.4686     O
C       0.2803   0.1326   0.8303     C
H       0.2962   0.0019   0.5814     H
O       0.3095   0.2172   0.0533     O
C       0.3554   0.1997   0.9622     C
U       0.3667  0.29875  0.16623     U
La     0.37562   0.7872  0.22479    La
C       0.3784   0.0013    0.549     C
C       0.3833    0.125   0.4976     C
C       0.4195   0.0281   0.8104     C
O       0.4253   0.7016   0.5703     O
O       0.4297   0.9085   0.8283     O
O       0.4745   0.1748   0.9329     O
C       0.4752   0.7463   0.6148     C
O       0.4831   0.9416   0.2235     O
C       0.4917    0.876   0.5543     C
O       0.4918   0.3084   0.2864     O
O       0.5082   0.6916   0.7136     O
C       0.5083    0.124   0.4457     C
O       0.5169   0.0584   0.7765     O
C       0.5248   0.2537   0.3852     C
O       0.5255   0.8252   0.0671     O
O       0.5703   0.0915   0.1717     O
O       0.5747   0.2984   0.4297     O
C       0.5805   0.9719   0.1896     C
C       0.6167    0.875   0.5024     C
C       0.6216   0.9987    0.451     C
La     0.62438   0.2128  0.77521    La
U       0.6333  0.70125  0.83377     U
C       0.6446   0.8003   0.0378     C
O       0.6905   0.7828   0.9467     O
H       0.7038   0.9981   0.4186     H
C       0.7197   0.8674   0.1697     C
O       0.7382   0.6309   0.5314     O
C       0.7425   0.7441   0.5055     C
C       0.7488    0.786   0.1033     C
O       0.7761   0.4834   0.7951     O
H       0.8141    0.903   0.2666     H
C       0.8306   0.8467   0.2256     C
O       0.8559   0.7497   0.4764     O
O       0.8592   0.5271   0.9057     O
O       0.8622   0.2033   0.7609     O
C       0.8763   0.4527   0.8497     C
C       0.8819   0.6897   0.0951     C
H       0.9012   0.6402   0.0481     H
O       0.9038    0.355   0.6228     O
C       0.9232    0.276   0.7172     C
C       0.9639   0.7435     0.22     C
C       0.9894   0.6634   0.1546     C
