data_I
_chemical_name_common  '/home/zhangsd/repos/MofS-CGCNN/ML/data/TSD/clean_cifs/XOCWUJ_clean'
_cell_length_a 10.51050
_cell_length_b 11.43900
_cell_length_c 13.44430
_cell_angle_alpha 68.99800
_cell_angle_beta  78.80500
_cell_angle_gamma 63.73200
_space_group_name_H-M_alt      'P 1'


loop_
_space_group_symop_operation_xyz
  'x, y, z' 

loop_
_atom_site_label
_atom_site_fract_x
_atom_site_fract_y
_atom_site_fract_z
_atom_site_type_symbol
U          0.0      0.5      0.5     U
C       0.0052   0.6565   0.1464     C
C       0.0128   0.2665   0.7862     C
H       0.0986   0.3616   0.9553     H
C       0.1055   0.7082   0.2741     C
C        0.112   0.3141    0.908     C
O       0.1139   0.6376   0.3732     O
O       0.1343   0.2495   0.5203     O
C        0.136   0.5374   0.1428     C
C       0.1462   0.1662   0.7746     C
O       0.1484   0.4639   0.0852     O
H       0.1575   0.1114   0.7337     H
O        0.188   0.7649   0.2288     O
O       0.2395   0.5038   0.1988     O
C       0.2485   0.2161   0.8941     C
C       0.2547    0.253   0.4923     C
C        0.265   0.1455   0.8231     C
O        0.265   0.3652   0.4651     O
H       0.2878   0.0013   0.5805     H
O        0.329   0.1949   0.0517     O
C       0.3628    0.195   0.9555     C
C       0.3744    0.001   0.5479     C
U       0.3778  0.28665  0.16321     U
C       0.3834   0.1226   0.4955     C
Tm     0.40179  0.76847  0.24958    Tm
C        0.407    0.043   0.7954     C
O       0.4122   0.6994   0.5796     O
O       0.4175    0.921   0.8185     O
C       0.4681   0.7461   0.6201     C
O       0.4846     0.18   0.9152     O
C       0.4899   0.8742   0.5554     C
O        0.497   0.9199   0.2458     O
O       0.4982    0.306   0.2828     O
O       0.5018    0.694   0.7172     O
O        0.503   0.0801   0.7542     O
C       0.5101   0.1258   0.4446     C
O       0.5154     0.82   0.0848     O
C       0.5319   0.2539   0.3799     C
O       0.5825    0.079   0.1815     O
O       0.5878   0.3006   0.4204     O
C        0.593    0.957   0.2046     C
Tm     0.59821  0.23153  0.75042    Tm
C       0.6166   0.8774   0.5045     C
U       0.6222  0.71335  0.83679     U
C       0.6256    0.999   0.4521     C
C       0.6372    0.805   0.0445     C
O        0.671   0.8051   0.9483     O
H       0.7122   0.9987   0.4195     H
O        0.735   0.6348   0.5349     O
C        0.735   0.8545   0.1769     C
C       0.7453    0.747   0.5077     C
C       0.7515   0.7839   0.1059     C
O       0.7605   0.4962   0.8012     O
O        0.812   0.2351   0.7712     O
H       0.8425   0.8886   0.2663     H
O       0.8516   0.5361   0.9148     O
C       0.8538   0.8338   0.2254     C
C        0.864   0.4626   0.8572     C
O       0.8657   0.7505   0.4797     O
O       0.8861   0.3624   0.6268     O
C        0.888   0.6859    0.092     C
C       0.8945   0.2918   0.7259     C
H       0.9014   0.6384   0.0447     H
C       0.9872   0.7335   0.2138     C
C       0.9948   0.3435   0.8536     C
