data_I
_chemical_name_common  '/home/zhangsd/repos/MofS-CGCNN/ML/data/TSD/clean_cifs/XOLGEM_clean'
_cell_length_a 17.69720
_cell_length_b 17.69720
_cell_length_c 76.39700
_cell_angle_alpha 90.00000
_cell_angle_beta  90.00000
_cell_angle_gamma 120.00000
_space_group_name_H-M_alt      'P 1'


loop_
_space_group_symop_operation_xyz
  'x, y, z' 

loop_
_atom_site_label
_atom_site_fract_x
_atom_site_fract_y
_atom_site_fract_z
_atom_site_type_symbol
Co         0.0      0.0   0.0688    Co
Co         0.0      0.0   0.4312    Co
Co         0.0      0.0   0.5688    Co
Co         0.0      0.0   0.9312    Co
Li         0.0  0.36785     0.75    Li
Li         0.0  0.63215     0.25    Li
C      0.00193  0.40707  0.11485     C
C      0.00193  0.59487  0.61485     C
C      0.00287  0.30723   0.3007     C
C      0.00287  0.69563   0.8007     C
Co     0.00537   0.4988  0.64384    Co
Co     0.00537  0.50658  0.14384    Co
C       0.0079   0.3116  0.51686     C
C       0.0079   0.6963  0.01686     C
N       0.0128   0.2337  0.00448     N
N       0.0128   0.7791  0.50448     N
O      0.01553  0.31367  0.72975     O
O      0.01553  0.70187  0.22975     O
C      0.01557  0.41513  0.32657     C
C      0.01557  0.60043  0.82657     C
O       0.0195   0.4062  0.53997     O
O       0.0195   0.6133  0.03997     O
O      0.01967  0.36853  0.39641     O
O      0.01967  0.65113  0.89641     O
C      0.02173  0.36297  0.18353     C
C      0.02173  0.65877  0.68353     C
C       0.0258   0.1647  0.07939     C
C       0.0258   0.8611  0.57939     C
C       0.0261   0.3623  0.96737     C
C       0.0261   0.6638  0.46737     C
C      0.02897  0.35943  0.86596     C
C      0.02897  0.66953  0.36596     C
C        0.029   0.1701  0.43692     C
C        0.029   0.8589  0.93692     C
C      0.02963  0.35507  0.64981     C
C      0.02963  0.67457  0.14981     C
Li     0.03452  0.33333  0.08333    Li
Li     0.03452  0.70118  0.58333    Li
O       0.0352    0.353  0.43692     O
O       0.0352   0.6822  0.93692     O
O      0.03713  0.17927  0.65025     O
O      0.03713  0.85787  0.15025     O
O       0.0445    0.107  0.08388     O
O       0.0445   0.9375  0.58388     O
N      0.04463  0.44327  0.16033     N
N      0.04463  0.60137  0.66033     N
O      0.04597  0.44923   0.3725     O
O      0.04597  0.59673   0.8725     O
N       0.0473   0.2809  0.99062     N
N       0.0473   0.7664  0.49062     N
O      0.04807  0.43623  0.87043     O
O      0.04807  0.61183  0.37043     O
O       0.0483   0.2339  0.08691     O
O       0.0483   0.8144  0.58691     O
N       0.0485   0.1506  0.95789     N
N       0.0485   0.8979  0.45789     N
N       0.0523   0.1159  0.44389     N
N       0.0523   0.9364  0.94389     N
N      0.05243  0.43307  0.65729     N
N      0.05243  0.61937  0.15729     N
O      0.05337  0.31383   0.8733     O
O      0.05337  0.73953   0.3733     O
O      0.05483  0.28527  0.20377     O
O      0.05483  0.76957  0.70377     O
O       0.0625    0.107  0.58388     O
O       0.0625   0.9555  0.08388     O
N       0.0636   0.1159  0.94389     N
N       0.0636   0.9477  0.44389     N
N       0.0653   0.2887  0.49366     N
N       0.0653   0.7766  0.99366     N
C       0.0656   0.2437  0.44737     C
C       0.0656   0.8219  0.94737     C
C      0.06623  0.31777  0.65991     C
C      0.06623  0.74847  0.15991     C
O      0.06993  0.28737  0.70584     O
O      0.06993  0.78257  0.20584     O
C       0.0718   0.3314  0.44818     C
C       0.0718   0.7404  0.94818     C
C      0.07283  0.23607  0.66122     C
C      0.07283  0.83677  0.16122     C
O      0.07287  0.35283  0.29336     O
O      0.07287  0.72003  0.79336     O
C      0.07373  0.33527  0.71849     C
C      0.07373  0.73847  0.21849     C
C       0.0818   0.3489  0.50676     C
C       0.0818   0.7329  0.00676     C
C      0.08963  0.48857  0.11404     C
C      0.08963  0.60107  0.61404     C
C      0.09727  0.50343  0.32788     C
C      0.09727  0.59383  0.82788     C
O      0.09943  0.48107  0.75358     O
O      0.09943  0.61837  0.25358     O
N      0.09963  0.44577  0.67115     N
N      0.09963  0.65387  0.17115     N
N      0.09973  0.38577  0.17605     N
N      0.09973  0.71397  0.67605     N
O      0.10047  0.54883  0.34083     O
O      0.10047  0.55163  0.84083     O
N       0.1021   0.1506  0.45789     N
N       0.1021   0.9515  0.95789     N
O       0.1029   0.3814   0.9629     O
O       0.1029   0.7215   0.4629     O
N      0.10503  0.54897  0.12648     N
N      0.10503  0.55607  0.62648     N
O        0.107   0.0445  0.41612     O
O        0.107   0.0625  0.91612     O
N      0.10993  0.37797  0.67301     N
N      0.10993  0.73197  0.17301     N
N       0.1106   0.2283  0.45981     N
N       0.1106   0.8823  0.95981     N
N      0.11243  0.43297  0.16219     N
N      0.11243  0.67947  0.66219     N
O      0.11503  0.23287  0.67417     O
O      0.11503  0.88217  0.17417     O
N       0.1159   0.0523  0.05611     N
N       0.1159   0.0636  0.55611     N
O       0.1159   0.3793  0.46083     O
O       0.1159   0.7366  0.96083     O
N       0.1177   0.2283  0.95981     N
N       0.1177   0.8894  0.45981     N
O      0.11783  0.23287  0.17417     O
O      0.11783  0.88497  0.67417     O
C       0.1389   0.1647  0.57939     C
C       0.1389   0.9742  0.07939     C
C       0.1411   0.1701  0.93692     C
C       0.1411    0.971  0.43692     C
O      0.14213  0.17927  0.15025     O
O      0.14213  0.96287  0.65025     O
O      0.14773  0.43277  0.07976     O
O      0.14773  0.71497  0.57976     O
N       0.1506   0.0485  0.54211     N
N       0.1506   0.1021  0.04211     N
O      0.15407  0.52453  0.31691     O
O      0.15407  0.62953  0.81691     O
C      0.15523  0.42297   0.7193     C
C      0.15523  0.73227   0.2193     C
Co     0.16009  0.32796  0.97717    Co
Co     0.16009  0.83213  0.47717    Co
C      0.16323  0.23607  0.16122     C
C      0.16323  0.52557  0.10359     C
C      0.16323  0.63767  0.60359     C
C      0.16323  0.92717  0.66122     C
C       0.1647   0.0258  0.42061     C
C       0.1647   0.1389  0.92061     C
Co     0.16546  0.33871  0.18949    Co
Co     0.16546  0.82676  0.68949    Co
Co     0.16787  0.32796  0.47717    Co
Co     0.16787  0.83991  0.97717    Co
C      0.16863  0.52777  0.74606     C
C      0.16863  0.64087  0.24606     C
C       0.1701    0.029  0.06308     C
C       0.1701   0.1411  0.56308     C
C       0.1701   0.4306  0.50545     C
C       0.1701   0.7395  0.00545     C
Co     0.17324  0.33871  0.68949    Co
Co     0.17324  0.83454  0.18949    Co
C       0.1781   0.2437  0.94737     C
C       0.1781   0.9344  0.44737     C
O      0.17927  0.03713  0.84975     O
O      0.17927  0.14213  0.34975     O
N      0.18273  0.56457  0.62456     N
N      0.18273  0.61817  0.12456     N
O       0.1856   0.2339  0.58691     O
O       0.1856   0.9517  0.08691     O
O       0.1912   0.4874  0.51642     O
O       0.1912   0.7038  0.01642     O
C      0.19223  0.49657  0.72975     C
C      0.19223  0.69567  0.22975     C
C      0.19443  0.50197  0.08728     C
C      0.19443  0.69247  0.58728     C
O       0.2155   0.4338   0.4925     O
O       0.2155   0.7817   0.9925     O
N      0.21563  0.43837  0.70686     N
N      0.21563  0.77727  0.20686     N
O      0.21743  0.28737  0.20584     O
N      0.21743  0.60307  0.11056     N
N      0.21743  0.61437  0.61056     N
O      0.21743  0.93007  0.70584     O
O       0.2183   0.4338   0.9925     O
O       0.2183   0.7845   0.4925     O
N       0.2209   0.2337  0.50448     N
N       0.2209   0.9872  0.00448     N
N      0.22273  0.43837  0.20686     N
N      0.22273  0.78437  0.70686     N
N       0.2234   0.2887  0.99366     N
N       0.2234   0.9347  0.49366     N
O      0.22633  0.60417  0.75055     O
O      0.22633  0.62217  0.25055     O
N       0.2283   0.1106  0.04019     N
N       0.2283   0.1177  0.54019     N
O      0.23043  0.28527  0.70377     O
O      0.23043  0.94517  0.20377     O
N      0.23123  0.51607  0.20878     N
N      0.23123  0.71517  0.70878     N
O      0.23287  0.11503  0.82583     O
O      0.23287  0.11783  0.32583     O
N       0.2336   0.2809  0.49062     N
N       0.2336   0.9527  0.99062     N
N       0.2337   0.0128  0.49552     N
N       0.2337   0.2209  0.99552     N
O       0.2339   0.0483  0.41309     O
O       0.2339   0.1856  0.91309     O
C      0.23607  0.07283  0.83878     C
C      0.23607  0.16323  0.33878     C
C       0.2437   0.0656  0.05263     C
C       0.2437   0.1781  0.55263     C
C      0.25153  0.31777  0.15991     C
C      0.25153  0.93377  0.65991     C
C       0.2596   0.3314  0.94818     C
C       0.2596   0.9282  0.44818     C
O      0.26047  0.31383   0.3733     O
O      0.26047  0.94663   0.8733     O
C       0.2605   0.4306  0.00545     C
C       0.2605   0.8299  0.50545     C
C      0.26153  0.33527  0.21849     C
C      0.26153  0.92627  0.71849     C
O       0.2634   0.3793  0.96083     O
O       0.2634   0.8841  0.46083     O
C       0.2671   0.3489  0.00676     C
C       0.2671   0.9182  0.50676     C
C      0.26773  0.42297   0.2193     C
C      0.26773  0.84477   0.7193     C
N      0.26803  0.37797  0.17301     N
N      0.26803  0.89007  0.67301     N
N      0.26973  0.55077  0.72278     N
N      0.26973  0.71897  0.22278     N
O      0.27083  0.55967  0.08279     O
O      0.27083  0.71117  0.58279     O
O       0.2785   0.3814   0.4629     O
O       0.2785   0.8971   0.9629     O
O      0.27997  0.35283  0.79336     O
O      0.27997  0.92713  0.29336     O
N       0.2809   0.0473  0.50938     N
N       0.2809   0.2336  0.00938     N
N      0.28103  0.55077  0.22278     N
N      0.28103  0.73027  0.72278     N
N      0.28483  0.51607  0.70878     N
N      0.28483  0.76877  0.20878     N
O      0.28503  0.43277  0.57976     O
O      0.28503  0.85227  0.07976     O
O      0.28527  0.05483  0.29623     O
O      0.28527  0.23043  0.79623     O
N      0.28603  0.38577  0.67605     N
N      0.28603  0.90027  0.17605     N
O      0.28737  0.06993  0.79416     O
O      0.28737  0.21743  0.29416     O
N       0.2887   0.0653  0.00634     N
N       0.2887   0.2234  0.50634     N
O      0.28883  0.55967  0.58279     O
O      0.28883  0.72917  0.08279     O
O       0.2962   0.4874  0.01642     O
O       0.2962   0.8088  0.51642     O
O      0.29813  0.31367  0.22975     O
O      0.29813  0.98447  0.72975     O
Li     0.29882  0.33333  0.58333    Li
Li     0.29882  0.96548  0.08333    Li
C       0.3037   0.3116  0.01686     C
C       0.3037   0.9921  0.51686     C
C      0.30433  0.49657  0.22975     C
C      0.30433  0.80777  0.72975     C
C      0.30437  0.30723   0.8007     C
C      0.30437  0.99713   0.3007     C
C      0.30723  0.00287   0.1993     C
C      0.30723  0.30437   0.6993     C
C      0.30753  0.50197  0.58728     C
C      0.30753  0.80557  0.08728     C
C       0.3116   0.0079  0.98314     C
C       0.3116   0.3037  0.48314     C
O      0.31367  0.01553  0.77025     O
O      0.31367  0.29813  0.27025     O
O      0.31383  0.05337   0.6267     O
O      0.31383  0.26047   0.1267     O
C      0.31777  0.06623  0.84009     C
C      0.31777  0.25153  0.34009     C
O       0.3178    0.353  0.93692     O
O       0.3178   0.9648  0.43692     O
N      0.32053  0.43297  0.66219     N
N      0.32053  0.88757  0.16219     N
C      0.32543  0.35507  0.14981     C
C      0.32543  0.97037  0.64981     C
Co     0.32796  0.16009  0.52283    Co
Co     0.32796  0.16787  0.02283    Co
C      0.33047  0.35943  0.36596     C
C      0.33047  0.97103  0.86596     C
C       0.3314   0.0718  0.05182     C
C       0.3314   0.2596  0.55182     C
Li     0.33333  0.03452  0.41667    Li
Li     0.33333  0.29882  0.91667    Li
Co     0.33333  0.66667  0.09786    Co
Co     0.33333  0.66667  0.23547    Co
Co     0.33333  0.66667  0.59786    Co
Co     0.33333  0.66667  0.73547    Co
C      0.33527  0.07373  0.78151     C
C      0.33527  0.26153  0.28151     C
C       0.3362   0.3623  0.46737     C
C       0.3362   0.9739  0.96737     C
Co     0.33871  0.16546  0.31051    Co
Co     0.33871  0.17324  0.81051    Co
C      0.34123  0.36297  0.68353     C
C      0.34123  0.97827  0.18353     C
N      0.34613  0.44577  0.17115     N
N      0.34613  0.90037  0.67115     N
O      0.34887  0.36853  0.89641     O
O      0.34887  0.98033  0.39641     O
C       0.3489   0.0818  0.99324     C
C       0.3489   0.2671  0.49324     C
O      0.35283  0.07287  0.20664     O
O      0.35283  0.27997  0.70664     O
O        0.353   0.0352  0.06308     O
O        0.353   0.3178  0.56308     O
C      0.35507  0.02963  0.85019     C
C      0.35507  0.32543  0.35019     C
C      0.35913  0.52777  0.24606     C
C      0.35913  0.83137  0.74606     C
C      0.35943  0.02897  0.63404     C
C      0.35943  0.33047  0.13404     C
C       0.3623   0.0261  0.53263     C
C       0.3623   0.3362  0.03263     C
C      0.36233  0.52557  0.60359     C
C      0.36233  0.83677  0.10359     C
C      0.36297  0.02173  0.31647     C
C      0.36297  0.34123  0.81647     C
Li     0.36785      0.0     0.75    Li
Li     0.36785  0.36785     0.25    Li
O      0.36853  0.01967  0.10359     O
O      0.36853  0.34887  0.60359     O
O      0.37047  0.52453  0.81691     O
O      0.37047  0.84593  0.31691     O
O      0.37783  0.60417  0.25055     O
O      0.37783  0.77367  0.75055     O
N      0.37797  0.10993  0.82699     N
N      0.37797  0.26803  0.32699     N
O       0.3793   0.1159  0.03917     O
O       0.3793   0.2634  0.53917     O
N      0.38063  0.43307  0.15729     N
N      0.38063  0.94757  0.65729     N
O       0.3814   0.1029   0.5371     O
O       0.3814   0.2785   0.0371     O
O      0.38163  0.48107  0.25358     O
O      0.38163  0.90057  0.75358     O
N      0.38183  0.56457  0.12456     N
N      0.38183  0.81727  0.62456     N
N      0.38563  0.60307  0.61056     N
N      0.38563  0.78257  0.11056     N
N      0.38577  0.09973  0.32395     N
N      0.38577  0.28603  0.82395     N
O       0.3867   0.4062  0.03997     O
O       0.3867   0.9805  0.53997     O
O      0.38817  0.43623  0.37043     O
O      0.38817  0.95193  0.87043     O
O      0.39583  0.62217  0.75055     O
O      0.39583  0.77367  0.25055     O
N      0.39693  0.61437  0.11056     N
N      0.39693  0.78257  0.61056     N
N      0.39863  0.44327  0.66033     N
N      0.39863  0.95537  0.16033     N
C      0.39893  0.48857  0.61404     C
C      0.39893  0.91037  0.11404     C
C      0.39957  0.41513  0.82657     C
C      0.39957  0.98443  0.32657     C
O      0.40327  0.44923   0.8725     O
O      0.40327  0.95403   0.3725     O
C      0.40513  0.40707  0.61485     C
C      0.40513  0.99807  0.11485     C
C      0.40617  0.50343  0.82788     C
C      0.40617  0.90273  0.32788     C
O       0.4062   0.0195  0.96003     O
O       0.4062   0.3867  0.46003     O
C      0.40707  0.00193  0.38515     C
C      0.40707  0.40513  0.88515     C
C      0.41513  0.01557  0.17343     C
C      0.41513  0.39957  0.67343     C
C      0.42297  0.15523   0.7807     C
C      0.42297  0.26773   0.2807     C
C       0.4306   0.1701  0.99455     C
C       0.4306   0.2605  0.49455     C
O      0.43277  0.14773  0.42024     O
O      0.43277  0.28503  0.92024     O
N      0.43297  0.11243  0.33781     N
N      0.43297  0.32053  0.83781     N
N      0.43307  0.05243  0.84271     N
N      0.43307  0.38063  0.34271     N
O       0.4338   0.2155   0.0075     O
O       0.4338   0.2183   0.5075     O
N      0.43543  0.61817  0.62456     N
N      0.43543  0.81727  0.12456     N
O      0.43623  0.04807  0.62957     O
O      0.43623  0.38817  0.12957     O
N      0.43837  0.21563  0.79314     N
N      0.43837  0.22273  0.29314     N
O      0.44033  0.71117  0.08279     O
O      0.44033  0.72917  0.58279     O
N      0.44327  0.04463  0.33967     N
N      0.44327  0.39863  0.83967     N
N      0.44393  0.54897  0.62648     N
N      0.44393  0.89497  0.12648     N
N      0.44577  0.09963  0.82885     N
N      0.44577  0.34613  0.32885     N
O      0.44837  0.54883  0.84083     O
O      0.44837  0.89953  0.34083     O
O      0.44923  0.04597   0.1275     O
O      0.44923  0.40327   0.6275     O
N      0.44923  0.71897  0.72278     N
N      0.44923  0.73027  0.22278     N
N      0.45103  0.55607  0.12648     N
N      0.45103  0.89497  0.62648     N
O      0.45117  0.55163  0.34083     O
O      0.45117  0.89953  0.84083     O
C      0.47223  0.64087  0.74606     C
C      0.47223  0.83137  0.24606     C
C      0.47443  0.63767  0.10359     C
C      0.47443  0.83677  0.60359     C
O      0.47547  0.62953  0.31691     O
O      0.47547  0.84593  0.81691     O
O      0.48107  0.09943  0.74642     O
O      0.48107  0.38163  0.24642     O
N      0.48393  0.71517  0.20878     N
N      0.48393  0.76877  0.70878     N
O       0.4874   0.1912  0.98358     O
O       0.4874   0.2962  0.48358     O
C      0.48857  0.08963  0.38596     C
C      0.48857  0.39893  0.88596     C
Co     0.49342   0.4988  0.14384    Co
Co     0.49342  0.99463  0.64384    Co
C      0.49657  0.19223  0.77025     C
C      0.49657  0.30433  0.27025     C
C      0.49657  0.59383  0.32788     C
C      0.49657  0.90273  0.82788     C
C      0.49803  0.69247  0.08728     C
C      0.49803  0.80557  0.58728     C
Co      0.4988  0.00537  0.85616    Co
Co      0.4988  0.49342  0.35616    Co
Co      0.5012  0.50658  0.64384    Co
Co      0.5012  0.99463  0.14384    Co
C      0.50197  0.19443  0.41272     C
C      0.50197  0.30753  0.91272     C
C      0.50343  0.09727  0.17212     C
C      0.50343  0.40617  0.67212     C
C      0.50343  0.69567  0.72975     C
C      0.50343  0.80777  0.22975     C
Co     0.50658  0.00537  0.35616    Co
Co     0.50658   0.5012  0.85616    Co
C      0.51143  0.60107  0.11404     C
C      0.51143  0.91037  0.61404     C
O       0.5126   0.7038  0.51642     O
O       0.5126   0.8088  0.01642     O
N      0.51607  0.23123  0.29122     N
N      0.51607  0.28483  0.79122     N
O      0.51893  0.61837  0.75358     O
O      0.51893  0.90057  0.25358     O
O      0.52453  0.15407  0.18309     O
O      0.52453  0.37047  0.68309     O
C      0.52557  0.16323  0.39641     C
C      0.52557  0.36233  0.89641     C
C      0.52777  0.16863  0.75394     C
C      0.52777  0.35913  0.25394     C
O      0.54883  0.10047  0.15917     O
O      0.54883  0.44837  0.65917     O
N      0.54897  0.10503  0.37352     N
N      0.54897  0.44393  0.87352     N
N      0.55077  0.26973  0.77722     N
N      0.55077  0.28103  0.27722     N
O      0.55077  0.59673   0.3725     O
O      0.55077  0.95403   0.8725     O
O      0.55163  0.10047  0.65917     O
O      0.55163  0.45117  0.15917     O
N      0.55423  0.65387  0.67115     N
N      0.55423  0.90037  0.17115     N
N      0.55607  0.10503  0.87352     N
N      0.55607  0.45103  0.37352     N
N      0.55673  0.60137  0.16033     N
N      0.55673  0.95537  0.66033     N
O      0.55967  0.27083  0.41721     O
O      0.55967  0.28883  0.91721     O
N      0.56163  0.77727  0.70686     N
N      0.56163  0.78437  0.20686     N
O      0.56377  0.61183  0.87043     O
O      0.56377  0.95193  0.37043     O
N      0.56457  0.18273  0.87544     N
N      0.56457  0.38183  0.37544     N
O       0.5662   0.7817   0.4925     O
O       0.5662   0.7845   0.9925     O
N      0.56693  0.61937  0.65729     N
N      0.56693  0.94757  0.15729     N
N      0.56703  0.67947  0.16219     N
N      0.56703  0.88757  0.66219     N
O      0.56723  0.71497  0.07976     O
O      0.56723  0.85227  0.57976     O
C       0.5694   0.7395  0.50545     C
C       0.5694   0.8299  0.00545     C
C      0.57703  0.73227   0.7193     C
C      0.57703  0.84477   0.2193     C
C      0.58487  0.60043  0.32657     C
C      0.58487  0.98443  0.82657     C
C      0.59293  0.59487  0.11485     C
C      0.59293  0.99807  0.61485     C
O       0.5938   0.6133  0.53997     O
O       0.5938   0.9805  0.03997     O
C      0.59383  0.09727  0.67212     C
C      0.59383  0.49657  0.17212     C
C      0.59487  0.00193  0.88515     C
C      0.59487  0.59293  0.38515     C
O      0.59673  0.04597   0.6275     O
O      0.59673  0.55077   0.1275     O
C      0.60043  0.01557  0.67343     C
C      0.60043  0.58487  0.17343     C
C      0.60107  0.08963  0.88596     C
C      0.60107  0.51143  0.38596     C
N      0.60137  0.04463  0.83967     N
N      0.60137  0.55673  0.33967     N
N      0.60307  0.21743  0.38944     N
N      0.60307  0.38563  0.88944     N
O      0.60417  0.22633  0.74945     O
O      0.60417  0.37783  0.24945     O
O      0.61183  0.04807  0.12957     O
O      0.61183  0.56377  0.62957     O
O       0.6133   0.0195  0.46003     O
O       0.6133   0.5938  0.96003     O
N      0.61423  0.71397  0.17605     N
N      0.61423  0.90027  0.67605     N
N      0.61437  0.21743  0.88944     N
N      0.61437  0.39693  0.38944     N
N      0.61817  0.18273  0.37544     N
N      0.61817  0.43543  0.87544     N
O      0.61837  0.09943  0.24642     O
O      0.61837  0.51893  0.74642     O
O       0.6186   0.7215   0.9629     O
O       0.6186   0.8971   0.4629     O
N      0.61937  0.05243  0.34271     N
N      0.61937  0.56693  0.84271     N
O       0.6207   0.7366  0.46083     O
O       0.6207   0.8841  0.96083     O
N      0.62203  0.73197  0.67301     N
N      0.62203  0.89007  0.17301     N
O      0.62217  0.22633  0.24945     O
O      0.62217  0.39583  0.74945     O
O      0.62953  0.15407  0.68309     O
O      0.62953  0.47547  0.18309     O
O      0.63147  0.65113  0.39641     O
O      0.63147  0.98033  0.89641     O
Li     0.63215      0.0     0.25    Li
Li     0.63215  0.63215     0.75    Li
C      0.63703  0.65877  0.18353     C
C      0.63703  0.97827  0.68353     C
C      0.63767  0.16323  0.89641     C
C      0.63767  0.47443  0.39641     C
C       0.6377   0.6638  0.96737     C
C       0.6377   0.9739  0.46737     C
C      0.64057  0.66953  0.86596     C
C      0.64057  0.97103  0.36596     C
C      0.64087  0.16863  0.25394     C
C      0.64087  0.47223  0.75394     C
C      0.64493  0.67457  0.64981     C
C      0.64493  0.97037  0.14981     C
O        0.647   0.6822  0.43692     O
O        0.647   0.9648  0.93692     O
O      0.64717  0.72003  0.29336     O
O      0.64717  0.92713  0.79336     O
C       0.6511   0.7329  0.50676     C
C       0.6511   0.9182  0.00676     C
O      0.65113  0.01967  0.60359     O
O      0.65113  0.63147  0.10359     O
N      0.65387  0.09963  0.32885     N
N      0.65387  0.55423  0.82885     N
C      0.65877  0.02173  0.81647     C
C      0.65877  0.63703  0.31647     C
Co     0.66129  0.82676  0.18949    Co
Co     0.66129  0.83454  0.68949    Co
C       0.6638   0.0261  0.03263     C
C       0.6638   0.6377  0.53263     C
C      0.66473  0.73847  0.71849     C
C      0.66473  0.92627  0.21849     C
Co     0.66667  0.33333  0.26453    Co
Co     0.66667  0.33333  0.40214    Co
Co     0.66667  0.33333  0.76453    Co
Co     0.66667  0.33333  0.90214    Co
Li     0.66667  0.70118  0.08333    Li
Li     0.66667  0.96548  0.58333    Li
C       0.6686   0.7404  0.44818     C
C       0.6686   0.9282  0.94818     C
C      0.66953  0.02897  0.13404     C
C      0.66953  0.64057  0.63404     C
Co     0.67204  0.83213  0.97717    Co
Co     0.67204  0.83991  0.47717    Co
C      0.67457  0.02963  0.35019     C
C      0.67457  0.64493  0.85019     C
N      0.67947  0.11243  0.83781     N
N      0.67947  0.56703  0.33781     N
O       0.6822   0.0352  0.56308     O
O       0.6822    0.647  0.06308     O
C      0.68223  0.74847  0.65991     C
C      0.68223  0.93377  0.15991     C
O      0.68617  0.73953   0.8733     O
O      0.68617  0.94663   0.3733     O
O      0.68633  0.70187  0.72975     O
O      0.68633  0.98447  0.22975     O
C       0.6884   0.6963  0.51686     C
C       0.6884   0.9921  0.01686     C
C      0.69247  0.19443  0.91272     C
C      0.69247  0.49803  0.41272     C
C      0.69277  0.69563   0.3007     C
C      0.69277  0.99713   0.8007     C
C      0.69563  0.00287   0.6993     C
C      0.69563  0.69277   0.1993     C
C      0.69567  0.19223  0.27025     C
C      0.69567  0.50343  0.77025     C
C       0.6963   0.0079  0.48314     C
C       0.6963   0.6884  0.98314     C
Li     0.70118  0.03452  0.91667    Li
Li     0.70118  0.66667  0.41667    Li
O      0.70187  0.01553  0.27025     O
O      0.70187  0.68633  0.77025     O
O       0.7038   0.1912  0.48358     O
O       0.7038   0.5126  0.98358     O
O      0.71117  0.27083  0.91721     O
O      0.71117  0.44033  0.41721     O
N       0.7113   0.7766  0.49366     N
N       0.7113   0.9347  0.99366     N
O      0.71263  0.78257  0.70584     O
O      0.71263  0.93007  0.20584     O
N      0.71397  0.09973  0.82395     N
N      0.71397  0.61423  0.32395     N
O      0.71473  0.76957  0.20377     O
O      0.71473  0.94517  0.70377     O
O      0.71497  0.14773  0.92024     O
O      0.71497  0.56723  0.42024     O
N      0.71517  0.23123  0.79122     N
N      0.71517  0.48393  0.29122     N
N      0.71897  0.26973  0.27722     N
N      0.71897  0.44923  0.77722     N
N       0.7191   0.7664  0.99062     N
N       0.7191   0.9527  0.49062     N
O      0.72003  0.07287  0.70664     O
O      0.72003  0.64717  0.20664     O
O       0.7215   0.1029   0.0371     O
O       0.7215   0.6186   0.5371     O
O      0.72917  0.28883  0.41721     O
O      0.72917  0.44033  0.91721     O
N      0.73027  0.28103  0.77722     N
N      0.73027  0.44923  0.27722     N
N      0.73197  0.10993  0.32699     N
N      0.73197  0.62203  0.82699     N
C      0.73227  0.15523   0.2807     C
C      0.73227  0.57703   0.7807     C
C       0.7329   0.0818  0.49324     C
C       0.7329   0.6511  0.99324     C
O       0.7366   0.1159  0.53917     O
O       0.7366   0.6207  0.03917     O
C      0.73847  0.07373  0.28151     C
C      0.73847  0.66473  0.78151     C
C       0.7395   0.1701  0.49455     C
C       0.7395   0.5694  0.99455     C
O      0.73953  0.05337   0.1267     O
O      0.73953  0.68617   0.6267     O
C       0.7404   0.0718  0.55182     C
C       0.7404   0.6686  0.05182     C
C      0.74847  0.06623  0.34009     C
C      0.74847  0.68223  0.84009     C
C       0.7563   0.8219  0.44737     C
C       0.7563   0.9344  0.94737     C
C      0.76393  0.83677  0.66122     C
C      0.76393  0.92717  0.16122     C
O       0.7661   0.8144  0.08691     O
O       0.7661   0.9517  0.58691     O
N       0.7663   0.7791  0.00448     N
N       0.7663   0.9872  0.50448     N
N       0.7664   0.0473  0.00938     N
N       0.7664   0.7191  0.50938     N
O      0.76713  0.88217  0.67417     O
O      0.76713  0.88497  0.17417     O
N      0.76877  0.28483  0.29122     N
N      0.76877  0.48393  0.79122     N
O      0.76957  0.05483  0.79623     O
O      0.76957  0.71473  0.29623     O
N       0.7717   0.8823  0.45981     N
N       0.7717   0.8894  0.95981     N
O      0.77367  0.37783  0.74945     O
O      0.77367  0.39583  0.24945     O
N       0.7766   0.0653  0.50634     N
N       0.7766   0.7113  0.00634     N
N      0.77727  0.21563  0.29314     N
N      0.77727  0.56163  0.79314     N
N       0.7791   0.0128  0.99552     N
N       0.7791   0.7663  0.49552     N
O       0.7817   0.2155   0.5075     O
O       0.7817   0.5662   0.0075     O
O      0.78257  0.06993  0.29416     O
N      0.78257  0.38563  0.38944     N
N      0.78257  0.39693  0.88944     N
O      0.78257  0.71263  0.79416     O
N      0.78437  0.22273  0.79314     N
N      0.78437  0.56163  0.29314     N
O       0.7845   0.2183   0.0075     O
O       0.7845   0.5662   0.5075     O
C      0.80557  0.30753  0.41272     C
C      0.80557  0.49803  0.91272     C
C      0.80777  0.30433  0.77025     C
C      0.80777  0.50343  0.27025     C
O       0.8088   0.2962  0.98358     O
O       0.8088   0.5126  0.48358     O
O       0.8144   0.0483  0.91309     O
O       0.8144   0.7661  0.41309     O
N      0.81727  0.38183  0.87544     N
N      0.81727  0.43543  0.37544     N
O      0.82073  0.85787  0.65025     O
O      0.82073  0.96287  0.15025     O
C       0.8219   0.0656  0.55263     C
C       0.8219   0.7563  0.05263     C
Co     0.82676  0.16546  0.81051    Co
Co     0.82676  0.66129  0.31051    Co
C       0.8299   0.2605  0.99455     C
C       0.8299   0.5694  0.49455     C
C       0.8299   0.8589  0.43692     C
C       0.8299    0.971  0.93692     C
C      0.83137  0.35913  0.75394     C
C      0.83137  0.47223  0.25394     C
Co     0.83213  0.16009  0.02283    Co
Co     0.83213  0.67204  0.52283    Co
Co     0.83454  0.17324  0.31051    Co
Co     0.83454  0.66129  0.81051    Co
C       0.8353   0.8611  0.07939     C
C       0.8353   0.9742  0.57939     C
C      0.83677  0.07283  0.33878     C
C      0.83677  0.36233  0.39641     C
C      0.83677  0.47443  0.89641     C
C      0.83677  0.76393  0.83878     C
Co     0.83991  0.16787  0.52283    Co
Co     0.83991  0.67204  0.02283    Co
C      0.84477  0.26773   0.7807     C
C      0.84477  0.57703   0.2807     C
O      0.84593  0.37047  0.18309     O
O      0.84593  0.47547  0.68309     O
N       0.8494   0.8979  0.95789     N
N       0.8494   0.9515  0.45789     N
O      0.85227  0.28503  0.42024     O
O      0.85227  0.56723  0.92024     O
O      0.85787  0.03713  0.34975     O
O      0.85787  0.82073  0.84975     O
C       0.8589    0.029  0.56308     C
C       0.8589   0.8299  0.06308     C
C       0.8611   0.0258  0.92061     C
C       0.8611   0.8353  0.42061     C
O      0.88217  0.11503  0.32583     O
O      0.88217  0.76713  0.82583     O
N       0.8823   0.1106  0.54019     N
N       0.8823   0.7717  0.04019     N
O       0.8841   0.2634  0.03917     O
O       0.8841   0.6207  0.53917     O
N       0.8841   0.9364  0.44389     N
N       0.8841   0.9477  0.94389     N
O      0.88497  0.11783  0.82583     O
O      0.88497  0.76713  0.32583     O
N      0.88757  0.32053  0.33781     N
N      0.88757  0.56703  0.83781     N
N       0.8894   0.1177  0.04019     N
N       0.8894   0.7717  0.54019     N
N      0.89007  0.26803  0.82699     N
N      0.89007  0.62203  0.32699     N
O        0.893   0.9375  0.08388     O
O        0.893   0.9555  0.58388     O
N      0.89497  0.44393  0.37352     N
N      0.89497  0.45103  0.87352     N
O       0.8971   0.2785   0.5371     O
O       0.8971   0.6186   0.0371     O
N       0.8979   0.0485  0.04211     N
N       0.8979   0.8494  0.54211     N
O      0.89953  0.44837  0.15917     O
O      0.89953  0.45117  0.65917     O
N      0.90027  0.28603  0.32395     N
N      0.90027  0.61423  0.82395     N
N      0.90037  0.34613  0.82885     N
N      0.90037  0.55423  0.32885     N
O      0.90057  0.38163  0.74642     O
O      0.90057  0.51893  0.24642     O
C      0.90273  0.40617  0.17212     C
C      0.90273  0.49657  0.67212     C
C      0.91037  0.39893  0.38596     C
C      0.91037  0.51143  0.88596     C
C       0.9182   0.2671  0.99324     C
C       0.9182   0.6511  0.49324     C
C      0.92627  0.26153  0.78151     C
C      0.92627  0.66473  0.28151     C
O      0.92713  0.27997  0.20664     O
O      0.92713  0.64717  0.70664     O
C      0.92717  0.16323  0.83878     C
C      0.92717  0.76393  0.33878     C
C       0.9282   0.2596  0.05182     C
C       0.9282   0.6686  0.55182     C
O      0.93007  0.21743  0.79416     O
O      0.93007  0.71263  0.29416     O
C      0.93377  0.25153  0.84009     C
C      0.93377  0.68223  0.34009     C
C       0.9344   0.1781  0.05263     C
C       0.9344   0.7563  0.55263     C
N       0.9347   0.2234  0.00634     N
N       0.9347   0.7113  0.50634     N
N       0.9364   0.0523  0.55611     N
N       0.9364   0.8841  0.05611     N
O       0.9375   0.0445  0.91612     O
O       0.9375    0.893  0.41612     O
O      0.94517  0.23043  0.29623     O
O      0.94517  0.71473  0.79623     O
O      0.94663  0.26047   0.6267     O
O      0.94663  0.68617   0.1267     O
N      0.94757  0.38063  0.84271     N
N      0.94757  0.56693  0.34271     N
N       0.9477   0.0636  0.05611     N
N       0.9477   0.8841  0.55611     N
N       0.9515   0.1021  0.54211     N
N       0.9515   0.8494  0.04211     N
O       0.9517   0.1856  0.41309     O
O       0.9517   0.7661  0.91309     O
O      0.95193  0.38817  0.62957     O
O      0.95193  0.56377  0.12957     O
N       0.9527   0.2336  0.50938     N
N       0.9527   0.7191  0.00938     N
O      0.95403  0.40327   0.1275     O
O      0.95403  0.55077   0.6275     O
N      0.95537  0.39863  0.33967     N
N      0.95537  0.55673  0.83967     N
O       0.9555   0.0625  0.41612     O
O       0.9555    0.893  0.91612     O
O      0.96287  0.14213  0.84975     O
O      0.96287  0.82073  0.34975     O
O       0.9648   0.3178  0.06308     O
O       0.9648    0.647  0.56308     O
Li     0.96548  0.29882  0.41667    Li
Li     0.96548  0.66667  0.91667    Li
C      0.97037  0.32543  0.85019     C
C      0.97037  0.64493  0.35019     C
C        0.971   0.1411  0.06308     C
C        0.971   0.8299  0.56308     C
C      0.97103  0.33047  0.63404     C
C      0.97103  0.64057  0.13404     C
C       0.9739   0.3362  0.53263     C
C       0.9739   0.6377  0.03263     C
C       0.9742   0.1389  0.42061     C
C       0.9742   0.8353  0.92061     C
C      0.97827  0.34123  0.31647     C
C      0.97827  0.63703  0.81647     C
O      0.98033  0.34887  0.10359     O
O      0.98033  0.63147  0.60359     O
O       0.9805   0.3867  0.96003     O
O       0.9805   0.5938  0.46003     O
C      0.98443  0.39957  0.17343     C
C      0.98443  0.58487  0.67343     C
O      0.98447  0.29813  0.77025     O
O      0.98447  0.68633  0.27025     O
N       0.9872   0.2209  0.49552     N
N       0.9872   0.7663  0.99552     N
C       0.9921   0.3037  0.98314     C
C       0.9921   0.6884  0.48314     C
Co     0.99463  0.49342  0.85616    Co
Co     0.99463   0.5012  0.35616    Co
C      0.99713  0.30437   0.1993     C
C      0.99713  0.69277   0.6993     C
C      0.99807  0.40513  0.38515     C
C      0.99807  0.59293  0.88515     C
