data_I
_chemical_name_common  '/home/zhangsd/repos/MofS-CGCNN/ML/data/TSD/clean_cifs/XOPLUL_clean'
_cell_length_a  9.43270
_cell_length_b 10.19540
_cell_length_c 11.24520
_cell_angle_alpha 63.98300
_cell_angle_beta  73.21200
_cell_angle_gamma 83.22000
_space_group_name_H-M_alt      'P 1'


loop_
_space_group_symop_operation_xyz
  'x, y, z' 

loop_
_atom_site_label
_atom_site_fract_x
_atom_site_fract_y
_atom_site_fract_z
_atom_site_type_symbol
Cd         0.0      0.0      0.5    Cd
O       0.0029   0.4423   0.7957     O
Cd      0.0142   0.3412   0.1868    Cd
O       0.0163   0.9952   0.2913     O
O       0.0761   0.8319   0.1463     O
C       0.0778   0.6302   0.0851     C
C       0.0895   0.0567   0.1702     C
O       0.1069   0.2317   0.3839     O
O       0.1223   0.5818    0.996     O
C       0.1245   0.7781   0.0484     C
O       0.1291   0.1884   0.1033     O
C       0.1336   0.9696   0.0882     C
C       0.2109   0.8786   0.9321     C
C       0.2132   0.0038    0.956     C
O       0.2153   0.7392   0.6947     O
O       0.2193   0.8915   0.4776     O
H       0.2225   0.1153   0.6267     H
C       0.2425   0.2754   0.3317     C
H       0.2592   0.8678   0.8522     H
H       0.2601   0.0924   0.8933     H
C       0.2783   0.8173    0.571     C
O       0.2907   0.3624    0.211     O
C       0.3141    0.144    0.563     C
C       0.3403   0.2192   0.4247     C
C       0.4431   0.8193   0.5335     C
C       0.4549   0.1181   0.5906     C
H        0.474   0.0685   0.6761     H
O       0.4884   0.2427   0.3644     O
O       0.5116   0.7573   0.6356     O
H        0.526   0.9315   0.3239     H
C       0.5451   0.8819   0.4094     C
C       0.5569   0.1807   0.4665     C
C       0.6597   0.7808   0.5753     C
C       0.6859    0.856    0.437     C
O       0.7093   0.6376    0.789     O
C       0.7217   0.1827    0.429     C
H       0.7399   0.9076   0.1067     H
H       0.7408   0.1322   0.1478     H
C       0.7575   0.7246   0.6683     C
H       0.7775   0.8847   0.3733     H
O       0.7807   0.1085   0.5224     O
O       0.7847   0.2608   0.3053     O
C       0.7868   0.9962    0.044     C
C       0.7891   0.1214   0.0679     C
C       0.8664   0.0304   0.9118     C
O       0.8709   0.8116   0.8967     O
C       0.8755   0.2219   0.9516     C
O       0.8777   0.4182    0.004     O
O       0.8931   0.7683   0.6161     O
C       0.9105   0.9433   0.8298     C
C       0.9222   0.3698   0.9149     C
O       0.9239   0.1681   0.8537     O
O       0.9837   0.0048   0.7087     O
Cd      0.9858   0.6588   0.8132    Cd
O       0.9971   0.5577   0.2043     O
