data_I
_chemical_name_common  '/home/zhangsd/repos/MofS-CGCNN/ML/data/TSD/clean_cifs/XOVQIJ_clean'
_cell_length_a 17.07500
_cell_length_b 20.20500
_cell_length_c 20.51900
_cell_angle_alpha 90.00000
_cell_angle_beta  90.00000
_cell_angle_gamma 90.12000
_space_group_name_H-M_alt      'P 1'


loop_
_space_group_symop_operation_xyz
  'x, y, z' 

loop_
_atom_site_label
_atom_site_fract_x
_atom_site_fract_y
_atom_site_fract_z
_atom_site_type_symbol
Zn         0.0      0.0      0.5    Zn
H       0.0004   0.7442   0.9959     H
O       0.0015   0.0917   0.4524     O
C       0.0048   0.8755   0.3221     C
H       0.0084   0.2488   0.7784     H
O       0.0098   0.6979   0.9128     O
O       0.0128   0.3165   0.2188     O
C       0.0137   0.8113   0.2988     C
C       0.0141   0.8976   0.6661     C
C       0.0144   0.2054   0.7626     C
H       0.0149   0.5986   0.8294     H
O       0.0185   0.9529   0.4126     O
H       0.0227   0.6787   0.6903     H
C       0.0271   0.3244   0.2861     C
C       0.0323   0.0771    0.716     C
O       0.0335    0.172    0.101     O
C       0.0337   0.8934   0.3837     C
C       0.0357   0.7452   0.9582     C
C       0.0365   0.0809   0.2069     C
H       0.0383   0.0338   0.7003     H
C       0.0383   0.8904    0.602     C
H       0.0388   0.7793   0.3246     H
C       0.0398   0.8141   0.9334     C
C       0.0399   0.8987   0.7815     C
C        0.042   0.6384    0.814     C
H       0.0466    0.845   0.9697     H
H       0.0473   0.0863   0.9079     H
H       0.0488   0.3686   0.2938     H
C       0.0515    0.158   0.8007     C
H       0.0555   0.2318   0.3166     H
C       0.0604   0.0939   0.7774     C
C       0.0623   0.0821   0.3222     C
C        0.064   0.0643   0.1413     C
C        0.065   0.1099   0.0905     C
C       0.0652    0.888    0.718     C
C       0.0731   0.1267   0.9155     C
C       0.0742    0.676   0.8694     C
H       0.0745   0.8922   0.8165     H
C       0.0788   0.1734   0.8659     C
C       0.0813   0.2749   0.3121     C
O       0.0839    0.855   0.4183     O
H       0.0841    0.625   0.7842     H
H       0.0844    0.819   0.9037     H
H       0.0855   0.0618   0.8032     H
H       0.0875   0.8737   0.1345     H
C       0.0876   0.0713   0.2587     C
H       0.0878   0.7323   0.9735     H
H       0.0925   0.9701    0.166     H
C       0.0932   0.0009   0.1317     C
C       0.0953    0.092   0.0301     C
H       0.0969   0.0756   0.3573     H
H       0.1005   0.3684   0.9247     H
H       0.1016   0.2885   0.3547     H
H       0.1026   0.7152   0.8531     H
C       0.1055   0.1399   0.9763     C
Na      0.1095    0.267   0.1445    Na
O       0.1099   0.8707   0.5835     O
H       0.1111   0.6489   0.8939     H
H       0.1169   0.8742   0.7101     H
C        0.117   0.2331   0.8771     C
O       0.1192   0.0102   0.5152     O
H       0.1208   0.2647   0.8436     H
C       0.1234    0.983   0.0713     C
C       0.1244   0.0286   0.0205     C
C       0.1249   0.8651    0.102     C
H       0.1344   0.7665   0.1194     H
H       0.1392   0.1348   0.4929     H
H       0.1393   0.0575   0.2508     H
C       0.1436   0.1996   0.9875     C
O       0.1442    0.272   0.2637     O
H       0.1449   0.0165   0.9797     H
C       0.1493   0.2463   0.9379     C
Zn     0.15113  0.87481  0.49443    Zn
C       0.1522   0.9164   0.0628     C
C       0.1529   0.8012    0.093     C
C        0.153   0.3678   0.9384     C
H       0.1671   0.4675    0.943     H
H       0.1697   0.3281   0.6336     H
O       0.1805   0.2136    0.046     O
H       0.1891   0.1865   0.2924     H
H       0.1894   0.3026    0.746     H
C       0.1895   0.0166   0.4838     C
C       0.1909   0.3077   0.9479     C
C       0.1917   0.1342   0.4791     C
H       0.1924   0.2555   0.6106     H
C       0.1927   0.4268   0.9493     C
H       0.2058   0.2339   0.4746     H
C       0.2075   0.9037   0.0147     C
H       0.2076    0.228   0.7262     H
C       0.2081   0.7885   0.0448     C
C       0.2083   0.2313   0.2833     C
O       0.2086   0.7909    0.492     O
O       0.2091   0.6693   0.0674     O
C       0.2134   0.2995   0.6208     C
O       0.2154   0.9548   0.4693     O
H       0.2174     0.33   0.5267     H
H       0.2259   0.9384   0.9882     H
H       0.2272   0.6688   0.4731     H
H       0.2277   0.1278   0.0733     H
C       0.2296   0.0741   0.4697     C
O       0.2304   0.2048   0.1729     O
C       0.2309   0.2719    0.733     C
H        0.231    0.249   0.3236     H
C       0.2315   0.1933   0.4682     C
C        0.235   0.7247   0.0357     C
C       0.2354   0.8398   0.0057     C
C       0.2461   0.1727   0.0634     C
C       0.2539   0.3273   0.5634     C
C       0.2646   0.6602   0.5057     C
C        0.265   0.7753   0.5357     C
C       0.2685   0.3067   0.9682     C
H        0.269    0.251   0.8236     H
C       0.2691   0.2281    0.233     C
O       0.2696   0.2952   0.6729     O
C       0.2704   0.4259   0.9697     C
H       0.2723   0.3722   0.5733     H
H       0.2728   0.8312   0.9731     H
H       0.2741   0.5616   0.4882     H
H       0.2826     0.17   0.0267     H
O       0.2846   0.5452   0.9693     O
C       0.2866   0.2005   0.1208     C
O       0.2909   0.8307   0.5674     O
O       0.2914   0.7091    0.992     O
C       0.2917   0.2687   0.7833     C
C       0.2919   0.7115   0.5448     C
H       0.2924    0.272   0.2262     H
C       0.2925   0.5963   0.5147     C
H       0.2942   0.2661   0.9746     H
C       0.3073   0.0732   0.4493     C
H       0.3076   0.2445   0.1106     H
C       0.3083   0.3658   0.9791     C
C       0.3091   0.1923   0.4479     C
C       0.3105   0.4834   0.9838     C
H       0.3106   0.1974    0.246     H
H       0.3109   0.3135   0.7924     H
O       0.3195   0.2864    0.546     O
H       0.3303   0.1719   0.1336     H
H       0.3329   0.0325    0.443     H
C        0.347   0.1322   0.4384     C
C       0.3471   0.6988    0.593     C
C       0.3478   0.5836   0.5628     C
Zn     0.34887  0.62519  0.99443    Zn
C       0.3507   0.2537   0.4379     C
H       0.3551   0.4835   0.4797     H
O       0.3558    0.228   0.7637     O
C       0.3564   0.3004   0.4875     C
H       0.3607   0.4425   0.7508     H
H       0.3608   0.3652   0.9929     H
H       0.3656   0.7335   0.6194     H
C       0.3751   0.6349    0.602     C
C       0.3756   0.4714   0.5205     C
C       0.3766    0.517   0.5713     C
H       0.3792   0.2353   0.3436     H
O       0.3808   0.4898   0.0152     O
C        0.383   0.2669   0.3771     C
H       0.3831   0.6258   0.2101     H
H       0.3889   0.8511   0.3939     H
O       0.3901   0.6293   0.0835     O
Na      0.3905    0.233   0.6445    Na
C       0.3945   0.3601   0.4763     C
H       0.3974   0.7848   0.3531     H
H       0.3984   0.2115   0.8547     H
H       0.3995   0.1316   0.4247     H
H       0.4031   0.4244   0.8573     H
C       0.4047    0.408   0.5301     C
C       0.4068   0.4991   0.6317     C
H       0.4075   0.5299    0.666     H
H       0.4122   0.7677   0.4735     H
C       0.4124   0.4287   0.7587     C
H       0.4125   0.6263   0.6345     H
H       0.4145   0.4382   0.3032     H
H       0.4156    0.681   0.4037     H
H       0.4159    0.875   0.2842     H
O       0.4161    0.645   0.9183     O
C       0.4187   0.2251   0.8121     C
C       0.4212   0.3266   0.3659     C
H       0.4255   0.6078   0.3165     H
C       0.4258    0.824   0.3694     C
C       0.4269   0.3733   0.4155     C
C       0.4348    0.612    0.218     C
C        0.435   0.3901   0.5905     C
C        0.436   0.4357   0.6413     C
C       0.4377   0.4179   0.8222     C
C       0.4396   0.4061   0.2774     C
H       0.4445   0.2682   0.8166     H
C       0.4485    0.342   0.3007     C
H       0.4512   0.1314   0.7938     H
H       0.4527   0.4137   0.4079     H
H       0.4534    0.655   0.4697     H
C        0.458   0.8616    0.314     C
C       0.4601   0.6013   0.2815     C
C       0.4602   0.6859   0.4334     C
H       0.4612   0.7207   0.8246     H
H       0.4617   0.4662   0.2003     H
C       0.4617   0.6096    0.102     C
C       0.4635   0.4191   0.7069     C
C       0.4643   0.7548   0.4582     C
C       0.4663   0.6066   0.8837     C
O       0.4665    0.328    0.601     O
C       0.4677   0.4229    0.216     C
C       0.4729   0.1756   0.7861     C
H       0.4773   0.8213   0.1903     H
O       0.4815   0.5471   0.9126     O
H       0.4851   0.9014   0.3294     H
C       0.4856   0.2946   0.2626     C
C       0.4859   0.6024   0.1661     C
C       0.4863   0.6887   0.7988     C
O       0.4872   0.1835   0.7188     O
O       0.4902   0.8021   0.4128     O
H       0.4916   0.2512   0.2784     H
C       0.4952   0.6245   0.8221     C
O       0.4985   0.4083   0.9524     O
H       0.4996   0.7558   0.4959     H
Zn         0.5      0.5      0.0    Zn
H       0.5004   0.2442   0.5041     H
O       0.5015   0.5917   0.0476     O
C       0.5048   0.3755   0.1779     C
H       0.5084   0.7488   0.7216     H
O       0.5098   0.1979   0.5872     O
O       0.5128   0.8165   0.2812     O
C       0.5137   0.3113   0.2012     C
C       0.5141   0.3976   0.8339     C
C       0.5144   0.7054   0.7374     C
H       0.5149   0.0986   0.6706     H
O       0.5185   0.4529   0.0874     O
H       0.5227   0.1787   0.8097     H
C       0.5271   0.8244   0.2139     C
C       0.5323   0.5771    0.784     C
O       0.5335    0.672    0.399     O
C       0.5337   0.3934   0.1163     C
C       0.5357   0.2452   0.5418     C
C       0.5365   0.5809   0.2931     C
C       0.5383   0.3904    0.898     C
H       0.5383   0.5338   0.7997     H
H       0.5388   0.2793   0.1754     H
C       0.5398   0.3141   0.5666     C
C       0.5399   0.3987   0.7185     C
C        0.542   0.1384    0.686     C
H       0.5466    0.345   0.5303     H
H       0.5473   0.5863   0.5921     H
H       0.5488   0.8686   0.2062     H
C       0.5515    0.658   0.6993     C
H       0.5555   0.7318   0.1834     H
C       0.5604   0.5939   0.7226     C
C       0.5623   0.5821   0.1778     C
C        0.564   0.5643   0.3587     C
C        0.565   0.6099   0.4095     C
C       0.5652    0.388    0.782     C
C       0.5731   0.6267   0.5845     C
C       0.5742    0.176   0.6306     C
H       0.5745   0.3922   0.6835     H
C       0.5788   0.6734   0.6341     C
C       0.5813   0.7749   0.1879     C
O       0.5839    0.355   0.0817     O
H       0.5841    0.125   0.7158     H
H       0.5844    0.319   0.5963     H
H       0.5855   0.5618   0.6968     H
H       0.5875   0.3737   0.3655     H
C       0.5876   0.5713   0.2413     C
H       0.5878   0.2323   0.5265     H
H       0.5925   0.4701    0.334     H
C       0.5932   0.5009   0.3683     C
C       0.5953    0.592   0.4699     C
H       0.5969   0.5756   0.1427     H
H       0.6005   0.8684   0.5753     H
H       0.6016   0.7885   0.1453     H
H       0.6026   0.2152   0.6469     H
C       0.6055   0.6399   0.5237     C
Na      0.6095    0.767   0.3555    Na
O       0.6099   0.3707   0.9165     O
H       0.6111   0.1489   0.6061     H
H       0.6169   0.3742   0.7899     H
C        0.617   0.7331   0.6229     C
O       0.6192   0.5102   0.9848     O
H       0.6208   0.7647   0.6564     H
C       0.6234    0.483   0.4287     C
C       0.6244   0.5286   0.4795     C
C       0.6249   0.3651    0.398     C
H       0.6344   0.2665   0.3806     H
H       0.6392   0.6348   0.0071     H
H       0.6393   0.5575   0.2492     H
C       0.6436   0.6996   0.5125     C
O       0.6442    0.772   0.2363     O
H       0.6449   0.5165   0.5203     H
C       0.6493   0.7463   0.5621     C
Zn     0.65113  0.37481  0.00557    Zn
C       0.6522   0.4164   0.4372     C
C       0.6529   0.3012    0.407     C
C        0.653   0.8678   0.5616     C
H       0.6671   0.9675    0.557     H
H       0.6697   0.8281   0.8664     H
O       0.6805   0.7136    0.454     O
H       0.6891   0.6865   0.2076     H
H       0.6894   0.8026    0.754     H
C       0.6895   0.5166   0.0162     C
C       0.6909   0.8077   0.5521     C
C       0.6917   0.6342   0.0209     C
H       0.6924   0.7555   0.8894     H
C       0.6927   0.9268   0.5507     C
H       0.7058   0.7339   0.0254     H
C       0.7075   0.4037   0.4853     C
H       0.7076    0.728   0.7738     H
C       0.7081   0.2885   0.4552     C
C       0.7083   0.7313   0.2167     C
O       0.7086   0.2909    0.008     O
O       0.7091   0.1693   0.4326     O
C       0.7134   0.7995   0.8792     C
O       0.7154   0.4548   0.0307     O
H       0.7174     0.83   0.9733     H
H       0.7259   0.4384   0.5118     H
H       0.7272   0.1688   0.0269     H
H       0.7277   0.6278   0.4267     H
C       0.7296   0.5741   0.0303     C
O       0.7304   0.7048   0.3271     O
C       0.7309   0.7719    0.767     C
H        0.731    0.749   0.1764     H
C       0.7315   0.6933   0.0318     C
C        0.735   0.2247   0.4643     C
C       0.7354   0.3398   0.4943     C
C       0.7461   0.6727   0.4366     C
C       0.7539   0.8273   0.9366     C
C       0.7646   0.1602   0.9943     C
C        0.765   0.2753   0.9643     C
C       0.7685   0.8067   0.5318     C
H        0.769    0.751   0.6764     H
C       0.7691   0.7281    0.267     C
O       0.7696   0.7952   0.8271     O
C       0.7704   0.9259   0.5303     C
H       0.7723   0.8722   0.9267     H
H       0.7728   0.3312   0.5269     H
H       0.7741   0.0616   0.0118     H
H       0.7826     0.67   0.4733     H
O       0.7846   0.0452   0.5307     O
C       0.7866   0.7005   0.3792     C
O       0.7909   0.3307   0.9326     O
O       0.7914   0.2091    0.508     O
C       0.7917   0.7687   0.7167     C
C       0.7919   0.2115   0.9552     C
H       0.7924    0.772   0.2738     H
C       0.7925   0.0963   0.9853     C
H       0.7942   0.7661   0.5254     H
C       0.8073   0.5732   0.0507     C
H       0.8076   0.7445   0.3894     H
C       0.8083   0.8658   0.5209     C
C       0.8091   0.6923   0.0521     C
C       0.8105   0.9834   0.5162     C
H       0.8106   0.6974    0.254     H
H       0.8109   0.8135   0.7076     H
O       0.8195   0.7864    0.954     O
H       0.8303   0.6719   0.3664     H
H       0.8329   0.5325    0.057     H
C        0.847   0.6322   0.0616     C
C       0.8471   0.1988    0.907     C
C       0.8478   0.0836   0.9372     C
Zn     0.84887  0.12519  0.50557    Zn
C       0.8507   0.7537   0.0621     C
H       0.8551   0.9835   0.0203     H
O       0.8558    0.728   0.7363     O
C       0.8564   0.8004   0.0125     C
H       0.8607   0.9425   0.7492     H
H       0.8608   0.8652   0.5071     H
H       0.8656   0.2335   0.8806     H
C       0.8751   0.1349    0.898     C
C       0.8756   0.9714   0.9795     C
C       0.8766    0.017   0.9287     C
H       0.8792   0.7353   0.1564     H
O       0.8808   0.9898   0.4848     O
C        0.883   0.7669   0.1229     C
H       0.8831   0.1258   0.2899     H
H       0.8889   0.3511   0.1061     H
O       0.8901   0.1293   0.4165     O
Na      0.8905    0.733   0.8555    Na
C       0.8945   0.8601   0.0237     C
H       0.8974   0.2848   0.1469     H
H       0.8984   0.7115   0.6453     H
H       0.8995   0.6316   0.0753     H
H       0.9031   0.9244   0.6427     H
C       0.9047    0.908   0.9699     C
C       0.9068   0.9991   0.8683     C
H       0.9075   0.0299    0.834     H
H       0.9122   0.2677   0.0265     H
C       0.9124   0.9287   0.7413     C
H       0.9125   0.1263   0.8655     H
H       0.9145   0.9382   0.1968     H
H       0.9156    0.181   0.0963     H
H       0.9159    0.375   0.2158     H
O       0.9161    0.145   0.5817     O
C       0.9187   0.7251   0.6879     C
C       0.9212   0.8266   0.1341     C
H       0.9255   0.1078   0.1835     H
C       0.9258    0.324   0.1306     C
C       0.9269   0.8733   0.0845     C
C       0.9348    0.112    0.282     C
C        0.935   0.8901   0.9095     C
C        0.936   0.9357   0.8587     C
C       0.9377   0.9179   0.6778     C
C       0.9396   0.9061   0.2226     C
H       0.9445   0.7682   0.6834     H
C       0.9485    0.842   0.1993     C
H       0.9512   0.6314   0.7062     H
H       0.9527   0.9137   0.0921     H
H       0.9534    0.155   0.0303     H
C        0.958   0.3616    0.186     C
C       0.9601   0.1013   0.2185     C
C       0.9602   0.1859   0.0666     C
H       0.9612   0.2207   0.6754     H
C       0.9617   0.1096    0.398     C
H       0.9617   0.9662   0.2997     H
C       0.9635   0.9191   0.7931     C
C       0.9643   0.2548   0.0418     C
C       0.9663   0.1066   0.6163     C
O       0.9665    0.828    0.899     O
C       0.9677   0.9229    0.284     C
C       0.9729   0.6756   0.7139     C
H       0.9773   0.3213   0.3097     H
O       0.9815   0.0471   0.5874     O
H       0.9851   0.4014   0.1706     H
C       0.9856   0.7946   0.2374     C
C       0.9859   0.1024   0.3339     C
C       0.9863   0.1887   0.7012     C
O       0.9872   0.6835   0.7812     O
O       0.9902   0.3021   0.0872     O
H       0.9916   0.7512   0.2216     H
C       0.9952   0.1245   0.6779     C
O       0.9985   0.9083   0.5476     O
H       0.9996   0.2558   0.0041     H
