data_I
_chemical_name_common  '/home/zhangsd/repos/MofS-CGCNN/ML/data/TSD/clean_cifs/XOVXEM_clean'
_cell_length_a 11.23200
_cell_length_b 11.36100
_cell_length_c 17.07200
_cell_angle_alpha 97.95000
_cell_angle_beta  108.88900
_cell_angle_gamma 91.40900
_space_group_name_H-M_alt      'P 1'


loop_
_space_group_symop_operation_xyz
  'x, y, z' 

loop_
_atom_site_label
_atom_site_fract_x
_atom_site_fract_y
_atom_site_fract_z
_atom_site_type_symbol
C       0.0007   0.7526   0.3309     C
H       0.0033   0.2031   0.7813     H
N       0.0054   0.3437   0.6315     N
O       0.0098   0.1214    0.106     O
O       0.0138   0.6694   0.4496     O
O       0.0144   0.0637    0.271     O
H       0.0153   0.8292   0.3611     H
C       0.0157   0.2665    0.755     C
O       0.0323   0.0758   0.8995     O
C       0.0377   0.0232   0.1231     C
C       0.0396   0.4567   0.6763     C
C       0.0453   0.5531   0.6255     C
C       0.0509    0.382   0.8012     C
O       0.0598   0.3955   0.4037     O
C       0.0619   0.4769    0.762     C
H       0.0668   0.3937   0.8588     H
Cd     0.08487  0.22571   0.4608    Cd
H       0.1006   0.3338   0.1192     H
C       0.1006    0.597   0.8069     C
O       0.1107   0.8458   0.6084     O
O       0.1111   0.6798   0.7688     O
O       0.1137   0.6141   0.8881     O
H       0.1226   0.9236   0.5922     H
C       0.1292   0.0781   0.3094     C
O       0.1389    0.098   0.5643     O
O       0.1406   0.5696   0.6086     O
H       0.1678   0.3738   0.2637     H
C       0.1694   0.0058   0.1758     C
Cd     0.17571  0.79405   0.9561    Cd
Cd      0.1825  0.86696   0.7501    Cd
C       0.1835   0.3231   0.1499     C
O       0.1855   0.1337   0.3814     O
O       0.2097   0.9704   0.0472     O
C       0.2103   0.0275   0.2583     C
Cd     0.21501   0.7143   0.5486    Cd
C       0.2217   0.3443   0.2355     C
O       0.2251   0.2724   0.0278     O
Cd     0.25023  0.08766  0.95624    Cd
C       0.2529   0.1176   0.6007     C
N       0.2541   0.9831   0.1328     N
O       0.2564   0.0513   0.7443     O
N       0.2608   0.2883   0.1107     N
O       0.2653   0.9066   0.8894     O
O       0.2887   0.3089   0.5394     O
C       0.2899   0.1542   0.7895     C
O       0.2973   0.1832   0.8626     O
C       0.2983   0.2337   0.6603     C
N       0.3174   0.3247   0.6252     N
C       0.3236   0.2517   0.7477     C
O       0.3347   0.0501    0.594     O
C        0.343   0.0166   0.3037     C
C       0.3466   0.3196   0.2794     C
H       0.3549   0.8916    0.905     H
C       0.3556   0.4359    0.666     C
H       0.3567   0.4978   0.6358     H
C       0.3604   0.3662   0.7933     C
H       0.3634   0.3823   0.8488     H
C       0.3735   0.9662   0.1712     C
H       0.3745   0.0318   0.3619     H
O       0.3746    0.793   0.7542     O
H       0.3751   0.3309   0.3376     H
C       0.3847   0.2662   0.1506     C
C       0.3934   0.4591   0.7527     C
O       0.4089   0.7138   0.6385     O
C       0.4203   0.9827    0.257     C
H       0.4257   0.9432   0.1401     H
C       0.4271   0.2785   0.2362     C
H       0.4374   0.5303    0.783     H
C       0.4418   0.7477   0.7146     C
O       0.4536   0.1265   0.0583     O
C       0.4626   0.2354   0.0937     C
O       0.4711   0.6831   0.9133     O
H       0.4955    0.029    0.716     H
H       0.5045    0.971    0.284     H
O       0.5289   0.3169   0.0867     O
C       0.5374   0.7646   0.9063     C
O       0.5464   0.8735   0.9417     O
C       0.5582   0.2523   0.2854     C
H       0.5626   0.4697    0.217     H
C       0.5729   0.7215   0.7638     C
H       0.5743   0.0568   0.8599     H
C       0.5797   0.0173    0.743     C
O       0.5911   0.2862   0.3615     O
C       0.6066   0.5409   0.2473     C
C       0.6153   0.7338   0.8494     C
H       0.6249   0.6691   0.6624     H
O       0.6254    0.207   0.2458     O
H       0.6255   0.9682   0.6381     H
C       0.6265   0.0338   0.8288     C
H       0.6366   0.6177   0.1512     H
C       0.6396   0.6338   0.2067     C
H       0.6433   0.5022   0.3642     H
C       0.6444   0.5641    0.334     C
H       0.6451   0.1084    0.095     H
C       0.6534   0.6804   0.7206     C
C        0.657   0.9834   0.6963     C
O       0.6653   0.9499    0.406     O
C       0.6764   0.7483   0.2523     C
N       0.6826   0.6753   0.3748     N
C       0.7017   0.7663   0.3397     C
O       0.7027   0.8168   0.1374     O
C       0.7101   0.8458   0.2105     C
O       0.7113   0.6911   0.4606     O
O       0.7347   0.0934   0.1106     O
N       0.7392   0.7117   0.8893     N
O       0.7436   0.9487   0.2557     O
N       0.7459   0.0169   0.8672     N
C       0.7471   0.8824   0.3993     C
Cd     0.74977  0.91234  0.04376    Cd
O       0.7749   0.7276   0.9722     O
C       0.7783   0.6557   0.7645     C
Cd     0.78499   0.2857   0.4514    Cd
C       0.7897   0.9725   0.7417     C
O       0.7903   0.0296   0.9528     O
O       0.8145   0.8663   0.6186     O
C       0.8165   0.6769   0.8501     C
Cd      0.8175  0.13304   0.2499    Cd
Cd     0.82429  0.20595   0.0439    Cd
C       0.8306   0.9942   0.8242     C
H       0.8322   0.6262   0.7363     H
O       0.8594   0.4304   0.3914     O
O       0.8611    0.902   0.4357     O
C       0.8708   0.9219   0.6906     C
H       0.8774   0.0764   0.4078     H
O       0.8863   0.3859   0.1119     O
O       0.8889   0.3202   0.2312     O
O       0.8893   0.1542   0.3916     O
C       0.8994    0.403   0.1931     C
H       0.8994   0.6662   0.8808     H
Cd     0.91513  0.77429   0.5392    Cd
H       0.9332   0.6063   0.1412     H
C       0.9381   0.5231    0.238     C
O       0.9402   0.6045   0.5963     O
C       0.9491    0.618   0.1988     C
C       0.9547   0.4469   0.3745     C
C       0.9604   0.5433   0.3237     C
C       0.9623   0.9768   0.8769     C
O       0.9677   0.9242   0.1005     O
C       0.9843   0.7335    0.245     C
H       0.9847   0.1708   0.6389     H
O       0.9856   0.9363    0.729     O
O       0.9862   0.3306   0.5504     O
O       0.9902   0.8786    0.894     O
N       0.9946   0.6563   0.3685     N
H       0.9967   0.7969   0.2187     H
C       0.9993   0.2474   0.6691     C
