data_I
_chemical_name_common  '/home/zhangsd/repos/MofS-CGCNN/ML/data/TSD/clean_cifs/XOVYIR_clean'
_cell_length_a 11.14000
_cell_length_b 11.24900
_cell_length_c 16.81500
_cell_angle_alpha 98.14100
_cell_angle_beta  108.84200
_cell_angle_gamma 91.33300
_space_group_name_H-M_alt      'P 1'


loop_
_space_group_symop_operation_xyz
  'x, y, z' 

loop_
_atom_site_label
_atom_site_fract_x
_atom_site_fract_y
_atom_site_fract_z
_atom_site_type_symbol
H       0.0024   0.4735   0.7918     H
O       0.0258    0.813   0.5804     O
C       0.0414   0.2735   0.4121     C
O       0.0592   0.3786  0.45142     O
C       0.0622   0.2208   0.2623     C
C       0.0712    0.749   0.7818     C
H       0.0715   0.5591   0.3561     H
H        0.076   0.9758   0.7098     H
C       0.0819   0.5154   0.2376     C
C       0.1117   0.2393   0.3509     C
O       0.1124   0.7841  0.86035     O
C       0.1125   0.0494   0.7426     C
H       0.1236   0.2006   0.1682     H
C       0.1254   0.5346   0.3257     C
H       0.1255   0.0013   0.8542     H
H       0.1256   0.1321   0.6454     H
O       0.1284   0.6918  0.73774     O
H       0.1324   0.4665   0.1346     H
C       0.1384    0.144   0.7035     C
C       0.1403   0.0646   0.8276     C
C       0.1476   0.1925   0.2254     C
C       0.1625   0.4802   0.1937     C
H       0.1659   0.6054   0.5939     H
O       0.1694   0.4525  0.91021     O
C       0.1831   0.2548   0.7521     C
N       0.1906   0.1745  0.87432     N
C       0.2087   0.2715   0.8387     C
O        0.212   0.3272  0.63574     O
C       0.2199   0.3553    0.712     C
O       0.2217    0.187  0.95893     O
N       0.2349   0.2197   0.3886     N
O       0.2441   0.5918  0.60845     O
N       0.2489   0.5169   0.3666     N
O        0.252   0.4549   0.7576     O
C       0.2534   0.3861   0.9032     C
Mn     0.25382  0.41601   0.5435    Mn
C       0.2646   0.1536   0.2576     C
O       0.2825   0.2381  0.47427     O
C       0.2898   0.4646   0.2372     C
O       0.2906   0.5296  0.45246     O
Mn     0.29226  0.78996  0.95156    Mn
H       0.3083   0.1155   0.2238     H
C       0.3128   0.1752   0.3441     C
Mn     0.31962  0.63415  0.74955    Mn
Mn     0.32726  0.69846  0.54197    Mn
O       0.3282   0.3625  0.11757     O
C       0.3327   0.4887   0.3261     C
O       0.3619   0.9307   0.8992     O
O       0.3698   0.4008  0.94487     O
H        0.377   0.5978   0.9072     H
C       0.3798    0.416   0.1927     C
O       0.3815   0.8125  0.73598     O
O       0.3865   0.8703  0.61763     O
O       0.3886   0.6651   0.8923     O
H       0.3964   0.1604   0.3725     H
C       0.3995   0.8899   0.6946     C
Mn     0.41794  0.27062  0.03755    Mn
H       0.4371   0.0955   0.6389     H
C       0.4406    0.015   0.7411     C
O       0.4409   0.1068  0.09264     O
C       0.4531   0.1105   0.6974     C
C       0.4593   0.9469    0.882     C
C       0.4611   0.0404   0.8271     C
O       0.4612   0.4277  0.59629     O
C       0.4678   0.4763   0.3812     C
H       0.4683   0.6757    0.141     H
O       0.4817   0.8243   0.0489     O
C       0.4888   0.2255    0.741     C
C       0.4912   0.7531   0.1715     C
N       0.4946   0.1549   0.8676     N
O       0.4946   0.3737  0.39886     O
O       0.4954   0.4303  0.23527     O
H       0.4995   0.2882   0.7128     H
H       0.5005   0.7118   0.2872     H
O       0.5046   0.5697  0.76473     O
O       0.5054   0.6263  0.60114     O
N       0.5054   0.8451   0.1324     N
C       0.5088   0.2469   0.8285     C
C       0.5112   0.7745    0.259     C
O       0.5183   0.1757   0.9511     O
H       0.5317   0.3243    0.859     H
C       0.5322   0.5237   0.6188     C
O       0.5388   0.5723  0.40371     O
C       0.5389   0.9596   0.1729     C
C       0.5407   0.0531    0.118     C
C       0.5469   0.8895   0.3026     C
O       0.5591   0.8932  0.90736     O
C       0.5594    0.985   0.2589     C
H       0.5629   0.9045   0.3611     H
Mn     0.58206  0.72938  0.96245    Mn
C       0.6005   0.1101   0.3054     C
H       0.6036   0.8396   0.6275     H
O       0.6114   0.3349   0.1077     O
O       0.6135   0.1297  0.38237     O
O       0.6185   0.1875  0.26402     O
C       0.6202    0.584   0.8073     C
H        0.623   0.4022   0.0928     H
O       0.6302   0.5992  0.05513     O
O       0.6381   0.0693   0.1008     O
C       0.6673   0.5113   0.6739     C
O       0.6718   0.6375  0.88243     O
Mn     0.67274  0.30154  0.45803    Mn
Mn     0.68038  0.36585  0.25045    Mn
C       0.6872   0.8248   0.6559     C
H       0.6917   0.8845   0.7762     H
Mn     0.70774  0.21004  0.04844    Mn
O       0.7094   0.4704  0.54754     O
C       0.7102   0.5354   0.7628     C
O       0.7175   0.7619  0.52573     O
C       0.7354   0.8464   0.7424     C
Mn     0.74618  0.58399   0.4565    Mn
C       0.7466   0.6139   0.0968     C
O        0.748   0.5451   0.2424     O
N       0.7511   0.4831   0.6334     N
O       0.7559   0.4082  0.39155     O
N       0.7651   0.7803   0.6114     N
O       0.7783    0.813  0.04107     O
C       0.7801   0.6447    0.288     C
O        0.788   0.6728  0.36426     O
C       0.7913   0.7285   0.1613     C
N       0.8094   0.8255  0.12568     N
C       0.8169   0.7452   0.2479     C
O       0.8306   0.5475  0.08979     O
H       0.8341   0.3946   0.4061     H
C       0.8375   0.5198   0.8063     C
C       0.8524   0.8075   0.7746     C
C       0.8597   0.9354   0.1724     C
C       0.8616    0.856   0.2965     C
H       0.8676   0.5335   0.8654     H
O       0.8716   0.3082  0.26226     O
H       0.8744   0.8679   0.3546     H
H       0.8745   0.9987   0.1458     H
C       0.8746   0.4654   0.6743     C
H       0.8764   0.7994   0.8318     H
C       0.8875   0.9506   0.2574     C
O       0.8876   0.2159  0.13965     O
C       0.8883   0.7607   0.6491     C
C       0.9181   0.4846   0.7624     C
H        0.924   0.0242   0.2902     H
H       0.9285   0.4409   0.6439     H
C       0.9288    0.251   0.2182     C
C       0.9378   0.7792   0.7377     C
O       0.9408   0.6214  0.54858     O
C       0.9586   0.7265   0.5879     C
O       0.9742    0.187   0.4196     O
H       0.9976   0.5265   0.2082     H
