data_I
_chemical_name_common  '/home/zhangsd/repos/MofS-CGCNN/ML/data/TSD/clean_cifs/XUBJAF01_clean'
_cell_length_a 10.50850
_cell_length_b 10.50850
_cell_length_c 10.87720
_cell_angle_alpha 101.17300
_cell_angle_beta  117.53000
_cell_angle_gamma 108.72300
_space_group_name_H-M_alt      'P 1'


loop_
_space_group_symop_operation_xyz
  'x, y, z' 

loop_
_atom_site_label
_atom_site_fract_x
_atom_site_fract_y
_atom_site_fract_z
_atom_site_type_symbol
C       0.0008   0.7759   0.3749     C
O       0.0389   0.4504   0.9079     O
O       0.0425    0.131   0.5921     O
Eu     0.05204  0.36533  0.12039    Eu
O       0.0986   0.7164   0.7836     O
C        0.099   0.3741   0.8749     C
H       0.1074   0.4493   0.7169     H
C       0.1244   0.3744     0.75     C
O       0.1321   0.2934   0.9417     O
O       0.1483   0.8096   0.4417     O
O       0.1487   0.8939   0.7072     O
C       0.1845   0.8035   0.7562     C
H       0.2324   0.3905   0.7831     H
O       0.2535   0.3094   0.2747     O
Eu     0.25506  0.06835  0.62039    Eu
H        0.298   0.7221   0.6835     H
O       0.3133   0.5585   0.2072     O
C       0.3308   0.7914   0.7788     C
H       0.3623   0.7483    0.852     H
O        0.384   0.0558   0.0722     O
H       0.3963   0.5103    0.648     H
C       0.4029   0.3511    0.331     C
O       0.4328    0.315   0.7164     O
C       0.4527   0.5717   0.2562     C
H       0.4614   0.3855   0.1835     H
O       0.4653   0.0212   0.7747     O
C       0.4799   0.9281    0.831     C
O       0.4836   0.3118   0.4278     O
C       0.4874    0.448   0.2788     C
C       0.5126    0.552   0.7212     C
O       0.5164   0.6882   0.5722     O
C       0.5201   0.0719    0.169     C
O       0.5347   0.9788   0.2253     O
H       0.5386   0.6145   0.8165     H
C       0.5473   0.4283   0.7438     C
O       0.5672    0.685   0.2836     O
C       0.5971   0.6489    0.669     C
H       0.6037   0.4897    0.352     H
O        0.616   0.9442   0.9278     O
H       0.6377   0.2517    0.148     H
C       0.6692   0.2086   0.2212     C
O       0.6867   0.4415   0.7928     O
H        0.702   0.2779   0.3165     H
Eu     0.74494  0.93165  0.37961    Eu
O       0.7465   0.6906   0.7253     O
H       0.7676   0.6095   0.2169     H
C       0.8155   0.1965   0.2438     C
O       0.8513   0.1061   0.2928     O
O       0.8517   0.1904   0.5583     O
O       0.8679   0.7066   0.0583     O
C       0.8756   0.6256     0.25     C
H       0.8926   0.5507   0.2831     H
C        0.901   0.6259   0.1251     C
O       0.9014   0.2836   0.2164     O
Eu     0.94796  0.63467  0.87961    Eu
O       0.9575    0.869   0.4079     O
O       0.9611   0.5496   0.0921     O
C       0.9992   0.2241   0.6251     C
