data_I
_chemical_name_common  '/home/zhangsd/repos/MofS-CGCNN/ML/data/TSD/clean_cifs/XUBJAF_clean'
_cell_length_a 10.54410
_cell_length_b 10.54410
_cell_length_c 10.77740
_cell_angle_alpha 101.66900
_cell_angle_beta  117.57800
_cell_angle_gamma 108.66700
_space_group_name_H-M_alt      'P 1'


loop_
_space_group_symop_operation_xyz
  'x, y, z' 

loop_
_atom_site_label
_atom_site_fract_x
_atom_site_fract_y
_atom_site_fract_z
_atom_site_type_symbol
O       0.0158   0.6625   0.0255     O
O       0.0281   0.7678   0.2961     O
O       0.0283    0.268   0.7961     O
C       0.0368   0.1852   0.9864     C
H       0.0578   0.1095   0.0209     H
C       0.0629   0.1894   0.8613     C
O       0.0709   0.8383    0.942     O
O       0.1208   0.4322   0.1486     O
Eu     0.12254  0.20996   0.6237    Eu
O       0.1273   0.1165   0.8286     O
C       0.1619     0.34   0.1139     C
C       0.1719   0.7984   0.3613     C
O       0.2121   0.7013   0.3286     O
O       0.2164   0.0278   0.6486     O
Eu     0.22294  0.93435  0.85643    Eu
C       0.2739    0.952   0.6139     C
O       0.2814    0.289    0.532     O
H       0.2866    0.027   0.4518     H
C       0.3012   0.9496   0.4864     C
O       0.3053   0.8659   0.6786     O
O       0.3127   0.3733   0.1786     O
O       0.3246   0.4623   0.4513     O
C       0.3586   0.3726    0.503     C
H       0.4114   0.9631   0.5209     H
Eu     0.42208  0.63349  0.35643    Eu
O       0.4229   0.8712   0.0119     O
H        0.463   0.2863   0.4119     H
O        0.489   0.1267   0.9513     O
C       0.5029   0.3559   0.5144     C
H       0.5377   0.3097   0.5866     H
O       0.5561   0.6289   0.8122     O
H       0.5634   0.0659   0.3717     H
C       0.5686   0.9106   0.0682     C
O       0.6037   0.8711    0.442     O
H       0.6256   0.9489   0.9119     H
C       0.6304   0.1444    0.003     C
O       0.6407    0.589   0.5119     O
O       0.6484   0.8718   0.1644     O
C       0.6576   0.4996   0.5682     C
C       0.6585   0.0115   0.0144     C
C       0.6816   0.1142   0.4522     C
O       0.6833   0.2561   0.3122     O
C       0.6919   0.6419    0.907     C
H       0.7004   0.1744   0.5484     H
O       0.7085   0.5494   0.9683     O
C       0.7252    0.996    0.478     C
O        0.743   0.2506    0.032     O
C       0.7651   0.2151    0.407     C
H       0.7769   0.0489   0.0866     H
O       0.7926    0.516   0.6644     O
H       0.8058   0.8083   0.8717     H
C        0.838   0.7706   0.9522     C
O        0.863   0.0097   0.5255     O
H        0.874    0.848   0.0484     H
Eu     0.91374  0.50116   0.1237    Eu
O       0.9189   0.2598   0.4683     O
H       0.9248   0.1652   0.9518     H
C        0.982   0.7528    0.978     C
