data_I
_chemical_name_common  '/home/zhangsd/repos/MofS-CGCNN/ML/data/TSD/clean_cifs/XULRIH_clean'
_cell_length_a  9.14900
_cell_length_b 11.20200
_cell_length_c 14.62800
_cell_angle_alpha 73.52600
_cell_angle_beta  88.04500
_cell_angle_gamma 71.28400
_space_group_name_H-M_alt      'P 1'


loop_
_space_group_symop_operation_xyz
  'x, y, z' 

loop_
_atom_site_label
_atom_site_fract_x
_atom_site_fract_y
_atom_site_fract_z
_atom_site_type_symbol
O       0.0143   0.1678   0.9005     O
H       0.0189   0.4055   0.8118     H
H       0.0263   0.8772   0.2387     H
C         0.03    0.466   0.7557     C
C        0.053   0.3124   0.3468     C
P       0.0658   0.0796   0.8364     P
C        0.075   0.4101   0.2673     C
C        0.075    0.647   0.6011     C
H       0.0764   0.2024   0.1687     H
H       0.0977   0.7082   0.5496     H
O       0.1022   0.9333   0.8888     O
H       0.1335   0.2332   0.0128     H
N       0.1464   0.4265   0.7031     N
O        0.147    0.652    0.004     O
Zn      0.1504   0.8168  0.01364    Zn
C        0.156   0.1733   0.3756     C
H       0.1604   0.3902   0.2312     H
N       0.1667   0.1023   0.4679     N
C        0.167    0.517   0.6262     C
H       0.1714   0.9523    0.648     H
C        0.179   0.1793    0.153     C
O       0.1926   0.1062   0.7746     O
O        0.207     0.67    0.964     O
C        0.213   0.1974   0.0604     C
H        0.247    0.491   0.5878     H
P       0.2499   0.5208    0.003     P
H       0.2506   0.7822   0.7815     H
C        0.256   0.8801   0.6461     C
C       0.2629   0.1024   0.3266     C
C        0.281   0.9913   0.4749     C
Zn      0.2906   0.2364   0.7399    Zn
C       0.2958   0.1269   0.2241     C
C        0.303   0.7771   0.7264     C
O       0.3254   0.8401   0.0689     O
C        0.328   0.8821   0.5623     C
O        0.331    0.475   0.9231     O
O       0.3407   0.4591   0.0944     O
N       0.3434   0.9872   0.3901     N
H       0.3522   0.8454   0.2334     H
N       0.3616   0.1639   0.0365     N
H       0.3777   0.1822   0.9705     H
P       0.4112   0.7725   0.1643     P
N        0.418   0.6714   0.7289     N
H       0.4195   0.9167   0.9151     H
H       0.4199   0.4051   0.3526     H
O       0.4224   0.6309   0.2071     O
O        0.431   0.2075   0.8483     O
C       0.4505   0.0926   0.2005     C
C        0.455    0.767   0.5692     C
H        0.469   0.9402   0.7527     H
C        0.479   0.1097    0.103     C
H       0.4876   0.2393   0.4841     H
Zn      0.4945   0.5127  0.84766    Zn
C        0.496    0.669   0.6472     C
C        0.504    0.331   0.3528     C
Zn      0.5055   0.4873  0.15234    Zn
H       0.5124   0.7607   0.5159     H
C        0.521   0.8903    0.897     C
H        0.531   0.0598   0.2473     H
C        0.545    0.233   0.4308     C
C       0.5495   0.9074   0.7995     C
O        0.569   0.7925   0.1517     O
O       0.5776   0.3691   0.7929     O
H       0.5801   0.5949   0.6474     H
H       0.5805   0.0833   0.0849     H
N        0.582   0.3286   0.2711     N
P       0.5888   0.2275   0.8357     P
H       0.6223   0.8178   0.0295     H
N       0.6384   0.8361   0.9635     N
H       0.6478   0.1546   0.7666     H
N       0.6566   0.0128   0.6099     N
O       0.6593   0.5409   0.9056     O
O        0.669    0.525   0.0769     O
C        0.672   0.1179   0.4377     C
O       0.6746   0.1599   0.9311     O
C        0.697   0.2229   0.2736     C
C       0.7042   0.8731   0.7759     C
Zn      0.7094   0.7636   0.2601    Zn
C        0.719   0.0087   0.5251     C
C       0.7371   0.8976   0.6734     C
C        0.744   0.1199   0.3539     C
H       0.7494   0.2178   0.2185     H
P       0.7501   0.4792    0.997     P
H        0.753    0.509   0.4122     H
C        0.787   0.8026   0.9396     C
O        0.793     0.33    0.036     O
O       0.8074   0.8938   0.2254     O
C        0.821   0.8207    0.847     C
H       0.8286   0.0477    0.352     H
C        0.833    0.483   0.3738     C
N       0.8333   0.8977   0.5321     N
H       0.8396   0.6098   0.7688     H
C        0.844   0.8267   0.6244     C
Zn      0.8496   0.1832  0.98636    Zn
O        0.853    0.348    0.996     O
N       0.8536   0.5735   0.2969     N
H       0.8665   0.7668   0.9872     H
O       0.8978   0.0667   0.1112     O
H       0.9023   0.2918   0.4504     H
H       0.9236   0.7976   0.8313     H
C        0.925    0.353   0.3989     C
C        0.925   0.5899   0.7327     C
P       0.9342   0.9204   0.1636     P
C        0.947   0.6876   0.6532     C
C         0.97    0.534   0.2443     C
H       0.9737   0.1228   0.7613     H
H       0.9811   0.5945   0.1882     H
O       0.9857   0.8322   0.0995     O
