data_I
_chemical_name_common  '/home/zhangsd/repos/MofS-CGCNN/ML/data/TSD/clean_cifs/XUNRUV_clean'
_cell_length_a 10.86810
_cell_length_b  9.83580
_cell_length_c 14.60590
_cell_angle_alpha 90.00000
_cell_angle_beta  94.09600
_cell_angle_gamma 90.00000
_space_group_name_H-M_alt      'P 1'


loop_
_space_group_symop_operation_xyz
  'x, y, z' 

loop_
_atom_site_label
_atom_site_fract_x
_atom_site_fract_y
_atom_site_fract_z
_atom_site_type_symbol
H       0.0102    0.169   0.8816     H
H       0.0102    0.331   0.3816     H
C       0.0282   0.5959  0.74797     C
C       0.0282   0.9041  0.24797     C
H       0.0371   0.0314   0.7559     H
H       0.0371   0.4686   0.2559     H
C       0.0444   0.6764  0.67196     C
C       0.0444   0.8236  0.17196     C
O      0.07666     0.59  0.05023     O
O      0.07666     0.91  0.55023     O
Li      0.0898   0.0212   0.4395    Li
Li      0.0898   0.4788   0.9395    Li
N      0.09895   0.6038  0.82644     N
N      0.09895   0.8962  0.32644     N
C      0.14138   0.7324   0.1752     C
C      0.14138   0.7676   0.6752     C
C      0.16756   0.6471  0.09242     C
C      0.16756   0.8529  0.59242     C
H       0.1778   0.2083   0.2591     H
H       0.1778   0.2917   0.7591     H
C       0.1905   0.6943   0.8294     C
C       0.1905   0.8057   0.3294     C
H       0.2119   0.1604   0.6314     H
H       0.2119   0.3396   0.1314     H
C       0.2163   0.7239  0.25591     C
C       0.2163   0.7761  0.75591     C
O      0.22676  0.13682  0.42841     O
O      0.22676  0.36318  0.92841     O
H       0.2408   0.7033    0.885     H
H       0.2408   0.7967    0.385     H
C       0.2574   0.2447  0.25169     C
C       0.2574   0.2553  0.75169     C
O      0.27657  0.64094  0.07242     O
O      0.27657  0.85906  0.57242     O
C       0.2785   0.1755  0.67603     C
C       0.2785   0.3245  0.17603     C
H       0.2843    0.663   0.2608     H
H       0.2843    0.837   0.7608     H
C      0.33291    0.137  0.40124     C
C      0.33291    0.363  0.90124     C
C      0.35421   0.2191   0.3162     C
C      0.35421   0.2809   0.8162     C
N      0.38702   0.1189  0.66253     N
N      0.38702   0.3811  0.16253     N
Li      0.4047   0.5158   0.0559    Li
Li      0.4047   0.9842   0.5559    Li
O       0.4246   0.0763  0.43954     O
O       0.4246   0.4237  0.93954     O
H       0.4422   0.6046   0.7832     H
H       0.4422   0.8954   0.2832     H
H       0.4626   0.7435   0.6568     H
H       0.4626   0.7565   0.1568     H
C      0.46805   0.2258   0.8015     C
C      0.46805   0.2742   0.3015     C
C      0.47974   0.1444  0.72503     C
C      0.47974   0.3556  0.22503     C
C      0.52026   0.6444  0.77497     C
C      0.52026   0.8556  0.27497     C
C      0.53195   0.7258   0.6985     C
C      0.53195   0.7742   0.1985     C
H       0.5374   0.2435   0.8432     H
H       0.5374   0.2565   0.3432     H
H       0.5578   0.1046   0.7168     H
H       0.5578   0.3954   0.2168     H
O       0.5754   0.5763  0.06046     O
O       0.5754   0.9237  0.56046     O
Li      0.5953   0.0158   0.4441    Li
Li      0.5953   0.4842   0.9441    Li
N      0.61298   0.6189  0.83747     N
N      0.61298   0.8811  0.33747     N
C      0.64579   0.7191   0.1838     C
C      0.64579   0.7809   0.6838     C
C      0.66709    0.637  0.09876     C
C      0.66709    0.863  0.59876     C
H       0.7157    0.163   0.2392     H
H       0.7157    0.337   0.7392     H
C       0.7215   0.6755  0.82397     C
C       0.7215   0.8245  0.32397     C
O      0.72343  0.14094  0.42758     O
O      0.72343  0.35906  0.92758     O
C       0.7426   0.7447  0.24831     C
C       0.7426   0.7553  0.74831     C
H       0.7592   0.2033    0.615     H
H       0.7592   0.2967    0.115     H
O      0.77324  0.63682  0.07159     O
O      0.77324  0.86318  0.57159     O
C       0.7837   0.2239  0.24409     C
C       0.7837   0.2761  0.74409     C
H       0.7881   0.6604   0.8686     H
H       0.7881   0.8396   0.3686     H
C       0.8095   0.1943   0.6706     C
C       0.8095   0.3057   0.1706     C
H       0.8222   0.7083   0.2409     H
H       0.8222   0.7917   0.7409     H
C      0.83244   0.1471  0.40758     C
C      0.83244   0.3529  0.90758     C
C      0.85862   0.2324   0.3248     C
C      0.85862   0.2676   0.8248     C
N      0.90105   0.1038  0.67356     N
N      0.90105   0.3962  0.17356     N
Li      0.9102   0.5212   0.0605    Li
Li      0.9102   0.9788   0.5605    Li
O      0.92334     0.09  0.44977     O
O      0.92334     0.41  0.94977     O
C       0.9556   0.1764  0.82804     C
C       0.9556   0.3236  0.32804     C
H       0.9629   0.5314   0.7441     H
H       0.9629   0.9686   0.2441     H
C       0.9718   0.0959  0.75203     C
C       0.9718   0.4041  0.25203     C
H       0.9898    0.669   0.6184     H
H       0.9898    0.831   0.1184     H
