data_I
_chemical_name_common  '/home/zhangsd/repos/MofS-CGCNN/ML/data/TSD/clean_cifs/XUNSAC_clean'
_cell_length_a 10.80930
_cell_length_b 14.34760
_cell_length_c 10.82430
_cell_angle_alpha 90.00000
_cell_angle_beta  103.55900
_cell_angle_gamma 90.00000
_space_group_name_H-M_alt      'P 1'


loop_
_space_group_symop_operation_xyz
  'x, y, z' 

loop_
_atom_site_label
_atom_site_fract_x
_atom_site_fract_y
_atom_site_fract_z
_atom_site_type_symbol
N      0.02517  0.10256   0.1414     N
Li       0.028   0.9895   0.2608    Li
O      0.03449  0.87736  0.15671     O
C        0.039  0.75298  0.94908     C
C      0.04375  0.24561  0.97073     C
C       0.0438  0.68083  0.86518     C
H       0.0549     0.68   0.5496     H
C      0.05868  0.32398   0.8808     C
H       0.0724   0.7965   0.4072     H
H       0.0914   0.8065   0.9517     H
O      0.09235  0.52098  0.64832     O
H       0.0991   0.6872   0.8092     H
C       0.1023  0.09565    0.062     C
C       0.1157  0.16487   0.9766     C
C       0.1224  0.67836   0.5071     C
C       0.1329  0.74734   0.4211     C
H       0.1461   0.1678   0.6753     H
H       0.1509   0.0402    0.064     H
H       0.1557   0.0453   0.5373     H
O        0.163  0.32892  0.85167     O
H       0.1731   0.1572    0.923     H
C       0.1966  0.52801   0.6199     C
C       0.1998  0.17363   0.6177     C
C       0.2065  0.09936   0.5371     C
C       0.2109  0.60691  0.53117     C
O      0.21223  0.97123  0.33474     O
Li       0.218   0.8601   0.2341    Li
N      0.22483  0.74822  0.35595     N
N      0.26505  0.25282  0.61849     N
Li      0.2736   0.3583   0.7479    Li
C      0.28884  0.10559   0.4563     C
O      0.29066  0.47426  0.65723     O
H       0.2934   0.6664   0.0603     H
C       0.3056  0.02548  0.37125     C
C       0.3089  0.60828   0.4673     C
C       0.3106  0.67917   0.3805     C
H        0.311   0.5433   0.9265     H
O       0.3312  0.83885  0.12673     O
C       0.3423   0.2589   0.5377     C
C        0.358  0.18707   0.4576     C
C       0.3634  0.66353  0.02115     C
H       0.3726   0.1453   0.1363     H
H       0.3732   0.5617   0.4829     H
C       0.3742  0.59061   0.9402     C
H       0.3746   0.2679   0.9974     H
H       0.3764   0.6787   0.3357     H
H       0.3881   0.3151   0.5356     H
O      0.41082  0.01864  0.34419     O
H       0.4157   0.1935    0.404     H
C        0.441   0.1495   0.0952     C
C        0.442  0.22374   0.0136     C
C      0.44283  0.81735  0.12253     C
C       0.4565  0.73236  0.04409     C
O      0.45904  0.36166  0.82628     O
N      0.46898  0.58346  0.88031     N
Li      0.4696   0.4826   0.7443    Li
Li      0.5304   0.9826   0.2557    Li
N      0.53102  0.08346  0.11969     N
O      0.54096  0.86166  0.17372     O
C       0.5435  0.23236  0.95591     C
C      0.55717  0.31735  0.87747     C
C        0.558  0.72374   0.9864     C
C        0.559   0.6495   0.9048     C
H       0.5843   0.6935    0.596     H
O      0.58918  0.51864  0.65581     O
H       0.6119   0.8151   0.4644     H
H       0.6236   0.1787   0.6643     H
H       0.6254   0.7679   0.0026     H
C       0.6258  0.09061   0.0598     C
H       0.6268   0.0617   0.5171     H
H       0.6274   0.6453   0.8637     H
C       0.6366  0.16353  0.97885     C
C        0.642  0.68707   0.5424     C
C       0.6577   0.7589   0.4623     C
O       0.6688  0.33885  0.87327     O
H        0.689   0.0433   0.0735     H
C       0.6894  0.17917   0.6195     C
C       0.6911  0.10828   0.5327     C
C       0.6944  0.52548  0.62875     C
H       0.7066   0.1664   0.9397     H
O      0.70934  0.97426  0.34277     O
C      0.71116  0.60559   0.5437     C
Li      0.7264   0.8583   0.2521    Li
N      0.73495  0.75282  0.38151     N
N      0.77517  0.24822  0.64405     N
Li       0.782   0.3601   0.7659    Li
O      0.78777  0.47123  0.66526     O
C       0.7891  0.10691  0.46883     C
C       0.7935  0.59936   0.4629     C
C       0.8002  0.67363   0.3823     C
C       0.8034  0.02801   0.3801     C
H       0.8269   0.6572    0.077     H
O        0.837  0.82892  0.14833     O
H       0.8443   0.5453   0.4627     H
H       0.8491   0.5402    0.936     H
H       0.8539   0.6678   0.3247     H
C       0.8671  0.24734   0.5789     C
C       0.8776  0.17836   0.4929     C
C       0.8843  0.66487   0.0234     C
C       0.8977  0.59565    0.938     C
H       0.9009   0.1872   0.1908     H
O      0.90765  0.02098  0.35168     O
H       0.9086   0.3065   0.0483     H
H       0.9276   0.2965   0.5928     H
C      0.94132  0.82398   0.1192     C
H       0.9451     0.18   0.4504     H
C       0.9562  0.18083  0.13482     C
C      0.95625  0.74561  0.02927     C
C        0.961  0.25298  0.05092     C
O      0.96551  0.37736  0.84329     O
Li       0.972   0.4895   0.7392    Li
N      0.97483  0.60256   0.8586     N
