data_I
_chemical_name_common  '/home/zhangsd/repos/MofS-CGCNN/ML/data/TSD/clean_cifs/XUNSIK_clean'
_cell_length_a  5.42410
_cell_length_b 13.82930
_cell_length_c 11.11810
_cell_angle_alpha 90.00000
_cell_angle_beta  102.79000
_cell_angle_gamma 90.00000
_space_group_name_H-M_alt      'P 1'


loop_
_space_group_symop_operation_xyz
  'x, y, z' 

loop_
_atom_site_label
_atom_site_fract_x
_atom_site_fract_y
_atom_site_fract_z
_atom_site_type_symbol
C       0.0018  0.17976   0.6674     C
C       0.0173  0.75137  0.24596     C
H       0.0366   0.8768   0.7814     H
H       0.0369   0.7595   0.9301     H
O       0.0805  0.58635  0.11038     O
H       0.1151   0.8724   0.3447     H
C       0.1306  0.40353  0.86576     C
H       0.1456   0.7559   0.2003     H
C       0.1532  0.32488  0.77395     C
C       0.1603  0.75587  0.88144     C
C       0.1608  0.82716  0.79436     C
O       0.1761  0.95323  0.59116     O
N        0.177  0.18231  0.59896     N
Li      0.1829   0.0656    0.485    Li
Li      0.3171   0.5656    0.015    Li
N        0.323  0.68231  0.90104     N
O       0.3239  0.45323  0.90884     O
C       0.3392  0.32716  0.70564     C
C       0.3397  0.25587  0.61856     C
C       0.3468  0.82488  0.72605     C
H       0.3544   0.2559   0.2997     H
C       0.3694  0.90353  0.63424     C
H       0.3849   0.3724   0.1553     H
O       0.4195  0.08635  0.38962     O
H       0.4631   0.2595   0.5699     H
H       0.4634   0.3768   0.7186     H
C       0.4827  0.25137  0.25404     C
C       0.4982  0.67976   0.8326     C
C       0.5018  0.32024   0.1674     C
C       0.5173  0.74863  0.74596     C
H       0.5366   0.6232   0.2814     H
H       0.5369   0.7405   0.4301     H
O       0.5805  0.91365  0.61038     O
H       0.6151   0.6276   0.8447     H
C       0.6306  0.09647  0.36576     C
H       0.6456   0.7441   0.7003     H
C       0.6532  0.17512  0.27395     C
C       0.6603  0.74413  0.38144     C
C       0.6608  0.67284  0.29436     C
O       0.6761  0.54677  0.09116     O
N        0.677  0.31769  0.09896     N
Li      0.6829   0.4344    0.985    Li
Li      0.8171   0.9344    0.515    Li
N        0.823  0.81769  0.40104     N
O       0.8239  0.04677  0.40884     O
C       0.8392  0.17284  0.20564     C
C       0.8397  0.24413  0.11856     C
C       0.8468  0.67512  0.22605     C
H       0.8544   0.2441   0.7997     H
C       0.8694  0.59647  0.13424     C
H       0.8849   0.1276   0.6553     H
O       0.9195  0.41365  0.88962     O
H       0.9631   0.2405   0.0699     H
H       0.9634   0.1232   0.2186     H
C       0.9827  0.24863  0.75404     C
C       0.9982  0.82024   0.3326     C
