data_I
_chemical_name_common  '/home/zhangsd/repos/MofS-CGCNN/ML/data/TSD/clean_cifs/YAJXIT_clean'
_cell_length_a 17.49350
_cell_length_b 26.01160
_cell_length_c 15.80810
_cell_angle_alpha 90.00000
_cell_angle_beta  114.99500
_cell_angle_gamma 90.00000
_space_group_name_H-M_alt      'P 1'


loop_
_space_group_symop_operation_xyz
  'x, y, z' 

loop_
_atom_site_label
_atom_site_fract_x
_atom_site_fract_y
_atom_site_fract_z
_atom_site_type_symbol
C        0.006   0.3188   0.5743     C
C        0.006   0.6812   0.0743     C
C       0.0132   0.3757   0.9165     C
C       0.0132   0.6243   0.4165     C
H       0.0234   0.4339   0.1431     H
H       0.0234   0.5661   0.6431     H
C       0.0288    0.461    0.628     C
C       0.0288    0.539    0.128     C
H       0.0329   0.3517   0.3826     H
H       0.0329   0.6483   0.8826     H
C       0.0348   0.4292   0.3863     C
C       0.0348   0.5708   0.8863     C
C       0.0482   0.4113   0.6236     C
C       0.0482   0.5887   0.1236     C
O       0.0502   0.2865   0.9444     O
O       0.0502   0.7135   0.4444     O
C       0.0563   0.4744    0.912     C
C       0.0563   0.5256    0.412     C
H       0.0624   0.2079    0.839     H
H       0.0624   0.7921    0.339     H
C       0.0679   0.3804   0.3995     C
C       0.0679   0.6196   0.8995     C
H       0.0706   0.4854   0.6566     H
H       0.0706   0.5146   0.1566     H
H       0.0772   0.1727   0.9797     H
H       0.0772   0.8273   0.4797     H
O       0.0802   0.3095   0.5856     O
O       0.0802   0.6905   0.0856     O
C       0.0876   0.4716   0.4166     C
C       0.0876   0.5284   0.9166     C
C        0.094   0.3914   0.9528     C
C        0.094   0.6086   0.4528     C
C       0.0965   0.1792   0.8634     C
C       0.0965   0.8208   0.3634     C
O       0.0997    0.224   0.7024     O
O       0.0997    0.776   0.2024     O
H       0.1044   0.4012   0.6485     H
H       0.1044   0.5988   0.1485     H
C       0.1052   0.1583   0.9469     C
C       0.1052   0.8417   0.4469     C
N        0.117   0.4399   0.9517     N
N        0.117   0.5601   0.4517     N
H        0.119   0.1406   0.1262     H
H        0.119   0.8594   0.6262     H
H        0.136   0.3669   0.9803     H
H        0.136   0.6331   0.4803     H
C       0.1384   0.1819   0.7299     C
C       0.1384   0.8181   0.2299     C
C        0.139   0.1573   0.8162     C
C        0.139   0.8427   0.3162     C
U      0.14677   0.2347  0.57713     U
U      0.14677   0.7653  0.07713     U
C       0.1488   0.1099   0.1356     C
C       0.1488   0.8901   0.6356     C
O       0.1541   0.2854   0.4566     O
O       0.1541   0.7146   0.9566     O
C       0.1545   0.3753   0.4386     C
C       0.1545   0.6247   0.9386     C
H       0.1548   0.0918   0.2639     H
H       0.1548   0.9082   0.7639     H
C       0.1565   0.1152    0.982     C
C       0.1565   0.8848    0.482     C
N       0.1705   0.4658   0.4557     N
N       0.1705   0.5342   0.9557     N
C       0.1723   0.0805   0.2191     C
C       0.1723   0.9195   0.7191     C
C       0.1728   0.0902   0.0703     C
C       0.1728   0.9098   0.5703     C
O       0.1762   0.1608   0.6863     O
O       0.1762   0.8392   0.1863     O
C       0.1877   0.1131   0.8526     C
C       0.1877   0.8869   0.3526     C
O       0.1944   0.4765   0.1567     O
O       0.1944   0.5235   0.6567     O
N       0.1951   0.0931   0.9321     N
N       0.1951   0.9069   0.4321     N
C       0.1968   0.3233   0.4549     C
C       0.1968   0.6767   0.9549     C
O       0.2023   0.0112   0.3685     O
O       0.2023   0.9888   0.8685     O
C       0.2035   0.4183    0.466     C
C       0.2035   0.5817    0.966     C
H       0.2152   0.0977   0.8201     H
H       0.2152   0.9023   0.3201     H
N       0.2169   0.0453   0.0857     N
N       0.2169   0.9547   0.5857     N
C       0.2174   0.0384   0.2355     C
C       0.2174   0.9616   0.7355     C
O       0.2284   0.1772   0.5341     O
O       0.2284   0.8228   0.0341     O
H       0.2285   0.4905   0.3237     H
H       0.2285   0.5095   0.8237     H
H       0.2381   0.0854   0.5073     H
H       0.2381   0.9146   0.0073     H
C       0.2398   0.0205   0.1661     C
C       0.2398   0.9795   0.6661     C
Cu     0.24034  0.47113  0.01403    Cu
Cu     0.24034  0.52887  0.51403    Cu
C       0.2473   0.0046   0.3269     C
C       0.2473   0.9954   0.8269     C
C       0.2527   0.4954   0.6731     C
C       0.2527   0.5046   0.1731     C
Cu     0.25966  0.02887  0.98597    Cu
Cu     0.25966  0.97113  0.48597    Cu
C       0.2602   0.4795   0.8339     C
C       0.2602   0.5205   0.3339     C
H       0.2619   0.4146   0.4927     H
H       0.2619   0.5854   0.9927     H
H       0.2715   0.0095   0.6763     H
H       0.2715   0.9905   0.1763     H
O       0.2716   0.3228   0.4659     O
O       0.2716   0.6772   0.9659     O
C       0.2826   0.4616   0.7645     C
C       0.2826   0.5384   0.2645     C
N       0.2831   0.4547   0.9143     N
N       0.2831   0.5453   0.4143     N
H       0.2848   0.4023   0.1799     H
H       0.2848   0.5977   0.6799     H
C       0.2965   0.0817    0.534     C
C       0.2965   0.9183    0.034     C
O       0.2977   0.4888   0.6315     O
O       0.2977   0.5112   0.1315     O
C       0.3032   0.1767   0.5451     C
C       0.3032   0.8233   0.0451     C
N       0.3049   0.4069   0.0679     N
N       0.3049   0.5931   0.5679     N
O       0.3056   0.0235   0.8433     O
O       0.3056   0.9765   0.3433     O
C       0.3123   0.3869   0.1474     C
C       0.3123   0.6131   0.6474     C
O       0.3238   0.3392   0.3137     O
O       0.3238   0.6608   0.8137     O
C       0.3272   0.4098   0.9297     C
C       0.3272   0.5902   0.4297     C
C       0.3277   0.4195   0.7809     C
C       0.3277   0.5805   0.2809     C
N       0.3295   0.0342   0.5443     N
N       0.3295   0.9658   0.0443     N
C       0.3435   0.3848    0.018     C
C       0.3435   0.6152    0.518     C
H       0.3452   0.4082   0.7361     H
H       0.3452   0.5918   0.2361     H
C       0.3455   0.1247   0.5614     C
C       0.3455   0.8753   0.0614     C
O       0.3459   0.2146   0.5434     O
O       0.3459   0.7854   0.0434     O
C       0.3512   0.3901   0.8644     C
C       0.3512   0.6099   0.3644     C
U      0.35323   0.2653  0.42287     U
U      0.35323   0.7347  0.92287     U
C        0.361   0.3427   0.1838     C
C        0.361   0.6573   0.6838     C
C       0.3616   0.3181   0.2701     C
C       0.3616   0.6819   0.7701     C
H        0.364   0.1331   0.0197     H
H        0.364   0.8669   0.5197     H
H        0.381   0.3594   0.8738     H
H        0.381   0.6406   0.3738     H
N        0.383   0.0601   0.0483     N
N        0.383   0.9399   0.5483     N
C       0.3948   0.3417   0.0531     C
C       0.3948   0.6583   0.5531     C
H       0.3956   0.0988   0.3515     H
H       0.3956   0.9012   0.8515     H
O       0.4003    0.276   0.2976     O
O       0.4003    0.724   0.7976     O
C       0.4035   0.3208   0.1366     C
C       0.4035   0.6792   0.6366     C
C        0.406   0.1086   0.0472     C
C        0.406   0.8914   0.5472     C
C       0.4124   0.0284   0.5834     C
C       0.4124   0.9716   0.0834     C
O       0.4198   0.1905   0.4144     O
O       0.4198   0.8095   0.9144     O
H       0.4228   0.3273   0.0203     H
H       0.4228   0.6727   0.5203     H
H       0.4294   0.0146   0.3434     H
H       0.4294   0.9854   0.8434     H
C       0.4321   0.1196   0.6005     C
C       0.4321   0.8804   0.1005     C
H       0.4376   0.2921    0.161     H
H       0.4376   0.7079    0.661     H
C       0.4437   0.0256    0.088     C
C       0.4437   0.9744    0.588     C
O       0.4498   0.2135   0.0556     O
O       0.4498   0.7865   0.5556     O
C       0.4518   0.0887   0.3764     C
C       0.4518   0.9113   0.8764     C
C       0.4652   0.0708   0.6137     C
C       0.4652   0.9292   0.1137     C
H       0.4671   0.1483   0.6174     H
H       0.4671   0.8517   0.1174     H
C       0.4712    0.039    0.372     C
C       0.4712    0.961    0.872     C
H       0.4766   0.0661   0.8569     H
H       0.4766   0.9339   0.3569     H
C       0.4868   0.1243   0.0835     C
C       0.4868   0.8757   0.5835     C
C        0.494   0.1812   0.4257     C
C        0.494   0.8188   0.9257     C
C        0.506   0.1812   0.0743     C
C        0.506   0.8188   0.5743     C
C       0.5132   0.1243   0.4165     C
C       0.5132   0.8757   0.9165     C
H       0.5234   0.0661   0.6431     H
H       0.5234   0.9339   0.1431     H
C       0.5288    0.039    0.128     C
C       0.5288    0.961    0.628     C
H       0.5329   0.1483   0.8826     H
H       0.5329   0.8517   0.3826     H
C       0.5348   0.0708   0.8863     C
C       0.5348   0.9292   0.3863     C
C       0.5482   0.0887   0.1236     C
C       0.5482   0.9113   0.6236     C
O       0.5502   0.2135   0.4444     O
O       0.5502   0.7865   0.9444     O
C       0.5563   0.0256    0.412     C
C       0.5563   0.9744    0.912     C
H       0.5624   0.2921    0.339     H
H       0.5624   0.7079    0.839     H
C       0.5679   0.1196   0.8995     C
C       0.5679   0.8804   0.3995     C
H       0.5706   0.0146   0.1566     H
H       0.5706   0.9854   0.6566     H
H       0.5772   0.3273   0.4797     H
H       0.5772   0.6727   0.9797     H
O       0.5802   0.1905   0.0856     O
O       0.5802   0.8095   0.5856     O
C       0.5876   0.0284   0.9166     C
C       0.5876   0.9716   0.4166     C
C        0.594   0.1086   0.4528     C
C        0.594   0.8914   0.9528     C
C       0.5965   0.3208   0.3634     C
C       0.5965   0.6792   0.8634     C
O       0.5997    0.276   0.2024     O
O       0.5997    0.724   0.7024     O
H       0.6044   0.0988   0.1485     H
H       0.6044   0.9012   0.6485     H
C       0.6052   0.3417   0.4469     C
C       0.6052   0.6583   0.9469     C
N        0.617   0.0601   0.4517     N
N        0.617   0.9399   0.9517     N
H        0.619   0.3594   0.6262     H
H        0.619   0.6406   0.1262     H
H        0.636   0.1331   0.4803     H
H        0.636   0.8669   0.9803     H
C       0.6384   0.3181   0.2299     C
C       0.6384   0.6819   0.7299     C
C        0.639   0.3427   0.3162     C
C        0.639   0.6573   0.8162     C
U      0.64677   0.2653  0.07713     U
U      0.64677   0.7347  0.57713     U
C       0.6488   0.3901   0.6356     C
C       0.6488   0.6099   0.1356     C
O       0.6541   0.2146   0.9566     O
O       0.6541   0.7854   0.4566     O
C       0.6545   0.1247   0.9386     C
C       0.6545   0.8753   0.4386     C
H       0.6548   0.4082   0.7639     H
H       0.6548   0.5918   0.2639     H
C       0.6565   0.3848    0.482     C
C       0.6565   0.6152    0.982     C
N       0.6705   0.0342   0.9557     N
N       0.6705   0.9658   0.4557     N
C       0.6723   0.4195   0.7191     C
C       0.6723   0.5805   0.2191     C
C       0.6728   0.4098   0.5703     C
C       0.6728   0.5902   0.0703     C
O       0.6762   0.3392   0.1863     O
O       0.6762   0.6608   0.6863     O
C       0.6877   0.3869   0.3526     C
C       0.6877   0.6131   0.8526     C
O       0.6944   0.0235   0.6567     O
O       0.6944   0.9765   0.1567     O
N       0.6951   0.4069   0.4321     N
N       0.6951   0.5931   0.9321     N
C       0.6968   0.1767   0.9549     C
C       0.6968   0.8233   0.4549     C
O       0.7023   0.4888   0.8685     O
O       0.7023   0.5112   0.3685     O
C       0.7035   0.0817    0.966     C
C       0.7035   0.9183    0.466     C
H       0.7152   0.4023   0.3201     H
H       0.7152   0.5977   0.8201     H
N       0.7169   0.4547   0.5857     N
N       0.7169   0.5453   0.0857     N
C       0.7174   0.4616   0.7355     C
C       0.7174   0.5384   0.2355     C
O       0.7284   0.3228   0.0341     O
O       0.7284   0.6772   0.5341     O
H       0.7285   0.0095   0.8237     H
H       0.7285   0.9905   0.3237     H
H       0.7381   0.4146   0.0073     H
H       0.7381   0.5854   0.5073     H
C       0.7398   0.4795   0.6661     C
C       0.7398   0.5205   0.1661     C
Cu     0.74034  0.02887  0.51403    Cu
Cu     0.74034  0.97113  0.01403    Cu
C       0.7473   0.4954   0.8269     C
C       0.7473   0.5046   0.3269     C
C       0.7527   0.0046   0.1731     C
C       0.7527   0.9954   0.6731     C
Cu     0.75966  0.47113  0.48597    Cu
Cu     0.75966  0.52887  0.98597    Cu
C       0.7602   0.0205   0.3339     C
C       0.7602   0.9795   0.8339     C
H       0.7619   0.0854   0.9927     H
H       0.7619   0.9146   0.4927     H
H       0.7715   0.4905   0.1763     H
H       0.7715   0.5095   0.6763     H
O       0.7716   0.1772   0.9659     O
O       0.7716   0.8228   0.4659     O
C       0.7826   0.0384   0.2645     C
C       0.7826   0.9616   0.7645     C
N       0.7831   0.0453   0.4143     N
N       0.7831   0.9547   0.9143     N
H       0.7848   0.0977   0.6799     H
H       0.7848   0.9023   0.1799     H
C       0.7965   0.4183    0.034     C
C       0.7965   0.5817    0.534     C
O       0.7977   0.0112   0.1315     O
O       0.7977   0.9888   0.6315     O
C       0.8032   0.3233   0.0451     C
C       0.8032   0.6767   0.5451     C
N       0.8049   0.0931   0.5679     N
N       0.8049   0.9069   0.0679     N
O       0.8056   0.4765   0.3433     O
O       0.8056   0.5235   0.8433     O
C       0.8123   0.1131   0.6474     C
C       0.8123   0.8869   0.1474     C
O       0.8238   0.1608   0.8137     O
O       0.8238   0.8392   0.3137     O
C       0.8272   0.0902   0.4297     C
C       0.8272   0.9098   0.9297     C
C       0.8277   0.0805   0.2809     C
C       0.8277   0.9195   0.7809     C
N       0.8295   0.4658   0.0443     N
N       0.8295   0.5342   0.5443     N
C       0.8435   0.1152    0.518     C
C       0.8435   0.8848    0.018     C
H       0.8452   0.0918   0.2361     H
H       0.8452   0.9082   0.7361     H
C       0.8455   0.3753   0.0614     C
C       0.8455   0.6247   0.5614     C
O       0.8459   0.2854   0.0434     O
O       0.8459   0.7146   0.5434     O
C       0.8512   0.1099   0.3644     C
C       0.8512   0.8901   0.8644     C
U      0.85323   0.2347  0.92287     U
U      0.85323   0.7653  0.42287     U
C        0.861   0.1573   0.6838     C
C        0.861   0.8427   0.1838     C
C       0.8616   0.1819   0.7701     C
C       0.8616   0.8181   0.2701     C
H        0.864   0.3669   0.5197     H
H        0.864   0.6331   0.0197     H
H        0.881   0.1406   0.3738     H
H        0.881   0.8594   0.8738     H
N        0.883   0.4399   0.5483     N
N        0.883   0.5601   0.0483     N
C       0.8948   0.1583   0.5531     C
C       0.8948   0.8417   0.0531     C
H       0.8956   0.4012   0.8515     H
H       0.8956   0.5988   0.3515     H
O       0.9003    0.224   0.7976     O
O       0.9003    0.776   0.2976     O
C       0.9035   0.1792   0.6366     C
C       0.9035   0.8208   0.1366     C
C        0.906   0.3914   0.5472     C
C        0.906   0.6086   0.0472     C
C       0.9124   0.4716   0.0834     C
C       0.9124   0.5284   0.5834     C
O       0.9198   0.3095   0.9144     O
O       0.9198   0.6905   0.4144     O
H       0.9228   0.1727   0.5203     H
H       0.9228   0.8273   0.0203     H
H       0.9294   0.4854   0.8434     H
H       0.9294   0.5146   0.3434     H
C       0.9321   0.3804   0.1005     C
C       0.9321   0.6196   0.6005     C
H       0.9376   0.2079    0.661     H
H       0.9376   0.7921    0.161     H
C       0.9437   0.4744    0.588     C
C       0.9437   0.5256    0.088     C
O       0.9498   0.2865   0.5556     O
O       0.9498   0.7135   0.0556     O
C       0.9518   0.4113   0.8764     C
C       0.9518   0.5887   0.3764     C
C       0.9652   0.4292   0.1137     C
C       0.9652   0.5708   0.6137     C
H       0.9671   0.3517   0.1174     H
H       0.9671   0.6483   0.6174     H
C       0.9712    0.461    0.872     C
C       0.9712    0.539    0.372     C
H       0.9766   0.4339   0.3569     H
H       0.9766   0.5661   0.8569     H
C       0.9868   0.3757   0.5835     C
C       0.9868   0.6243   0.0835     C
C        0.994   0.3188   0.9257     C
C        0.994   0.6812   0.4257     C
