data_I
_chemical_name_common  '/home/zhangsd/repos/MofS-CGCNN/ML/data/TSD/clean_cifs/YAPYUK_clean'
_cell_length_a  7.36270
_cell_length_b 12.33000
_cell_length_c 13.92900
_cell_angle_alpha 83.43900
_cell_angle_beta  81.48500
_cell_angle_gamma 72.67400
_space_group_name_H-M_alt      'P 1'


loop_
_space_group_symop_operation_xyz
  'x, y, z' 

loop_
_atom_site_label
_atom_site_fract_x
_atom_site_fract_y
_atom_site_fract_z
_atom_site_type_symbol
C       0.0006    0.105   0.4618     C
H        0.006    0.815    0.559     H
H       0.0115   0.6296   0.2206     H
C       0.0374   0.9172   0.4399     C
N       0.0397    0.022   0.4006     N
H        0.069    0.867      0.4     H
H       0.0758   0.4256   0.3018     H
Co     0.08419  0.06372  0.24816    Co
C       0.0871   0.5937   0.4064     C
C       0.0955   0.3512   0.6391     C
C       0.0989   0.3383   0.7385     C
O       0.1085   0.2912   0.9411     O
O       0.1102    0.624   0.4828     O
O       0.1498   0.7973   0.7271     O
C       0.2023   0.4205   0.3078     C
H        0.207    0.625     0.98     H
O       0.2371   0.1709   0.2811     O
C       0.2395   0.5012   0.3565     C
H        0.249    0.432     0.02     H
O       0.2548   0.7773   0.2414     O
H       0.2597   0.3125    0.511     H
C       0.2621   0.3053    0.578     C
C       0.2629   0.2608   0.8886     C
C       0.2676   0.2771   0.7787     C
C        0.293   0.2412   0.2237     C
O       0.2941   0.2449   0.1322     O
C       0.2948   0.7665   0.7691     C
H       0.2969   0.6012   0.6675     H
O       0.3049   0.8095   0.8445     O
C       0.3302   0.5737   0.9928     C
O       0.3404    0.937   0.2371     O
C       0.3477   0.3316   0.2671     C
C       0.3507   0.4577   0.0109     C
C       0.3725   0.8293   0.2488     C
C       0.4231   0.5952   0.6749     C
O       0.4238   0.2134   0.9185     O
C       0.4305   0.4922   0.3656     C
C       0.4315   0.2491   0.6164     C
C       0.4342    0.235   0.7177     C
Co     0.45522   0.7899  0.95969    Co
H       0.4568   0.7793   0.4249     H
H       0.4588   0.5452   0.3989     H
C       0.4612   0.6738    0.726     C
N       0.4806   0.6165   0.9829     N
N       0.5194   0.3835   0.0171     N
C       0.5388   0.3262    0.274     C
H       0.5412   0.4548   0.6011     H
H       0.5432   0.2207   0.5751     H
Co     0.54478   0.2101  0.04031    Co
C       0.5658    0.765   0.2823     C
C       0.5685   0.7509   0.3836     C
C       0.5695   0.5078   0.6344     C
O       0.5762   0.7866   0.0815     O
C       0.5769   0.4048   0.3251     C
C       0.6275   0.1707   0.7512     C
C       0.6493   0.5423   0.9891     C
C       0.6523   0.6684   0.7329     C
O       0.6596    0.063   0.7629     O
C       0.6698   0.4263   0.0072     C
O       0.6951   0.1905   0.1555     O
H       0.7031   0.3988   0.3325     H
C       0.7052   0.2335   0.2309     C
O       0.7059   0.7551   0.8678     O
C        0.707   0.7588   0.7763     C
C       0.7324   0.7229   0.2213     C
C       0.7371   0.7392   0.1114     C
C       0.7379   0.6947    0.422     C
H       0.7403   0.6875    0.489     H
O       0.7452   0.2227   0.7586     O
H        0.751    0.568     0.98     H
C       0.7605   0.4988   0.6435     C
O       0.7629   0.8291   0.7189     O
H        0.793    0.375     0.02     H
C       0.7977   0.5795   0.6922     C
O       0.8502   0.2027   0.2729     O
O       0.8898    0.376   0.5172     O
O       0.8915   0.7088   0.0589     O
C       0.9011   0.6617   0.2615     C
C       0.9045   0.6488   0.3609     C
C       0.9129   0.4063   0.5936     C
Co     0.91581  0.93628  0.75184    Co
H       0.9242   0.5744   0.6982     H
H        0.931    0.133      0.6     H
N       0.9603    0.978   0.5994     N
C       0.9626   0.0828   0.5601     C
H       0.9885   0.3704   0.7794     H
H        0.994    0.185    0.441     H
C       0.9994    0.895   0.5382     C
