data_I
_chemical_name_common  '/home/zhangsd/repos/MofS-CGCNN/ML/data/TSD/clean_cifs/YAQZUN_clean'
_cell_length_a  9.97360
_cell_length_b 12.70510
_cell_length_c 12.84890
_cell_angle_alpha 90.00000
_cell_angle_beta  90.00000
_cell_angle_gamma 90.00000
_space_group_name_H-M_alt      'P 1'


loop_
_space_group_symop_operation_xyz
  'x, y, z' 

loop_
_atom_site_label
_atom_site_fract_x
_atom_site_fract_y
_atom_site_fract_z
_atom_site_type_symbol
O       0.0004  0.25508  0.13774     O
O       0.0004  0.75508  0.36226     O
C       0.0163   0.1086   0.5144     C
C       0.0163   0.6086   0.9856     C
C       0.0306   0.2225   0.5458     C
C       0.0306   0.7225   0.9542     C
C       0.0745   0.4287   0.9397     C
C       0.0745   0.9287   0.5603     C
O       0.0785  0.29115  0.48574     O
O       0.0785  0.79115  0.01426     O
C       0.0898   0.0369   0.5732     C
C       0.0898   0.5369   0.9268     C
U      0.09489  0.31314   0.2986     U
U      0.09489  0.81314   0.2014     U
O       0.1063   0.2699   0.8444     O
O       0.1063   0.7699   0.6556     O
H       0.1505   0.0619   0.6223     H
H       0.1505   0.5619   0.8777     H
C       0.1548   0.3582   0.8696     C
C       0.1548   0.8582   0.6304     C
O       0.2331  0.38977  0.16166     O
O       0.2331  0.88977  0.33834     O
O       0.2669  0.38977  0.83834     O
O       0.2669  0.88977  0.66166     O
C       0.3452   0.3582   0.1304     C
C       0.3452   0.8582   0.3696     C
H       0.3495   0.0619   0.3777     H
H       0.3495   0.5619   0.1223     H
O       0.3937   0.2699   0.1556     O
O       0.3937   0.7699   0.3444     O
U      0.40511  0.31314   0.7014     U
U      0.40511  0.81314   0.7986     U
C       0.4102   0.0369   0.4268     C
C       0.4102   0.5369   0.0732     C
O       0.4215  0.29115  0.51426     O
O       0.4215  0.79115  0.98574     O
C       0.4255   0.4287   0.0603     C
C       0.4255   0.9287   0.4397     C
C       0.4694   0.2225   0.4542     C
C       0.4694   0.7225   0.0458     C
C       0.4837   0.1086   0.4856     C
C       0.4837   0.6086   0.0144     C
O       0.4996  0.25508  0.86226     O
O       0.4996  0.75508  0.63774     O
O       0.5004  0.24492  0.36226     O
O       0.5004  0.74492  0.13774     O
C       0.5163   0.3914   0.9856     C
C       0.5163   0.8914   0.5144     C
C       0.5306   0.2775   0.9542     C
C       0.5306   0.7775   0.5458     C
C       0.5745   0.0713   0.5603     C
C       0.5745   0.5713   0.9397     C
O       0.5785  0.20885  0.01426     O
O       0.5785  0.70885  0.48574     O
C       0.5898   0.4631   0.9268     C
C       0.5898   0.9631   0.5732     C
U      0.59489  0.18686   0.2014     U
U      0.59489  0.68686   0.2986     U
O       0.6063   0.2301   0.6556     O
O       0.6063   0.7301   0.8444     O
H       0.6505   0.4381   0.8777     H
H       0.6505   0.9381   0.6223     H
C       0.6548   0.1418   0.6304     C
C       0.6548   0.6418   0.8696     C
O       0.7331  0.11023  0.33834     O
O       0.7331  0.61023  0.16166     O
O       0.7669  0.11023  0.66166     O
O       0.7669  0.61023  0.83834     O
C       0.8452   0.1418   0.3696     C
C       0.8452   0.6418   0.1304     C
H       0.8495   0.4381   0.1223     H
H       0.8495   0.9381   0.3777     H
O       0.8937   0.2301   0.3444     O
O       0.8937   0.7301   0.1556     O
U      0.90511  0.18686   0.7986     U
U      0.90511  0.68686   0.7014     U
C       0.9102   0.4631   0.0732     C
C       0.9102   0.9631   0.4268     C
O       0.9215  0.20885  0.98574     O
O       0.9215  0.70885  0.51426     O
C       0.9255   0.0713   0.4397     C
C       0.9255   0.5713   0.0603     C
C       0.9694   0.2775   0.0458     C
C       0.9694   0.7775   0.4542     C
C       0.9837   0.3914   0.0144     C
C       0.9837   0.8914   0.4856     C
O       0.9996  0.24492  0.63774     O
O       0.9996  0.74492  0.86226     O
