data_I
_chemical_name_common  '/home/zhangsd/repos/MofS-CGCNN/ML/data/TSD/clean_cifs/YARKEJ_clean'
_cell_length_a 12.09950
_cell_length_b 14.00770
_cell_length_c 14.00770
_cell_angle_alpha 97.54620
_cell_angle_beta  100.08300
_cell_angle_gamma 79.91680
_space_group_name_H-M_alt      'P 1'


loop_
_space_group_symop_operation_xyz
  'x, y, z' 

loop_
_atom_site_label
_atom_site_fract_x
_atom_site_fract_y
_atom_site_fract_z
_atom_site_type_symbol
H        0.004   0.3444    0.482     H
O       0.0041  0.77525  0.09331     O
C       0.0047   0.9473   0.4843     C
N       0.0048  0.29292  0.70028     N
H       0.0139   0.9611   0.2965     H
O       0.0165   0.3759   0.9579     O
C       0.0184   0.6991   0.0347     C
H       0.0198   0.9115   0.5411     H
C        0.023   0.6531   0.4593     C
C       0.0349   0.6823   0.8593     C
H       0.0358   0.3381   0.1533     H
C       0.0396  0.29284  0.61476     C
H       0.0557   0.6767   0.7187     H
H       0.0669   0.0667   0.5537     H
C       0.0834   0.9299   0.3259     C
C       0.0854   0.7038    0.955     C
C       0.0898    0.691   0.7826     C
C       0.0946   0.6545   0.2881     C
C       0.0989   0.9133   0.4233     C
Zn     0.10065  0.23015  0.81609    Zn
H       0.1084    0.255    0.604     H
H       0.1225   0.6555   0.2305     H
C       0.1228   0.5972   0.4452     C
H       0.1406   0.4345   0.8145     H
H        0.158   0.9101   0.2073     H
C       0.1581   0.5986   0.3572     C
H        0.165   0.5597   0.5835     H
H       0.1658   0.4691   0.5055     H
C       0.1709   0.9001   0.2729     C
O       0.1782    0.095  0.80466     O
H       0.1819   0.9074    0.759     H
C       0.1882   0.5332   0.5212     C
C       0.1922  0.73126  0.97294     C
C        0.194  0.72083  0.80097     C
C       0.2038   0.8705   0.4619     C
C       0.2115   0.4056   0.8436     C
H       0.2184   0.8592   0.5272     H
H       0.2263    0.561   0.3446     H
N       0.2264   0.3113  0.85734     N
C       0.2418  0.07353  0.73827     C
C       0.2465  0.74002  0.89538     C
O       0.2482  0.13002  0.68116     O
O         0.25   0.7219   0.7219     O
O       0.2518  0.68116  0.13002     O
C       0.2535  0.89538  0.74002     C
C       0.2582  0.73827  0.07353     C
N       0.2736  0.85734   0.3113     N
H       0.2737   0.3446    0.561     H
H       0.2816   0.5272   0.8592     H
C       0.2885   0.8436   0.4056     C
C       0.2962   0.4619   0.8705     C
C        0.306  0.80097  0.72083     C
C       0.3078  0.97294  0.73126     C
C       0.3118   0.5212   0.5332     C
H       0.3181    0.759   0.9074     H
O       0.3218  0.80466    0.095     O
C       0.3291   0.2729   0.9001     C
H       0.3342   0.5055   0.4691     H
H        0.335   0.5835   0.5597     H
C       0.3419   0.3572   0.5986     C
H        0.342   0.2073   0.9101     H
H       0.3594   0.8145   0.4345     H
C       0.3772   0.4452   0.5972     C
H       0.3775   0.2305   0.6555     H
H       0.3916    0.604    0.255     H
Zn     0.39935  0.81609  0.23015    Zn
C       0.4011   0.4233   0.9133     C
C       0.4054   0.2881   0.6545     C
C       0.4102   0.7826    0.691     C
C       0.4146    0.955   0.7038     C
C       0.4166   0.3259   0.9299     C
H       0.4331   0.5537   0.0667     H
H       0.4443   0.7187   0.6767     H
C       0.4604  0.61476  0.29284     C
H       0.4642   0.1533   0.3381     H
C       0.4651   0.8593   0.6823     C
C        0.477   0.4593   0.6531     C
H       0.4802   0.5411   0.9115     H
C       0.4816   0.0347   0.6991     C
O       0.4835   0.9579   0.3759     O
H       0.4861   0.2965   0.9611     H
N       0.4952  0.70028  0.29292     N
C       0.4953   0.4843   0.9473     C
O       0.4959  0.09331  0.77525     O
H        0.496    0.482   0.3444     H
H        0.504    0.518   0.6556     H
O       0.5041  0.90669  0.22475     O
C       0.5047   0.5157   0.0527     C
N       0.5048  0.29972  0.70708     N
H       0.5139   0.7035   0.0389     H
O       0.5165   0.0421   0.6241     O
C       0.5184   0.9653   0.3009     C
H       0.5198   0.4589   0.0885     H
C        0.523   0.5407   0.3469     C
C       0.5349   0.1407   0.3177     C
H       0.5358   0.8467   0.6619     H
C       0.5396  0.38524  0.70716     C
H       0.5557   0.2813   0.3233     H
H       0.5669   0.4463   0.9333     H
C       0.5834   0.6741   0.0701     C
C       0.5854    0.045   0.2962     C
C       0.5898   0.2174    0.309     C
C       0.5946   0.7119   0.3455     C
C       0.5989   0.5767   0.0867     C
Zn     0.60065  0.18391  0.76985    Zn
H       0.6084    0.396    0.745     H
H       0.6225   0.7695   0.3445     H
C       0.6228   0.5548   0.4028     C
H       0.6406   0.1855   0.5655     H
H        0.658   0.7927   0.0899     H
C       0.6581   0.6428   0.4014     C
H        0.665   0.4165   0.4403     H
H       0.6658   0.4945   0.5309     H
C       0.6709   0.7271   0.0999     C
O       0.6782  0.19534    0.905     O
H       0.6819    0.241   0.0926     H
C       0.6882   0.4788   0.4668     C
C       0.6922  0.02706  0.26874     C
C        0.694  0.19903  0.27917     C
C       0.7038   0.5381   0.1295     C
C       0.7115   0.1564   0.5944     C
H       0.7184   0.4728   0.1408     H
H       0.7263   0.6554    0.439     H
N       0.7264  0.14266   0.6887     N
C       0.7418  0.26173  0.92647     C
C       0.7465  0.10462  0.25998     C
O       0.7482  0.31884  0.86998     O
O         0.75   0.2781   0.2781     O
O       0.7518  0.86998  0.31884     O
C       0.7535  0.25998  0.10462     C
C       0.7582  0.92647  0.26173     C
N       0.7736   0.6887  0.14266     N
H       0.7737    0.439   0.6554     H
H       0.7816   0.1408   0.4728     H
C       0.7885   0.5944   0.1564     C
C       0.7962   0.1295   0.5381     C
C        0.806  0.27917  0.19903     C
C       0.8078  0.26874  0.02706     C
C       0.8118   0.4668   0.4788     C
H       0.8181   0.0926    0.241     H
O       0.8218    0.905  0.19534     O
C       0.8291   0.0999   0.7271     C
H       0.8342   0.5309   0.4945     H
H        0.835   0.4403   0.4165     H
C       0.8419   0.4014   0.6428     C
H        0.842   0.0899   0.7927     H
H       0.8594   0.5655   0.1855     H
C       0.8772   0.4028   0.5548     C
H       0.8775   0.3445   0.7695     H
H       0.8916    0.745    0.396     H
Zn     0.89935  0.76985  0.18391    Zn
C       0.9011   0.0867   0.5767     C
C       0.9054   0.3455   0.7119     C
C       0.9102    0.309   0.2174     C
C       0.9146   0.2962    0.045     C
C       0.9166   0.0701   0.6741     C
H       0.9331   0.9333   0.4463     H
H       0.9443   0.3233   0.2813     H
C       0.9604  0.70716  0.38524     C
H       0.9642   0.6619   0.8467     H
C       0.9651   0.3177   0.1407     C
C        0.977   0.3469   0.5407     C
H       0.9802   0.0885   0.4589     H
C       0.9816   0.3009   0.9653     C
O       0.9835   0.6241   0.0421     O
H       0.9861   0.0389   0.7035     H
N       0.9952  0.70708  0.29972     N
C       0.9953   0.0527   0.5157     C
O       0.9959  0.22475  0.90669     O
H        0.996   0.6556    0.518     H
