data_I
_chemical_name_common  '/home/zhangsd/repos/MofS-CGCNN/ML/data/TSD/clean_cifs/YARKOT_clean'
_cell_length_a  9.57410
_cell_length_b 11.44030
_cell_length_c 25.67400
_cell_angle_alpha 90.00000
_cell_angle_beta  90.00000
_cell_angle_gamma 90.00000
_space_group_name_H-M_alt      'P 1'


loop_
_space_group_symop_operation_xyz
  'x, y, z' 

loop_
_atom_site_label
_atom_site_fract_x
_atom_site_fract_y
_atom_site_fract_z
_atom_site_type_symbol
O          0.0   0.3732     0.75     O
O          0.0   0.6268     0.25     O
O       0.0069    0.137   0.9757     O
O       0.0069    0.863   0.0243     O
C       0.0158    0.307   0.7042     C
C       0.0158    0.693   0.2958     C
C        0.039   0.2878   0.8869     C
C        0.039   0.7122   0.1131     C
C       0.0589   0.3452   0.8386     C
C       0.0589   0.6548   0.1614     C
C       0.0596      0.2   0.6088     C
C       0.0596      0.8   0.3912     C
O        0.069   0.4058  0.96219     O
O        0.069   0.5942  0.03781     O
C       0.0853   0.1365   0.5586     C
C       0.0853   0.8635   0.4414     C
C       0.1115   0.2169   0.7002     C
C       0.1115   0.7831   0.2998     C
H        0.121   0.4073   0.8357     H
H        0.121   0.5927   0.1643     H
C       0.1282   0.3344   0.9307     C
C       0.1282   0.6656   0.0693     C
C       0.1326   0.1669   0.6526     C
C       0.1326   0.8331   0.3474     C
H       0.1603   0.1909   0.7293     H
H       0.1603   0.8091   0.2707     H
H       0.1991    0.108   0.6496     H
H       0.1991    0.892   0.3504     H
O       0.2026   0.0871    0.556     O
O       0.2026   0.9129    0.444     O
Zn     0.21314      0.5      0.0    Zn
O       0.2468   0.1905   0.4317     O
O       0.2468   0.8095   0.5683     O
O       0.2532   0.3095   0.9317     O
O       0.2532   0.6905   0.0683     O
Zn     0.28686      0.0      0.5    Zn
O       0.2974   0.4129    0.056     O
O       0.2974   0.5871    0.944     O
H       0.3009    0.392   0.1496     H
H       0.3009    0.608   0.8504     H
H       0.3397   0.3091   0.2293     H
H       0.3397   0.6909   0.7707     H
C       0.3674   0.3331   0.1526     C
C       0.3674   0.6669   0.8474     C
C       0.3718   0.1656   0.4307     C
C       0.3718   0.8344   0.5693     C
H        0.379   0.0927   0.3357     H
H        0.379   0.9073   0.6643     H
C       0.3885   0.2831   0.2002     C
C       0.3885   0.7169   0.7998     C
C       0.4147   0.3635   0.0586     C
C       0.4147   0.6365   0.9414     C
O        0.431   0.0942  0.46219     O
O        0.431   0.9058  0.53781     O
C       0.4404      0.3   0.1088     C
C       0.4404      0.7   0.8912     C
C       0.4411   0.1548   0.3386     C
C       0.4411   0.8452   0.6614     C
C        0.461   0.2122   0.3869     C
C        0.461   0.7878   0.6131     C
C       0.4842    0.193   0.2042     C
C       0.4842    0.807   0.7958     C
O       0.4931    0.363   0.4757     O
O       0.4931    0.637   0.5243     O
O          0.5   0.1268     0.25     O
O          0.5   0.8732     0.75     O
O       0.5069    0.363   0.0243     O
O       0.5069    0.637   0.9757     O
C       0.5158    0.193   0.2958     C
C       0.5158    0.807   0.7042     C
C        0.539   0.2122   0.1131     C
C        0.539   0.7878   0.8869     C
C       0.5589   0.1548   0.1614     C
C       0.5589   0.8452   0.8386     C
C       0.5596      0.3   0.3912     C
C       0.5596      0.7   0.6088     C
O        0.569   0.0942  0.03781     O
O        0.569   0.9058  0.96219     O
C       0.5853   0.3635   0.4414     C
C       0.5853   0.6365   0.5586     C
C       0.6115   0.2831   0.2998     C
C       0.6115   0.7169   0.7002     C
H        0.621   0.0927   0.1643     H
H        0.621   0.9073   0.8357     H
C       0.6282   0.1656   0.0693     C
C       0.6282   0.8344   0.9307     C
C       0.6326   0.3331   0.3474     C
C       0.6326   0.6669   0.6526     C
H       0.6603   0.3091   0.2707     H
H       0.6603   0.6909   0.7293     H
H       0.6991    0.392   0.3504     H
H       0.6991    0.608   0.6496     H
O       0.7026   0.4129    0.444     O
O       0.7026   0.5871    0.556     O
Zn     0.71314      0.0      0.0    Zn
O       0.7468   0.3095   0.5683     O
O       0.7468   0.6905   0.4317     O
O       0.7532   0.1905   0.0683     O
O       0.7532   0.8095   0.9317     O
Zn     0.78686      0.5      0.5    Zn
O       0.7974   0.0871    0.944     O
O       0.7974   0.9129    0.056     O
H       0.8009    0.108   0.8504     H
H       0.8009    0.892   0.1496     H
H       0.8397   0.1909   0.7707     H
H       0.8397   0.8091   0.2293     H
C       0.8674   0.1669   0.8474     C
C       0.8674   0.8331   0.1526     C
C       0.8718   0.3344   0.5693     C
C       0.8718   0.6656   0.4307     C
H        0.879   0.4073   0.6643     H
H        0.879   0.5927   0.3357     H
C       0.8885   0.2169   0.7998     C
C       0.8885   0.7831   0.2002     C
C       0.9147   0.1365   0.9414     C
C       0.9147   0.8635   0.0586     C
O        0.931   0.4058  0.53781     O
O        0.931   0.5942  0.46219     O
C       0.9404      0.2   0.8912     C
C       0.9404      0.8   0.1088     C
C       0.9411   0.3452   0.6614     C
C       0.9411   0.6548   0.3386     C
C        0.961   0.2878   0.6131     C
C        0.961   0.7122   0.3869     C
C       0.9842    0.307   0.7958     C
C       0.9842    0.693   0.2042     C
O       0.9931    0.137   0.5243     O
O       0.9931    0.863   0.4757     O
