data_I
_chemical_name_common  '/home/zhangsd/repos/MofS-CGCNN/ML/data/TSD/clean_cifs/YATDUV_clean'
_cell_length_a 20.07870
_cell_length_b 20.07870
_cell_length_c 20.07870
_cell_angle_alpha 90.00000
_cell_angle_beta  90.00000
_cell_angle_gamma 90.00000
_space_group_name_H-M_alt      'P 1'


loop_
_space_group_symop_operation_xyz
  'x, y, z' 

loop_
_atom_site_label
_atom_site_fract_x
_atom_site_fract_y
_atom_site_fract_z
_atom_site_type_symbol
C       0.0218   0.2497   0.7993     C
C       0.0218   0.2503   0.2993     C
O      0.04899  0.20765   0.8352     O
O      0.04899  0.29235   0.3352     O
C      0.04985   0.7367   0.1973     C
C      0.04985   0.7633   0.6973     C
O      0.05496  0.21668  0.25683     O
O      0.05496  0.28332  0.75683     O
H        0.067   0.6596   0.2629     H
H        0.067   0.8404   0.7629     H
C       0.0853   0.6897   0.2328     C
C       0.0853   0.8103   0.7328     C
H       0.0895   0.6964   0.6299     H
H       0.0895   0.8036   0.1299     H
C       0.0979   0.7311   0.6594     C
C       0.0979   0.7689   0.1594     C
H       0.1299   0.0895   0.8036     H
H       0.1299   0.4105   0.3036     H
Zn      0.1457  0.24881  0.77053    Zn
Zn      0.1457  0.25119  0.27053    Zn
N      0.14974  0.69397  0.21748     N
N      0.14974  0.80603  0.71748     N
N      0.15736  0.74318  0.17105     N
N      0.15736  0.75682  0.67105     N
C       0.1594   0.0979   0.7689     C
C       0.1594   0.4021   0.2689     C
H       0.1596   0.2371    0.933     H
H       0.1596   0.2629    0.433     H
O       0.1648  0.54899  0.29235     O
O       0.1648  0.95101  0.79235     O
N      0.17105  0.15736  0.74318     N
N      0.17105  0.34264  0.24318     N
C       0.1897   0.2328   0.4147     C
C       0.1897   0.2672   0.9147     C
N      0.19397  0.21748  0.35026     N
N      0.19397  0.28252  0.85026     N
H       0.1964   0.6299   0.4105     H
H       0.1964   0.8701   0.9105     H
C       0.1973  0.04985   0.7367     C
C       0.1973  0.45015   0.2367     C
C       0.2007   0.5218   0.2503     C
C       0.2007   0.9782   0.7503     C
O       0.2012   0.2012   0.2012     O
O       0.2012   0.2988   0.7012     O
O      0.20765   0.6648  0.54899     O
O      0.20765   0.8352  0.04899     O
O      0.21668  0.24317  0.55496     O
O      0.21668  0.25683  0.05496     O
N      0.21748  0.14974  0.69397     N
N      0.21748  0.35026  0.19397     N
Zn     0.22947   0.6457  0.25119    Zn
Zn     0.22947   0.8543  0.75119    Zn
C       0.2311   0.6594   0.4021     C
C       0.2311   0.8406   0.9021     C
C       0.2328   0.0853   0.6897     C
C       0.2328   0.4147   0.1897     C
C       0.2367   0.1973  0.45015     C
C       0.2367   0.3027  0.95015     C
H       0.2371    0.567   0.6596     H
H       0.2371    0.933   0.1596     H
O      0.24317  0.55496  0.21668     O
O      0.24317  0.94504  0.71668     O
N      0.24318  0.17105  0.34264     N
N      0.24318  0.32895  0.84264     N
Zn     0.24881  0.72947   0.6457    Zn
Zn     0.24881  0.77053   0.1457    Zn
C       0.2497   0.7007   0.5218     C
C       0.2497   0.7993   0.0218     C
C       0.2503   0.2007   0.5218     C
C       0.2503   0.2993   0.0218     C
Zn     0.25119  0.22947   0.6457    Zn
Zn     0.25119  0.27053   0.1457    Zn
N      0.25682  0.67105  0.34264     N
N      0.25682  0.82895  0.84264     N
O      0.25683  0.05496  0.21668     O
O      0.25683  0.44504  0.71668     O
H       0.2629    0.067   0.6596     H
H       0.2629    0.433   0.1596     H
C       0.2633   0.6973  0.45015     C
C       0.2633   0.8027  0.95015     C
C       0.2672   0.5853   0.6897     C
C       0.2672   0.9147   0.1897     C
C       0.2689   0.1594   0.4021     C
C       0.2689   0.3406   0.9021     C
Zn     0.27053   0.1457  0.25119    Zn
Zn     0.27053   0.3543  0.75119    Zn
N      0.28252  0.64974  0.69397     N
N      0.28252  0.85026  0.19397     N
O      0.28332  0.74317  0.55496     O
O      0.28332  0.75683  0.05496     O
O      0.29235   0.1648  0.54899     O
O      0.29235   0.3352  0.04899     O
O       0.2988   0.7012   0.2012     O
O       0.2988   0.7988   0.7012     O
C       0.2993   0.0218   0.2503     C
C       0.2993   0.4782   0.7503     C
C       0.3027  0.54985   0.7367     C
C       0.3027  0.95015   0.2367     C
H       0.3036   0.1299   0.4105     H
H       0.3036   0.3701   0.9105     H
N      0.30603  0.71748  0.35026     N
N      0.30603  0.78252  0.85026     N
C       0.3103   0.7328   0.4147     C
C       0.3103   0.7672   0.9147     C
N      0.32895  0.65736  0.74318     N
N      0.32895  0.84264  0.24318     N
O       0.3352  0.04899  0.29235     O
O       0.3352  0.45101  0.79235     O
H       0.3404   0.7371    0.933     H
H       0.3404   0.7629    0.433     H
C       0.3406   0.5979   0.7689     C
C       0.3406   0.9021   0.2689     C
N      0.34264  0.24318  0.17105     N
N      0.34264  0.25682  0.67105     N
N      0.35026  0.19397  0.21748     N
N      0.35026  0.30603  0.71748     N
Zn      0.3543  0.74881  0.77053    Zn
Zn      0.3543  0.75119  0.27053    Zn
H       0.3701   0.5895   0.8036     H
H       0.3701   0.9105   0.3036     H
C       0.4021   0.2311   0.6594     C
C       0.4021   0.2689   0.1594     C
H       0.4105   0.1964   0.6299     H
H       0.4105   0.3036   0.1299     H
C       0.4147   0.1897   0.2328     C
C       0.4147   0.3103   0.7328     C
H        0.433   0.1596   0.2629     H
H        0.433   0.3404   0.7629     H
O      0.44504  0.71668  0.25683     O
O      0.44504  0.78332  0.75683     O
C      0.45015   0.2367   0.1973     C
C      0.45015   0.2633   0.6973     C
O      0.45101  0.70765   0.8352     O
O      0.45101  0.79235   0.3352     O
C       0.4782   0.7497   0.7993     C
C       0.4782   0.7503   0.2993     C
C       0.5218   0.2497   0.7007     C
C       0.5218   0.2503   0.2007     C
O      0.54899  0.20765   0.6648     O
O      0.54899  0.29235   0.1648     O
C      0.54985   0.7367   0.3027     C
C      0.54985   0.7633   0.8027     C
O      0.55496  0.21668  0.24317     O
O      0.55496  0.28332  0.74317     O
H        0.567   0.6596   0.2371     H
H        0.567   0.8404   0.7371     H
C       0.5853   0.6897   0.2672     C
C       0.5853   0.8103   0.7672     C
H       0.5895   0.6964   0.8701     H
H       0.5895   0.8036   0.3701     H
C       0.5979   0.7311   0.8406     C
C       0.5979   0.7689   0.3406     C
H       0.6299   0.0895   0.6964     H
H       0.6299   0.4105   0.1964     H
Zn      0.6457  0.24881  0.72947    Zn
Zn      0.6457  0.25119  0.22947    Zn
N      0.64974  0.69397  0.28252     N
N      0.64974  0.80603  0.78252     N
N      0.65736  0.74318  0.32895     N
N      0.65736  0.75682  0.82895     N
C       0.6594   0.0979   0.7311     C
C       0.6594   0.4021   0.2311     C
H       0.6596   0.2371    0.567     H
H       0.6596   0.2629    0.067     H
O       0.6648  0.54899  0.20765     O
O       0.6648  0.95101  0.70765     O
N      0.67105  0.15736  0.75682     N
N      0.67105  0.34264  0.25682     N
C       0.6897   0.2328   0.0853     C
C       0.6897   0.2672   0.5853     C
N      0.69397  0.21748  0.14974     N
N      0.69397  0.28252  0.64974     N
H       0.6964   0.6299   0.0895     H
H       0.6964   0.8701   0.5895     H
C       0.6973  0.04985   0.7633     C
C       0.6973  0.45015   0.2633     C
C       0.7007   0.5218   0.2497     C
C       0.7007   0.9782   0.7497     C
O       0.7012   0.2012   0.2988     O
O       0.7012   0.2988   0.7988     O
O      0.70765   0.6648  0.95101     O
O      0.70765   0.8352  0.45101     O
O      0.71668  0.24317  0.94504     O
O      0.71668  0.25683  0.44504     O
N      0.71748  0.14974  0.80603     N
N      0.71748  0.35026  0.30603     N
Zn     0.72947   0.6457  0.24881    Zn
Zn     0.72947   0.8543  0.74881    Zn
C       0.7311   0.6594   0.0979     C
C       0.7311   0.8406   0.5979     C
C       0.7328   0.0853   0.8103     C
C       0.7328   0.4147   0.3103     C
C       0.7367   0.1973  0.04985     C
C       0.7367   0.3027  0.54985     C
H       0.7371    0.567   0.8404     H
H       0.7371    0.933   0.3404     H
O      0.74317  0.55496  0.28332     O
O      0.74317  0.94504  0.78332     O
N      0.74318  0.17105  0.15736     N
N      0.74318  0.32895  0.65736     N
Zn     0.74881  0.72947   0.8543    Zn
Zn     0.74881  0.77053   0.3543    Zn
C       0.7497   0.7007   0.9782     C
C       0.7497   0.7993   0.4782     C
C       0.7503   0.2007   0.9782     C
C       0.7503   0.2993   0.4782     C
Zn     0.75119  0.22947   0.8543    Zn
Zn     0.75119  0.27053   0.3543    Zn
N      0.75682  0.67105  0.15736     N
N      0.75682  0.82895  0.65736     N
O      0.75683  0.05496  0.28332     O
O      0.75683  0.44504  0.78332     O
H       0.7629    0.067   0.8404     H
H       0.7629    0.433   0.3404     H
C       0.7633   0.6973  0.04985     C
C       0.7633   0.8027  0.54985     C
C       0.7672   0.5853   0.8103     C
C       0.7672   0.9147   0.3103     C
C       0.7689   0.1594   0.0979     C
C       0.7689   0.3406   0.5979     C
Zn     0.77053   0.1457  0.24881    Zn
Zn     0.77053   0.3543  0.74881    Zn
N      0.78252  0.64974  0.80603     N
N      0.78252  0.85026  0.30603     N
O      0.78332  0.74317  0.94504     O
O      0.78332  0.75683  0.44504     O
O      0.79235   0.1648  0.95101     O
O      0.79235   0.3352  0.45101     O
O       0.7988   0.7012   0.2988     O
O       0.7988   0.7988   0.7988     O
C       0.7993   0.0218   0.2497     C
C       0.7993   0.4782   0.7497     C
C       0.8027  0.54985   0.7633     C
C       0.8027  0.95015   0.2633     C
H       0.8036   0.1299   0.0895     H
H       0.8036   0.3701   0.5895     H
N      0.80603  0.71748  0.14974     N
N      0.80603  0.78252  0.64974     N
C       0.8103   0.7328   0.0853     C
C       0.8103   0.7672   0.5853     C
N      0.82895  0.65736  0.75682     N
N      0.82895  0.84264  0.25682     N
O       0.8352  0.04899  0.20765     O
O       0.8352  0.45101  0.70765     O
H       0.8404   0.7371    0.567     H
H       0.8404   0.7629    0.067     H
C       0.8406   0.5979   0.7311     C
C       0.8406   0.9021   0.2311     C
N      0.84264  0.24318  0.32895     N
N      0.84264  0.25682  0.82895     N
N      0.85026  0.19397  0.28252     N
N      0.85026  0.30603  0.78252     N
Zn      0.8543  0.74881  0.72947    Zn
Zn      0.8543  0.75119  0.22947    Zn
H       0.8701   0.5895   0.6964     H
H       0.8701   0.9105   0.1964     H
C       0.9021   0.2311   0.8406     C
C       0.9021   0.2689   0.3406     C
H       0.9105   0.1964   0.8701     H
H       0.9105   0.3036   0.3701     H
C       0.9147   0.1897   0.2672     C
C       0.9147   0.3103   0.7672     C
H        0.933   0.1596   0.2371     H
H        0.933   0.3404   0.7371     H
O      0.94504  0.71668  0.24317     O
O      0.94504  0.78332  0.74317     O
C      0.95015   0.2367   0.3027     C
C      0.95015   0.2633   0.8027     C
O      0.95101  0.70765   0.6648     O
O      0.95101  0.79235   0.1648     O
C       0.9782   0.7497   0.7007     C
C       0.9782   0.7503   0.2007     C
