data_I
_chemical_name_common  '/home/zhangsd/repos/MofS-CGCNN/ML/data/TSD/clean_cifs/YAWBAC_clean'
_cell_length_a 18.83230
_cell_length_b 18.83230
_cell_length_c 38.49580
_cell_angle_alpha 90.00000
_cell_angle_beta  90.00000
_cell_angle_gamma 120.00000
_space_group_name_H-M_alt      'P 1'


loop_
_space_group_symop_operation_xyz
  'x, y, z' 

loop_
_atom_site_label
_atom_site_fract_x
_atom_site_fract_y
_atom_site_fract_z
_atom_site_type_symbol
O       0.0069   0.2323    0.116     O
C      0.00903  0.49947  0.76337     C
C      0.02107  0.78433  0.60923     C
H      0.02257  0.91113  0.51623     H
C      0.02443  0.47087  0.82297     C
C      0.02487  0.23423  0.60793     C
H       0.0271   0.2691   0.0579     H
H       0.0294   0.7551   0.0573     H
O      0.03297  0.81133  0.63633     O
O        0.034   0.5914  0.25761     O
O       0.0349   0.4452   0.2567     O
O      0.03567  0.21983  0.63823     O
C      0.03967  0.19843  0.54383     C
C      0.04973  0.48027  0.78857     C
C       0.0498   0.2265    0.013     C
C       0.0504   0.8209  0.01265     C
Zn     0.05135  0.52551  0.33273    Zn
C      0.05137  0.89763  0.49813     C
H      0.05213  0.45767  0.84017     H
C      0.05653  0.52837  0.72953     C
H      0.05903  0.63727  0.72397     H
H      0.06127  0.12953  0.47933     H
H      0.06423  0.42467  0.72457     H
C       0.0658    0.259   0.0463     C
H       0.0665    0.558   0.1878     H
C       0.0669   0.8048  0.04602     C
H      0.06827  0.93873  0.47933     H
C        0.069   0.4727   0.1527     C
C      0.07037  0.26433  0.48603     C
C      0.07123  0.59977  0.71269     C
H       0.0722   0.2812   0.1735     H
C      0.07433  0.47347  0.71297     C
O      0.07527  0.77593  0.59094     O
O      0.07697  0.29843  0.59003     O
H      0.08887  0.11143  0.51623     H
H       0.0895   0.6975   0.2116     H
H       0.0911   0.3994   0.2114     H
H        0.094   0.9046   0.9733     H
H       0.0954   0.1894   0.9733     H
C       0.0966   0.6456   0.2759     C
C       0.0972   0.2836   0.1219     C
C       0.0991   0.4573   0.2746     C
O      0.10103  0.44127  0.78267     O
C      0.10207  0.22553  0.51303     C
C      0.10237  0.15373  0.49813     C
O      0.10283  0.74097  0.67737     O
O      0.10383  0.35577  0.67897     O
C      0.10383  0.61627  0.67932     C
C       0.1053   0.8936  0.99613     C
C       0.1064   0.2117  0.99613     C
C      0.10683  0.48997  0.67967     C
C       0.1078   0.5432   0.1797     C
H      0.10867  0.84183  0.52113     H
O       0.1117   0.6337    0.303     O
H      0.11223  0.37927  0.82397     H
C       0.1131   0.3089   0.1563     C
O       0.1135   0.4825   0.3049     O
C      0.11893  0.69297  0.66217     C
C      0.12163  0.56137   0.6628     C
C      0.12303  0.42327  0.66407     C
C      0.12347  0.89793  0.51303     C
C       0.1349   0.5079   0.2105     C
C       0.1382   0.7357   0.2233     C
C       0.1383   0.8615  0.06286     C
C       0.1385   0.2768  0.06286     C
C       0.1387   0.4069  0.22321     C
Zn     0.14083  0.28199  0.66607    Zn
Zn     0.14115  0.85917  0.66607    Zn
O      0.14293  0.70037  0.63157     O
H      0.14393  0.57267  0.63997     H
H       0.1442   0.7262   0.0888     H
C       0.1449   0.4525   0.1495     C
C      0.14583  0.43267  0.81217     C
C      0.14823  0.71527  0.82017     C
O       0.1501   0.6708   0.1507     O
C       0.1507   0.7221   0.2576     C
O      0.15133  0.44517  0.62927     O
C       0.1524   0.4331   0.2575     C
C       0.1571   0.3243   0.0967     C
C       0.1573   0.7671    0.106     C
H      0.15817  0.26683  0.52113     H
C      0.15877  0.96033  0.54383     C
H      0.16053  0.47717  0.82927     H
C       0.1667   0.7513   0.1404     C
C       0.1672   0.8429   0.0967     C
H       0.1762    0.094   0.1166     H
C       0.1767   0.9502    0.013     C
C      0.17803  0.80997  0.77087     C
C       0.1791   0.2295  0.01265     C
C       0.1796   0.6153   0.1648     C
O      0.18417  0.96433  0.63823     O
C        0.186   0.8111   0.1656     C
C       0.1864   0.9028   0.1219     C
O      0.18737  0.18323  0.48403     O
O      0.18867  0.22163  0.63633     O
C       0.1889   0.3749   0.1656     C
H       0.1895   0.0167   0.1626     H
C      0.19003  0.36807  0.77087     C
Zn     0.19247  0.80751  0.60198    Zn
Zn     0.19249  0.38497  0.60198    Zn
C       0.1932   0.9342   0.0463     C
C      0.19397  0.92963  0.48603     C
C       0.1947   0.3917  0.20607     C
C       0.1952   0.2621  0.04602     C
C       0.1958   0.8869   0.1563     C
C        0.197   0.8053  0.20607     C
H       0.2038   0.5984    0.146     H
H      0.20487  0.10283  0.63163     H
H        0.209   0.9278   0.1735     H
C      0.20937  0.97513  0.60793     C
C      0.21417  0.02573  0.48283     C
C      0.21567  0.23673  0.60923     C
C      0.21613  0.77807  0.79657     C
O      0.22147  0.92303  0.59003     O
O       0.2215   0.0395   0.9626     O
H       0.2219   0.6441   0.1829     H
C      0.22193  0.43807  0.79657     C
C        0.222    0.444   0.2748     C
C        0.222    0.778   0.2748     C
C      0.22267  0.11133  0.60813     C
O      0.22407  0.29933  0.59094     O
O       0.2241   0.1904   0.9649     O
O       0.2254   0.9931    0.116     O
C       0.2286   0.1172   0.1299     C
H       0.2305   0.7687   0.2983     H
H       0.2313   0.4618   0.2983     H
C       0.2329   0.3902    0.106     C
C      0.23357  0.05263  0.59083     C
C       0.2337   0.1851   0.1535     C
C        0.234   0.0465   0.1455     C
C      0.23807  0.18263  0.59093     C
H      0.23933  0.74887  0.78327     H
C       0.2407   0.2144   0.9955     C
H        0.242   0.9729   0.0579     H
C       0.2434   0.0331   0.9974     C
H       0.2449   0.2743   0.0573     H
H      0.24867  0.18913  0.42213     H
C       0.2487   0.4154   0.1404     C
H      0.25113  0.49047  0.78327     H
C      0.25127  0.16663  0.47373     C
O      0.25193  0.89617  0.67897     O
O      0.25903  0.36187  0.67737     O
C      0.25977  0.06513  0.55654     C
C      0.26417  0.19513  0.55663     C
C       0.2643   0.4025   0.2233     C
H      0.26703  0.88777  0.82397     H
H      0.26727  0.02503  0.54473     H
C       0.2682   0.8613  0.22321     C
H       0.2738    0.418   0.0888     H
H      0.27467  0.24383  0.54493     H
C      0.27497  0.13633   0.5394     C
C      0.27647  0.17603  0.43933     C
C       0.2779   0.4286   0.2576     C
C       0.2807   0.8476   0.2575     C
Zn      0.2817  0.14086  0.93531    Zn
C      0.28473  0.43297  0.82017     C
C      0.28683  0.85417  0.81217     C
H       0.2874   0.0663   0.1573     H
C      0.29177  0.14733  0.49893     C
O      0.29383  0.84867  0.62927     O
C       0.2986   0.1553   0.1042     C
O      0.29963  0.44257  0.63157     O
C      0.30023  0.87697  0.66407     C
H       0.3025    0.392   0.2116     H
O       0.3048   0.2305   0.0107     O
C      0.30703  0.42597  0.66217     C
C       0.3076   0.8551   0.1495     C
H       0.3083   0.9089   0.2114     H
O       0.3109   0.0814   0.0123     O
H      0.31663  0.83947  0.82927     H
O       0.3292   0.4793   0.1507     O
O      0.34023  0.89897  0.78267     O
C      0.34237  0.16613  0.43003     C
C       0.3544    0.451   0.2759     C
H       0.3559   0.5778   0.1829     H
C      0.35777  0.13753  0.48963     C
C       0.3582   0.9009   0.2746     C
H      0.36043  0.93577  0.72457     H
H      0.36273  0.42177  0.72397     H
O       0.3663    0.478    0.303     O
O      0.36733  0.25807  0.92428     O
O      0.36823  0.11187  0.92337     O
O        0.369   0.8865   0.3049     O
C        0.373   0.8651   0.2105     C
C      0.38307  0.14693  0.45523     C
C      0.38313  0.89317  0.67967     C
C      0.38373  0.48757  0.67932     C
Zn     0.38468  0.19218   0.9994    Zn
C       0.3847   0.5643   0.1648     C
H      0.38547  0.12433  0.50683     H
C      0.38987  0.19503  0.39619     C
H      0.39237  0.30393  0.39063     H
H       0.3946   0.7962    0.146     H
H      0.39757  0.09133  0.39123     H
C      0.39913  0.92567  0.71297     C
H      0.39983  0.22467  0.85447     H
C      0.40023  0.47147  0.71269     C
H       0.4016   0.6054    0.146     H
C      0.40233  0.13937  0.81937     C
C       0.4037    0.931   0.1527     C
C      0.40457  0.26643  0.37935     C
H      0.40553  0.94787  0.84017     H
C      0.40767  0.14013  0.37963     C
O       0.4086   0.4426  0.25761     O
O       0.4103   0.9651   0.2567     O
H       0.4222   0.7781   0.1829     H
H      0.42283  0.36417  0.87827     H
H      0.42443  0.06607  0.87807     H
H      0.42733  0.57127  0.63997     H
H      0.42873  0.85607  0.63997     H
C      0.42993  0.31227  0.94257     C
C      0.43053  0.95027  0.78857     C
C      0.43243  0.12397  0.94127     C
O      0.43437  0.10793  0.44933     O
C       0.4354   0.8922   0.1797     C
C       0.4357   0.8204   0.1648     C
O      0.43617  0.40763  0.34403     O
O      0.43717  0.02243  0.34563     O
C      0.43717  0.28293  0.34598     C
C      0.43863  0.56027   0.6628     C
C      0.43973  0.87837   0.6628     C
C      0.44017  0.15663  0.34633     C
C      0.44113  0.20987  0.84637     C
H        0.442   0.5085   0.1878     H
O      0.44503  0.30037  0.96967     O
H      0.44557  0.04593  0.49063     H
C      0.44643  0.97557  0.82297     C
O      0.44683  0.14917  0.97157     O
C      0.45227  0.35963  0.32883     C
C      0.45497  0.22803  0.32946     C
C      0.45637  0.08993  0.33073     C
C       0.4568   0.5646   0.1797     C
C      0.46823  0.17457  0.87717     C
C      0.47153  0.40237  0.88997     C
C      0.47163  0.52817  0.72953     C
C      0.47183  0.94347  0.72953     C
C      0.47203  0.07357  0.88988     C
Zn     0.47417  0.94865  0.33273    Zn
Zn     0.47449  0.52583  0.33273    Zn
O      0.47627  0.36703  0.29823     O
H      0.47727  0.23933  0.30663     H
H      0.47753  0.39287  0.75547     H
C      0.47823  0.11917  0.81617     C
C      0.47917  0.09933  0.47883     C
C      0.48157  0.38193  0.48683     C
O      0.48343  0.33747  0.81737     O
C      0.48403  0.38877  0.92427     C
O      0.48467  0.11183  0.29593     O
C      0.48573  0.09977  0.92417     C
C      0.49043  0.99097  0.76337     C
C      0.49063  0.43377  0.77267     C
H       0.4915   0.9335   0.1878     H
C       0.4921    0.627   0.2105     C
H      0.49387  0.14383  0.49593     H
C      0.50003  0.41797  0.80707     C
C      0.50053  0.50957  0.76337     C
H      0.50953  0.76067  0.78327     H
C      0.51003  0.61687  0.67967     C
C      0.51137  0.47663  0.43753     C
C      0.51243  0.89617  0.67932     C
C      0.51293  0.28197  0.83147     C
O       0.5175    0.631   0.3049     O
C      0.51933  0.47777  0.83227     C
C      0.51973  0.56947  0.78857     C
O       0.5207   0.8499   0.1507     O
O        0.522   0.8883    0.303     O
C      0.52223  0.04157  0.83227     C
H      0.52283  0.68337  0.82927     H
C      0.52337  0.03473  0.43753     C
Zn     0.52581  0.47417  0.26864    Zn
Zn     0.52583  0.05163  0.26864    Zn
C      0.52653  0.60087  0.71297     C
C       0.5273   0.5963   0.1527     C
C      0.52803  0.05837  0.87274     C
C      0.52853  0.92877  0.71269     C
C      0.52913  0.55357  0.82297     C
C      0.53033  0.47197  0.87274     C
H      0.53713  0.26507  0.81267     H
H       0.5382   0.7695   0.2983     H
H      0.54233  0.59447  0.84017     H
C       0.5427   0.6418   0.2746     C
C       0.5475   0.6924   0.1495     C
C        0.549   0.9034   0.2759     C
C      0.54947  0.44473  0.46323     C
O       0.5548   0.5897   0.2567     O
O      0.55483  0.70617  0.62927     O
H      0.55523  0.31077  0.84957     H
C      0.55527  0.10473  0.46323     C
C      0.55533  0.11067  0.94147     C
C      0.55533  0.44467  0.94147     C
C        0.556    0.778   0.2748     C
O       0.5574    0.966  0.25761     O
O      0.55743  0.85707  0.63157     O
O      0.55873  0.65977  0.78267     O
C      0.56193  0.78387  0.79657     C
H      0.56383  0.43537  0.96497     H
H      0.56463  0.12847  0.96497     H
C      0.56623  0.05687  0.77267     C
C       0.5669   0.7193   0.2575     C
C      0.56703  0.85177  0.82017     C
C      0.56733  0.71317  0.81217     C
C       0.5714   0.8493   0.2576     C
H      0.57267  0.41553  0.44993     H
C      0.57403  0.88107  0.66217     C
H      0.57533  0.63957  0.72457     H
C      0.57673  0.69977  0.66407     C
H      0.57823  0.94097  0.72397     H
H        0.582   0.8558   0.0888     H
C      0.58203  0.08207  0.80707     C
H      0.58447  0.15713  0.44993     H
C       0.5846   0.8333   0.1404     C
O      0.58527  0.56283  0.34563     O
O      0.59237  0.02853  0.34403     O
C       0.5931   0.7318  0.22321     C
C       0.5975   0.8618   0.2233     C
C      0.59763  0.06917  0.88997     C
H      0.60037  0.55443  0.49063     H
H       0.6006   0.6917   0.2114     H
C      0.60153  0.52797  0.88988     C
H      0.60713  0.08467  0.75547     H
H        0.608   0.9105   0.2116     H
C       0.6083    0.803  0.20607     C
C       0.6098   0.8427    0.106     C
C      0.61123  0.09527  0.92427     C
C      0.61403  0.51427  0.92417     C
Zn     0.61503  0.80753  0.60198    Zn
C      0.61807  0.09963  0.48683     C
C      0.62017  0.52083  0.47883     C
H      0.62073  0.73297  0.82397     H
C       0.6251    0.814   0.1656     C
O      0.62717  0.51533  0.29593     O
C      0.63193  0.82197  0.77087     C
O      0.63297  0.10923  0.29823     O
C      0.63357  0.54363  0.33073     C
H      0.63583  0.05867  0.87827     H
O      0.63813  0.89717  0.67737     O
C      0.64037  0.09263  0.32883     C
C      0.64093  0.52177  0.81617     C
H      0.64163  0.57557  0.87807     H
O      0.64423  0.74807  0.67897     O
H      0.64997  0.50613  0.49593     H
O      0.66253  0.14597  0.81737     O
O      0.67357  0.56563  0.44933     O
C       0.6757   0.8328   0.0967     C
C      0.68773  0.11767  0.94257     C
H      0.68923  0.24447  0.84957     H
C       0.6911   0.8042   0.1563     C
C      0.69153  0.56757  0.94127     C
H      0.69377  0.60243  0.39123     H
H      0.69607  0.08843  0.39063     H
O      0.69963  0.14467  0.96967     O
O      0.70067  0.92473  0.59094     O
O      0.70157  0.77853  0.59003     O
O      0.70233  0.55317  0.97157     O
C      0.70633  0.53177  0.87717     C
C       0.7164   0.8136   0.1219     C
C      0.71647  0.55983  0.34633     C
C      0.71707  0.15423  0.34598     C
Zn     0.71801  0.85885  0.66607    Zn
C      0.71803  0.23097  0.83147     C
H       0.7188    0.791   0.1735     H
C       0.7232   0.8617  0.06286     C
H       0.7257   0.9706   0.0573     H
H      0.72793  0.46287  0.81267     H
H       0.7309    0.758   0.0579     H
C      0.73247  0.59233  0.37963     C
H      0.73317  0.89133  0.52113     H
C      0.73357  0.13813  0.37935     C
H      0.73493  0.27207  0.81267     H
C      0.73567  0.80603  0.48603     C
C      0.73703  0.59767  0.81937     C
C       0.7379   0.9331  0.04602     C
H      0.73887  0.61453  0.50683     H
C        0.741   0.8068   0.0463     C
O      0.74193  0.10927  0.92428     O
O      0.74363  0.63177  0.92337     O
H      0.75553  0.44477  0.84957     H
H      0.75617  0.03083  0.54493     H
H      0.75777  0.73273  0.54473     H
H      0.76067  0.23793  0.30663     H
H      0.76207  0.52273  0.30663     H
C      0.76327  0.97893  0.60923     C
C      0.76387  0.61693  0.45523     C
C      0.76577  0.79063  0.60793     C
O       0.7677   0.7746    0.116     O
C      0.76873  0.55887  0.84637     C
C      0.76903  0.48707  0.83147     C
O       0.7695   0.0743   0.0107     O
O       0.7705   0.6891   0.0123     O
C       0.7705   0.9496  0.01265     C
C      0.77197  0.22693  0.32946     C
C      0.77307  0.54503  0.32946     C
C       0.7735   0.8233    0.013     C
C      0.77447  0.87653  0.51303     C
H      0.77533  0.17517  0.85447     H
O      0.77837  0.96703  0.63633     O
H       0.7789   0.7126   0.1573     H
C      0.77977  0.64223  0.48963     C
O      0.78017  0.81583  0.63823     O
C       0.7856   0.0263   0.9955     C
C       0.7883   0.8947  0.99613     C
C       0.7897   0.7566   0.9974     C
C      0.79013  0.23127  0.84637     C
C      0.80157  0.84123  0.54383     C
C      0.80487  0.06903  0.55663     C
C      0.80497  0.19483  0.39619     C
C      0.80517  0.61013  0.39619     C
C      0.80537  0.74023  0.55654     C
Zn      0.8075  0.61532   0.9994    Zn
Zn     0.80782   0.1925   0.9994    Zn
O       0.8096   0.0337   0.9649     O
H       0.8106    0.906   0.9733     H
H      0.81087  0.05953  0.42213     H
C      0.81157  0.78583  0.48283     C
C       0.8125    0.766   0.1455     C
C       0.8149   0.0486   0.1535     C
O      0.81677  0.00413  0.48403     O
C      0.81737  0.05543  0.59093     C
O        0.818   0.7785   0.9626     O
C      0.81907  0.76643  0.59083     C
C      0.82377  0.65763  0.43003     C
C      0.82397  0.10043  0.43933     C
H      0.82483  0.60017  0.85447     H
C      0.82543  0.29367  0.87717     C
H       0.8272   0.8105   0.1626     H
C      0.83337  0.08463  0.47373     C
C      0.83387  0.17623  0.43003     C
H      0.84287  0.42733  0.44993     H
C      0.84337  0.28353  0.34633     C
C       0.8447   0.1433   0.1042     C
C      0.84577  0.56283  0.34598     C
C      0.84627  0.94863  0.49813     C
O      0.85083  0.29767  0.97157     O
C      0.85267  0.14443  0.49893     C
C      0.85307  0.23613  0.45523     C
O      0.85403  0.51657  0.81737     O
O      0.85533  0.55497  0.96967     O
C      0.85557  0.70823  0.49893     C
H      0.85617  0.35003  0.49593     H
C       0.8567   0.7014   0.1042     C
Zn     0.85914  0.14084  0.93531    Zn
Zn     0.85916   0.7183  0.93531    Zn
C      0.85987  0.26753  0.37963     C
C      0.86063  0.26297  0.81937     C
C      0.86137  0.72503   0.5394     C
C      0.86187  0.59543  0.37935     C
C      0.86247  0.22023  0.48963     C
C      0.86367  0.13863   0.5394     C
H      0.87047  0.93173  0.47933     H
H      0.87153  0.43617  0.96497     H
H      0.87567  0.26113  0.50683     H
C      0.87603  0.30847  0.94127     C
C      0.88083  0.35907  0.81617     C
C      0.88233  0.57007  0.94257     C
C       0.8828   0.1114   0.1299     C
O      0.88813  0.25637  0.92337     O
O      0.88817  0.37283  0.29593     O
H      0.88857  0.97743  0.51623     H
C       0.8886   0.7714   0.1299     C
C      0.88867  0.11133  0.60813     C
C      0.88867  0.77733  0.60813     C
C      0.88933  0.44467  0.94147     C
O      0.89073  0.63267  0.92428     O
O      0.89077  0.52373  0.29823     O
O      0.89207  0.32643  0.44933     O
C      0.89527  0.45053  0.46323     C
H      0.89717  0.10203  0.63163     H
H      0.89797  0.79513  0.63163     H
C      0.89957  0.72353  0.43933     C
C      0.90023  0.38597  0.92417     C
C      0.90037  0.51843  0.48683     C
C      0.90067  0.37983  0.47883     C
C      0.90473  0.51597  0.92427     C
H        0.906   0.0822   0.1166     H
C      0.90737  0.54773  0.32883     C
H      0.90867  0.30623  0.39123     H
C      0.91007  0.36643  0.33073     C
H      0.91157  0.60763  0.39063     H
H      0.91533  0.52247  0.75547     H
C      0.91537  0.74873  0.47373     C
H       0.9178   0.8238   0.1166     H
C      0.91793  0.49997  0.80707     C
O       0.9186   0.2295   0.0123     O
O       0.9257   0.6952   0.0107     O
C      0.92643  0.39847  0.88988     C
C      0.93083  0.52847  0.88997     C
C      0.93097  0.73583  0.55663     C
H       0.9337   0.2211   0.1573     H
H      0.93393  0.35837  0.87807     H
C      0.93487  0.19463  0.55654     C
H      0.94047  0.75133  0.42213     H
H      0.94133  0.57717  0.87827     H
C      0.94163  0.46967  0.87274     C
C      0.94313  0.50937  0.77267     C
C      0.94457  0.76193  0.59093     C
C      0.94737  0.18093  0.59083     C
Zn     0.94837  0.47419  0.26864    Zn
C       0.9514   0.7663   0.1535     C
C       0.9535   0.1875   0.1455     C
H      0.95407  0.39963  0.49063     H
C      0.95843  0.48067  0.83227     C
O       0.9605    0.182   0.9626     O
C      0.96527  0.48863  0.43753     C
O       0.9663   0.7759   0.9649     O
C       0.9669   0.2103   0.9974     C
H      0.96917  0.72533  0.54493     H
O      0.97147  0.56383  0.34403     O
C       0.9737   0.7593   0.9955     C
C      0.97427  0.18843  0.48283     C
H      0.97497  0.24223  0.54473     H
O      0.97757  0.41473  0.34563     O
H       0.9833   0.1728   0.1626     H
O      0.99587  0.81263  0.48403     O
