data_I
_chemical_name_common  '/home/zhangsd/repos/MofS-CGCNN/ML/data/TSD/clean_cifs/YAZYIJ_clean'
_cell_length_a  6.79510
_cell_length_b 13.11300
_cell_length_c 16.29890
_cell_angle_alpha 113.72000
_cell_angle_beta  100.58400
_cell_angle_gamma 90.00000
_space_group_name_H-M_alt      'P 1'


loop_
_space_group_symop_operation_xyz
  'x, y, z' 

loop_
_atom_site_label
_atom_site_fract_x
_atom_site_fract_y
_atom_site_fract_z
_atom_site_type_symbol
C       0.0024   0.3891   0.9926     C
H       0.0045   0.4335   0.6542     H
C       0.0129   0.2699   0.9784     C
C       0.0228   0.2539   0.6698     C
O       0.0268  0.80341  0.10442     O
O       0.0369  0.17346  0.69352     O
O       0.0534  0.56993  0.39566     O
O       0.0613  0.24333  0.04486     O
O       0.0673  0.03006  0.28572     O
C       0.0826   0.7657   0.4244     C
C       0.0853   0.5869   0.0814     C
C       0.0911   0.4785   0.0758     C
O        0.098  0.35277  0.72254     O
C        0.111   0.6785   0.4532     C
O       0.1177   0.1595   0.2346     O
C       0.1328   0.1265    0.298     C
H       0.1377   0.9339   0.4682     H
H       0.1418   0.6458   0.1366     H
C        0.152   0.8758   0.4872     C
O       0.1869  0.46078  0.14916     O
O       0.1903  0.36626  0.36152     O
H       0.1908   0.4343   0.3884     H
C       0.2022   0.7016   0.5432     C
H       0.2201   0.6431   0.5616     H
Pr     0.22795  0.10442  0.80346    Pr
C       0.2328   0.2039   0.3938     C
C       0.2408   0.8978   0.5762     C
H       0.2498   0.5189   0.1876     H
H       0.2502   0.3313   0.8124     H
C       0.2592   0.3216   0.4238     C
C       0.2672   0.8101   0.6062     C
Pr     0.27205  0.30096  0.19654    Pr
H       0.2799   0.0815   0.4384     H
C       0.2978   0.1584   0.4568     C
H       0.3092   0.0459   0.6116     H
O       0.3097  0.00474  0.63848     O
O       0.3131  0.31162  0.85084     O
C        0.348   0.3886   0.5128     C
H       0.3582   0.5092   0.8634     H
H       0.3623   0.4657   0.5318     H
C       0.3672   0.8285    0.702     C
O       0.3823   0.9249   0.7654     O
C        0.389   0.2253   0.5468     C
O        0.402  0.63023  0.27746     O
C       0.4089   0.4027   0.9242     C
C       0.4147   0.5055   0.9186     C
C       0.4174   0.3413   0.5756     C
O       0.4327  0.74434  0.71428     O
O       0.4387  0.19847  0.95514     O
O       0.4466  0.17427  0.60434     O
O       0.4631  0.47994  0.30648     O
O       0.4732  0.69899  0.89558     O
C       0.4772   0.5841   0.3302     C
C       0.4871   0.2915   0.0216     C
H       0.4955   0.7793   0.3458     H
C       0.4976   0.3965   0.0074     C
C       0.5024   0.6035   0.9926     C
H       0.5045   0.2207   0.6542     H
C       0.5129   0.7085   0.9784     C
C       0.5228   0.4159   0.6698     C
O       0.5268  0.30101  0.10442     O
O       0.5369  0.52006  0.69352     O
O       0.5534  0.82573  0.39566     O
O       0.5613  0.80153  0.04486     O
O       0.5673  0.25566  0.28572     O
C       0.5826   0.6587   0.4244     C
C       0.5853   0.4945   0.0814     C
C       0.5911   0.5973   0.0758     C
O        0.598  0.36977  0.72254     O
C        0.611   0.7747   0.4532     C
O       0.6177   0.0751   0.2346     O
C       0.6328   0.1715    0.298     C
H       0.6377   0.5343   0.4682     H
H       0.6418   0.4908   0.1366     H
C        0.652   0.6114   0.4872     C
O       0.6869  0.68838  0.14916     O
O       0.6903  0.99526  0.36152     O
H       0.6908   0.9541   0.3884     H
C       0.7022   0.8416   0.5432     C
H       0.7201   0.9185   0.5616     H
Pr     0.72795  0.69904  0.80346    Pr
C       0.7328   0.1899   0.3938     C
C       0.7408   0.6784   0.5762     C
H       0.7498   0.6687   0.1876     H
H       0.7502   0.4811   0.8124     H
C       0.7592   0.1022   0.4238     C
C       0.7672   0.7961   0.6062     C
Pr     0.77205  0.89558  0.19654    Pr
H       0.7799   0.3569   0.4384     H
C       0.7978   0.2984   0.4568     C
H       0.8092   0.5657   0.6116     H
O       0.8097  0.63374  0.63848     O
O       0.8131  0.53922  0.85084     O
C        0.848   0.1242   0.5128     C
H       0.8582   0.3542   0.8634     H
H       0.8623   0.0661   0.5318     H
C       0.8672   0.8735    0.702     C
O       0.8823   0.8405   0.7654     O
C        0.889   0.3215   0.5468     C
O        0.902  0.64723  0.27746     O
C       0.9089   0.5215   0.9242     C
C       0.9147   0.4131   0.9186     C
C       0.9174   0.2343   0.5756     C
O       0.9327  0.96994  0.71428     O
O       0.9387  0.75667  0.95514     O
O       0.9466  0.43007  0.60434     O
O       0.9631  0.82654  0.30648     O
O       0.9732  0.19659  0.89558     O
C       0.9772   0.7461   0.3302     C
C       0.9871   0.7301   0.0216     C
H       0.9955   0.5665   0.3458     H
C       0.9976   0.6109   0.0074     C
