data_I
_chemical_name_common  '/home/zhangsd/repos/MofS-CGCNN/ML/data/TSD/clean_cifs/YEDKOI_clean'
_cell_length_a 11.02820
_cell_length_b 11.02820
_cell_length_c 18.97170
_cell_angle_alpha 90.00000
_cell_angle_beta  90.00000
_cell_angle_gamma 120.00000
_space_group_name_H-M_alt      'P 1'


loop_
_space_group_symop_operation_xyz
  'x, y, z' 

loop_
_atom_site_label
_atom_site_fract_x
_atom_site_fract_y
_atom_site_fract_z
_atom_site_type_symbol
C       0.0006   0.6032   0.5365     C
C       0.0006   0.6032   0.9635     C
C       0.0136   0.3907   0.5363     C
C       0.0136   0.3907   0.9637     C
C       0.0146   0.4987   0.5728     C
C       0.0146   0.4987   0.9272     C
C       0.0806    0.525   0.6416     C
C       0.0806    0.525   0.8584     C
O        0.096    0.426    0.672     O
O        0.096    0.426    0.828     O
O       0.1105   0.6331   0.6777     O
O       0.1105   0.6331   0.8223     O
Cr      0.2236   0.7628     0.75    Cr
Cr      0.2372   0.4608     0.75    Cr
O         0.33    0.904    0.672     O
O         0.33    0.904    0.828     O
O      0.33333  0.66667     0.75     O
O       0.3669   0.4774   0.6777     O
O       0.3669   0.4774   0.8223     O
C       0.3771   0.9864   0.5363     C
C       0.3771   0.9864   0.9637     C
C       0.3907   0.0136   0.0363     C
C       0.3907   0.0136   0.4637     C
C       0.3968   0.3974   0.5365     C
C       0.3968   0.3974   0.9635     C
C       0.3974   0.3968   0.0365     C
C       0.3974   0.3968   0.4635     C
O        0.426    0.096    0.172     O
O        0.426    0.096    0.328     O
C       0.4444   0.9194   0.6416     C
C       0.4444   0.9194   0.8584     C
Cr      0.4608   0.2372     0.25    Cr
C        0.475   0.5556   0.6416     C
C        0.475   0.5556   0.8584     C
O       0.4774   0.3669   0.1777     O
O       0.4774   0.3669   0.3223     O
C       0.4841   0.9854   0.5728     C
C       0.4841   0.9854   0.9272     C
C       0.4987   0.0146   0.0728     C
C       0.4987   0.0146   0.4272     C
C       0.5013   0.5159   0.5728     C
C       0.5013   0.5159   0.9272     C
C       0.5159   0.5013   0.0728     C
C       0.5159   0.5013   0.4272     C
O       0.5226   0.8895   0.6777     O
O       0.5226   0.8895   0.8223     O
C        0.525   0.0806   0.1416     C
C        0.525   0.0806   0.3584     C
Cr      0.5392   0.7764     0.75    Cr
C       0.5556    0.475   0.1416     C
C       0.5556    0.475   0.3584     C
O        0.574     0.67    0.672     O
O        0.574     0.67    0.828     O
C       0.6026   0.9994   0.5365     C
C       0.6026   0.9994   0.9635     C
C       0.6032   0.0006   0.0365     C
C       0.6032   0.0006   0.4635     C
C       0.6093   0.6229   0.5363     C
C       0.6093   0.6229   0.9637     C
C       0.6229   0.6093   0.0363     C
C       0.6229   0.6093   0.4637     C
O       0.6331   0.1105   0.1777     O
O       0.6331   0.1105   0.3223     O
O      0.66667  0.33333     0.25     O
O         0.67    0.574    0.172     O
O         0.67    0.574    0.328     O
Cr      0.7628   0.2236     0.25    Cr
Cr      0.7764   0.5392     0.25    Cr
O       0.8895   0.5226   0.1777     O
O       0.8895   0.5226   0.3223     O
O        0.904     0.33    0.172     O
O        0.904     0.33    0.328     O
C       0.9194   0.4444   0.1416     C
C       0.9194   0.4444   0.3584     C
C       0.9854   0.4841   0.0728     C
C       0.9854   0.4841   0.4272     C
C       0.9864   0.3771   0.0363     C
C       0.9864   0.3771   0.4637     C
C       0.9994   0.6026   0.0365     C
C       0.9994   0.6026   0.4635     C
