data_I
_chemical_name_common  '/home/zhangsd/repos/MofS-CGCNN/ML/data/TSD/clean_cifs/YEKWOC_clean'
_cell_length_a 14.57580
_cell_length_b 23.24500
_cell_length_c 24.81500
_cell_angle_alpha 90.00000
_cell_angle_beta  102.90400
_cell_angle_gamma 90.00000
_space_group_name_H-M_alt      'P 1'


loop_
_space_group_symop_operation_xyz
  'x, y, z' 

loop_
_atom_site_label
_atom_site_fract_x
_atom_site_fract_y
_atom_site_fract_z
_atom_site_type_symbol
C       0.0018   0.6638   0.9343     C
C       0.0018   0.8362   0.4343     C
C       0.0029   0.1242   0.9315     C
C       0.0029   0.3758   0.4315     C
C       0.0057   0.7051   0.8939     C
C       0.0057   0.7949   0.3939     C
C       0.0116   0.6499   0.7404     C
C       0.0116   0.8501   0.2404     C
C       0.0122   0.1728   0.9618     C
C       0.0122   0.3272   0.4618     C
C       0.0212   0.6172   0.7882     C
C       0.0212   0.8828   0.2882     C
H       0.0295    0.112   0.6953     H
H       0.0295    0.388   0.1953     H
H       0.0565   0.1543   0.5588     H
H       0.0565   0.3457   0.0588     H
H       0.0567   0.1077   0.9239     H
H       0.0567   0.3923   0.4239     H
H       0.0674   0.7269   0.5035     H
H       0.0674   0.7731   0.0035     H
C       0.0706   0.6943   0.5256     C
C       0.0706   0.8057   0.0256     C
H       0.0787   0.6093   0.9925     H
H       0.0787   0.8907   0.4925     H
O         0.08    0.236   0.1763     O
O         0.08    0.264   0.6763     O
H       0.0817   0.6812   0.6847     H
H       0.0817   0.8188   0.1847     H
C        0.083   0.6359   0.9652     C
C        0.083   0.8641   0.4652     C
C       0.0836    0.228   0.6389     C
C       0.0836    0.272   0.1389     C
C       0.0837   0.1755   0.7856     C
C       0.0837   0.3245   0.2856     C
C       0.0841   0.5974   0.5892     C
C       0.0841   0.9026   0.0892     C
H       0.0878   0.5646    0.611     H
H       0.0878   0.9354    0.111     H
C        0.088   0.6585   0.7162     C
C        0.088   0.8415   0.2162     C
C       0.0935   0.7209   0.8874     C
C       0.0935   0.7791   0.3874     C
O       0.0949   0.1946   0.8347     O
O       0.0949   0.3054   0.3347     O
H       0.0989   0.7494   0.3632     H
H       0.0989   0.7506   0.8632     H
C       0.1065   0.5928   0.8104     C
C       0.1065   0.9072   0.3104     C
C       0.1079   0.1974   0.9833     C
C       0.1079   0.3026   0.4833     C
O       0.1121   0.2355   0.0207     O
O       0.1121   0.2645   0.5207     O
H       0.1134    0.571   0.8425     H
H       0.1134    0.929   0.3425     H
O       0.1432   0.1761   0.7565     O
O       0.1432   0.3239   0.2565     O
H       0.1447   0.5359   0.9339     H
H       0.1447   0.9641   0.4339     H
H       0.1506   0.0591   0.4563     H
H       0.1506   0.4409   0.9563     H
H       0.1531   0.1034   0.2665     H
H       0.1531   0.3966   0.7665     H
C       0.1552   0.6687   0.5448     C
C       0.1552   0.8313   0.0448     C
H        0.158   0.0047   0.2569     H
H        0.158   0.4953   0.7569     H
O       0.1616   0.2078   0.6339     O
O       0.1616   0.2922   0.1339     O
C       0.1644   0.6204   0.5766     C
C       0.1644   0.8796   0.0766     C
C       0.1696   0.6495   0.9535     C
C       0.1696   0.8505   0.4535     C
C       0.1741   0.6933   0.9163     C
C       0.1741   0.8067   0.4163     C
C        0.175   0.6325     0.74     C
C        0.175   0.8675     0.24     C
O       0.1754   0.1821   0.9649     O
O       0.1754   0.3179   0.4649     O
C       0.1845   0.5998   0.7859     C
C       0.1845   0.9002   0.2859     C
C         0.19   0.5227   0.9639     C
C         0.19   0.9773   0.4639     C
O       0.1912    0.149   0.5147     O
O       0.1912    0.351   0.0147     O
H       0.1929   0.0913   0.0564     H
H       0.1929   0.4087   0.5564     H
C       0.1933    0.034   0.4778     C
C       0.1933    0.466   0.9778     C
H       0.1951   0.5051   0.5329     H
H       0.1951   0.9949   0.0329     H
C       0.1977   0.0817   0.2908     C
C       0.1977   0.4183   0.7908     C
C       0.2011   0.0224   0.2854     C
C       0.2011   0.4776   0.7854     C
H       0.2085   0.6846    0.536     H
H       0.2085   0.8154    0.036     H
O       0.2103   0.2031   0.3041     O
O       0.2103   0.2969   0.8041     O
C       0.2191   0.0645   0.0834     C
C       0.2191   0.4355   0.5834     C
C       0.2195   0.0064   0.0692     C
C       0.2195   0.4936   0.5692     C
H       0.2262   0.6378   0.7239     H
H       0.2262   0.8622   0.2239     H
H       0.2324   0.7045   0.9105     H
H       0.2324   0.7955   0.4105     H
O       0.2332   0.1791   0.1095     O
O       0.2332   0.3209   0.6095     O
Eu     0.23875   0.2179  0.89331    Eu
Eu     0.23875   0.2821  0.39331    Eu
Eu     0.24375  0.24288  0.72878    Eu
Eu     0.24375  0.25712  0.22878    Eu
N       0.2529   0.5943   0.5973     N
N       0.2529   0.9057   0.0973     N
C       0.2541   0.1458   0.1505     C
C       0.2541   0.3542   0.6505     C
N       0.2545   0.6203   0.9809     N
N       0.2545   0.8797   0.4809     N
C       0.2561    0.116   0.5398     C
C       0.2561    0.384   0.0398     C
C       0.2561   0.5619   0.9954     C
C       0.2561   0.9381   0.4954     C
C       0.2565    0.534   0.6094     C
C       0.2565    0.966   0.1094     C
C       0.2567   0.0833   0.1366     C
C       0.2567   0.4167   0.6366     C
C       0.2586   0.0561   0.5234     C
C       0.2586   0.4439   0.0234     C
C       0.2627   0.1083   0.3334     C
C       0.2627   0.3917   0.8334     C
Eu     0.26339  0.23446  0.57082    Eu
Eu     0.26339  0.26554  0.07082    Eu
C       0.2648   0.1718   0.3409     C
C       0.2648   0.3282   0.8409     C
C       0.2654   0.5109   0.8204     C
C       0.2654   0.9891   0.3204     C
N       0.2699   0.5705   0.8111     N
N       0.2699   0.9295   0.3111     N
O       0.2712   0.1619   0.1991     O
O       0.2712   0.3381   0.6991     O
H       0.2776   0.6937   0.6483     H
H       0.2776   0.8063   0.1483     H
C       0.2948   0.0436   0.1766     C
C       0.2948   0.4564   0.6766     C
C       0.2952   0.5137   0.6632     C
C       0.2952   0.9863   0.1632     C
H       0.2977   0.7184   0.0313     H
H       0.2977   0.7816   0.5313     H
O       0.3177   0.1359   0.5799     O
O       0.3177   0.3641   0.0799     O
O       0.3185   0.1938    0.381     O
O       0.3185   0.3062    0.881     O
H       0.3202   0.0556   0.2126     H
H       0.3202   0.4444   0.7126     H
H       0.3219     0.54   0.6905     H
H       0.3219     0.96   0.1905     H
C       0.3233   0.5403   0.0404     C
C       0.3233   0.9597   0.5404     C
C       0.3248   0.0175   0.5533     C
C       0.3248   0.4825   0.0533     C
O        0.325   0.1529   0.7167     O
O        0.325   0.3471   0.2167     O
H        0.325   0.6759    0.836     H
H        0.325   0.8241    0.336     H
C       0.3253   0.0149   0.3641     C
C       0.3253   0.4851   0.8641     C
C       0.3261   0.0748   0.3701     C
C       0.3261   0.4252   0.8701     C
O       0.3298   0.1955   0.8255     O
O       0.3298   0.3045   0.3255     O
O       0.3301   0.2266    0.492     O
O       0.3301   0.2734    0.992     O
C       0.3341   0.6779   0.6439     C
C       0.3341   0.8221   0.1439     C
C       0.3342   0.6267   0.6173     C
C       0.3342   0.8733   0.1173     C
C       0.3443   0.6522   0.9906     C
C       0.3443   0.8478   0.4906     C
C        0.349   0.7044   0.0188     C
C        0.349   0.7956   0.5188     C
O       0.3568   0.2249   0.6651     O
O       0.3568   0.2751   0.1651     O
C       0.3579   0.5979   0.8112     C
C       0.3579   0.9021   0.3112     C
H        0.366   0.5076   0.8899     H
H        0.366   0.9924   0.3899     H
H       0.3671    0.565   0.0617     H
H       0.3671    0.935   0.5617     H
H       0.3693   0.0921   0.3988     H
H       0.3693   0.4079   0.8988     H
H       0.3709   0.0312   0.5827     H
H       0.3709   0.4688   0.0827     H
C       0.3728   0.6543   0.8265     C
C       0.3728   0.8457   0.3265     C
C       0.3785    0.176   0.6884     C
C       0.3785    0.324   0.1884     C
O       0.3958   0.2085   0.9488     O
O       0.3958   0.2915   0.4488     O
C       0.4015   0.2473   0.4769     C
C       0.4015   0.2527   0.9769     C
O       0.4061   0.2445   0.2824     O
O       0.4061   0.2555   0.7824     O
C       0.4073   0.2162   0.8165     C
C       0.4073   0.2838   0.3165     C
H       0.4106   0.5993   0.9491     H
H       0.4106   0.9007   0.4491     H
C       0.4168   0.6329     0.97     C
C       0.4168   0.8671     0.47     C
H       0.4179   0.7415    0.683     H
H       0.4179   0.7585    0.183     H
C       0.4187   0.7067   0.6646     C
C       0.4187   0.7933   0.1646     C
C        0.421   0.6042   0.6092     C
C        0.421   0.8958   0.1092     C
H       0.4211    0.527   0.7856     H
H       0.4211    0.973   0.2856     H
H       0.4219   0.5699     0.59     H
H       0.4219   0.9301     0.09     H
C       0.4305   0.5654   0.7957     C
C       0.4305   0.9346   0.2957     C
C       0.4325   0.7343   0.0275     C
C       0.4325   0.7657   0.5275     C
H       0.4382   0.7306    0.546     H
H       0.4382   0.7694    0.046     H
H       0.4383   0.0709   0.7145     H
H       0.4383   0.4291   0.2145     H
H       0.4395   0.1187   0.8751     H
H       0.4395   0.3813   0.3751     H
H       0.4513   0.1486   0.5333     H
H       0.4513   0.3514   0.0333     H
C       0.4564   0.6778   0.8278     C
C       0.4564   0.8222   0.3278     C
H       0.4667   0.7157   0.8398     H
H       0.4667   0.7843   0.3398     H
C       0.4711   0.1483   0.6879     C
C       0.4711   0.3517   0.1879     C
C        0.486   0.0915   0.7039     C
C        0.486   0.4085   0.2039     C
C       0.4921   0.2126   0.4913     C
C       0.4921   0.2874   0.9913     C
C       0.4961   0.1336   0.8699     C
C       0.4961   0.3664   0.3699     C
C       0.4963   0.1844   0.8419     C
C       0.4963   0.3156   0.3419     C
C       0.4981   0.6626   0.9799     C
C       0.4981   0.8374   0.4799     C
C       0.5019   0.1626   0.5201     C
C       0.5019   0.3374   0.0201     C
C       0.5037   0.6844   0.6581     C
C       0.5037   0.8156   0.1581     C
C       0.5039   0.6336   0.6301     C
C       0.5039   0.8664   0.1301     C
C       0.5079   0.7126   0.0087     C
C       0.5079   0.7874   0.5087     C
C        0.514   0.5915   0.7961     C
C        0.514   0.9085   0.2961     C
C       0.5289   0.6483   0.8121     C
C       0.5289   0.8517   0.3121     C
H       0.5333   0.2157   0.6602     H
H       0.5333   0.2843   0.1602     H
C       0.5436   0.1778   0.6722     C
C       0.5436   0.3222   0.1722     C
H       0.5487   0.6486   0.9667     H
H       0.5487   0.8514   0.4667     H
H       0.5605   0.6187   0.6249     H
H       0.5605   0.8813   0.1249     H
H       0.5617   0.5709   0.7855     H
H       0.5617   0.9291   0.2855     H
H       0.5618   0.2306    0.954     H
H       0.5618   0.2694    0.454     H
C       0.5675   0.2343   0.4725     C
C       0.5675   0.2657   0.9725     C
C       0.5695   0.0654   0.7043     C
C       0.5695   0.4346   0.2043     C
H       0.5781   0.0699     0.91     H
H       0.5781   0.4301     0.41     H
H       0.5789    0.027   0.7144     H
H       0.5789    0.473   0.2144     H
C        0.579   0.1042   0.8908     C
C        0.579   0.3958   0.3908     C
C       0.5813   0.2067   0.8354     C
C       0.5813   0.2933   0.3354     C
H       0.5821   0.2415    0.817     H
H       0.5821   0.2585    0.317     H
C       0.5832   0.1329     0.53     C
C       0.5832   0.3671     0.03     C
H       0.5894   0.0993   0.5509     H
H       0.5894   0.4007   0.0509     H
C       0.5927   0.7162   0.6835     C
C       0.5927   0.7838   0.1835     C
O       0.5939   0.7445   0.2176     O
O       0.5939   0.7555   0.7176     O
C       0.5985   0.7473   0.0231     C
C       0.5985   0.7527   0.5231     C
O       0.6042   0.7085   0.5512     O
O       0.6042   0.7915   0.0512     O
C       0.6215    0.676   0.8116     C
C       0.6215    0.824   0.3116     C
C       0.6272   0.1543   0.6735     C
C       0.6272   0.3457   0.1735     C
H       0.6291   0.5312   0.9173     H
H       0.6291   0.9688   0.4173     H
H       0.6307   0.5921   0.1012     H
H       0.6307   0.9079   0.6012     H
H       0.6329    0.065   0.4383     H
H       0.6329    0.435   0.9383     H
H        0.634   0.0076   0.6101     H
H        0.634   0.4924   0.1101     H
C       0.6421   0.0979   0.6888     C
C       0.6421   0.4021   0.1888     C
O       0.6432   0.7249   0.8349     O
O       0.6432   0.7751   0.3349     O
C        0.651   0.2044   0.4812     C
C        0.651   0.2956   0.9812     C
C       0.6557   0.1522   0.5094     C
C       0.6557   0.3478   0.0094     C
C       0.6658   0.1267   0.8827     C
C       0.6658   0.3733   0.3827     C
C       0.6659   0.1779   0.8561     C
C       0.6659   0.3221   0.3561     C
O       0.6699   0.7266    0.008     O
O       0.6699   0.7734    0.508     O
O       0.6702   0.6955   0.6745     O
O       0.6702   0.8045   0.1745     O
C       0.6739   0.5748   0.1299     C
C       0.6739   0.9252   0.6299     C
C       0.6747   0.5149   0.1359     C
C       0.6747   0.9851   0.6359     C
H        0.675   0.1759    0.664     H
H        0.675   0.3241    0.164     H
O        0.675   0.6529   0.7833     O
O        0.675   0.8471   0.2833     O
C       0.6752   0.5175   0.9467     C
C       0.6752   0.9825   0.4467     C
C       0.6767   0.0403   0.4596     C
C       0.6767   0.4597   0.9596     C
H       0.6781     0.04   0.8095     H
H       0.6781     0.46   0.3095     H
H       0.6798   0.5556   0.2874     H
H       0.6798   0.9444   0.7874     H
O       0.6815   0.6938    0.119     O
O       0.6815   0.8062    0.619     O
O       0.6823   0.6359   0.9201     O
O       0.6823   0.8641   0.4201     O
H       0.7023   0.2184   0.4687     H
H       0.7023   0.2816   0.9687     H
C       0.7048   0.0137   0.8368     C
C       0.7048   0.4863   0.3368     C
C       0.7052   0.5436   0.3234     C
C       0.7052   0.9564   0.8234     C
H       0.7224   0.1937   0.8517     H
H       0.7224   0.3063   0.3517     H
O       0.7288   0.6619   0.3009     O
O       0.7288   0.8381   0.8009     O
N       0.7301   0.0705   0.6889     N
N       0.7301   0.4295   0.1889     N
C       0.7346   0.0109   0.6796     C
C       0.7346   0.4891   0.1796     C
C       0.7352   0.6718   0.1591     C
C       0.7352   0.8282   0.6591     C
Eu     0.73661  0.73446  0.92918    Eu
Eu     0.73661  0.76554  0.42918    Eu
C       0.7373   0.6083   0.1666     C
C       0.7373   0.8917   0.6666     C
C       0.7414   0.5561   0.9766     C
C       0.7414   0.9439   0.4766     C
C       0.7433   0.5833   0.3634     C
C       0.7433   0.9167   0.8634     C
C       0.7435    0.034   0.8906     C
C       0.7435    0.466   0.3906     C
C       0.7439   0.0619   0.5046     C
C       0.7439   0.4381   0.0046     C
C       0.7439    0.616   0.9602     C
C       0.7439    0.884   0.4602     C
N       0.7455   0.1203   0.5191     N
N       0.7455   0.3797   0.0191     N
C       0.7459   0.6458   0.3495     C
C       0.7459   0.8542   0.8495     C
N       0.7471   0.0943   0.9027     N
N       0.7471   0.4057   0.4027     N
Eu     0.75625  0.74288  0.77122    Eu
Eu     0.75625  0.75712  0.27122    Eu
Eu     0.76125   0.7179  0.60669    Eu
Eu     0.76125   0.7821  0.10669    Eu
O       0.7668   0.6791   0.3905     O
O       0.7668   0.8209   0.8905     O
H       0.7676   0.2045   0.5895     H
H       0.7676   0.2955   0.0895     H
H       0.7738   0.1378   0.7761     H
H       0.7738   0.3622   0.2761     H
C       0.7805   0.5064   0.4308     C
C       0.7805   0.9936   0.9308     C
C       0.7809   0.5645   0.4166     C
C       0.7809   0.9355   0.9166     C
O       0.7897   0.7031   0.1959     O
O       0.7897   0.7969   0.6959     O
H       0.7915   0.1846    0.964     H
H       0.7915   0.3154    0.464     H
C       0.7989   0.5224   0.2146     C
C       0.7989   0.9776   0.7146     C
C       0.8023   0.5817   0.2092     C
C       0.8023   0.9183   0.7092     C
H       0.8049   0.0051   0.9671     H
H       0.8049   0.4949   0.4671     H
C       0.8067    0.534   0.0222     C
C       0.8067    0.966   0.5222     C
H       0.8071   0.5913   0.4436     H
H       0.8071   0.9087   0.9436     H
O       0.8088    0.649   0.9853     O
O       0.8088    0.851   0.4853     O
C         0.81   0.0227   0.5361     C
C         0.81   0.4773   0.0361     C
C       0.8155   0.0998   0.7141     C
C       0.8155   0.4002   0.2141     C
O       0.8246   0.6821   0.5351     O
O       0.8246   0.8179   0.0351     O
C        0.825   0.1325     0.76     C
C        0.825   0.3675     0.26     C
C       0.8259   0.1933   0.5837     C
C       0.8259   0.3067   0.0837     C
C       0.8304   0.1495   0.5465     C
C       0.8304   0.3505   0.0465     C
C       0.8356   0.1204   0.9234     C
C       0.8356   0.3796   0.4234     C
O       0.8384   0.7078   0.8661     O
O       0.8384   0.7922   0.3661     O
H        0.842   0.5047   0.2431     H
H        0.842   0.9953   0.7431     H
C       0.8448   0.1687   0.9552     C
C       0.8448   0.3313   0.4552     C
H       0.8469   0.6034   0.2335     H
H       0.8469   0.8966   0.7335     H
H       0.8494   0.5591   0.0437     H
H       0.8494   0.9409   0.5437     H
H       0.8553   0.0359   0.5661     H
H       0.8553   0.4641   0.0661     H
O       0.8568   0.6761   0.7435     O
O       0.8568   0.8239   0.2435     O
H       0.8866    0.071   0.6575     H
H       0.8866    0.429   0.1575     H
O       0.8879   0.7355   0.4793     O
O       0.8879   0.7645   0.9793     O
C       0.8921   0.6974   0.5167     C
C       0.8921   0.8026   0.0167     C
C       0.8935   0.0928   0.6896     C
C       0.8935   0.4072   0.1896     C
H       0.9011   0.2494   0.1368     H
H       0.9011   0.2506   0.6368     H
O       0.9051   0.6946   0.6653     O
O       0.9051   0.8054   0.1653     O
C       0.9065   0.2209   0.6126     C
C       0.9065   0.2791   0.1126     C
C        0.912   0.1585   0.7838     C
C        0.912   0.3415   0.2838     C
H       0.9122   0.0646    0.889     H
H       0.9122   0.4354    0.389     H
C       0.9159   0.0974   0.9108     C
C       0.9159   0.4026   0.4108     C
C       0.9163   0.6755   0.7144     C
C       0.9163   0.8245   0.2144     C
C       0.9164    0.728   0.8611     C
C       0.9164    0.772   0.3611     C
C        0.917   0.1359   0.5348     C
C        0.917   0.3641   0.0348     C
H       0.9183   0.1812   0.8153     H
H       0.9183   0.3188   0.3153     H
O         0.92    0.736   0.3237     O
O         0.92    0.764   0.8237     O
H       0.9213   0.1093   0.5075     H
H       0.9213   0.3907   0.0075     H
C       0.9294   0.1943   0.9744     C
C       0.9294   0.3057   0.4744     C
H       0.9326   0.2269   0.9965     H
H       0.9326   0.2731   0.4965     H
H       0.9433   0.6077   0.5761     H
H       0.9433   0.8923   0.0761     H
H       0.9435   0.6543   0.9412     H
H       0.9435   0.8457   0.4412     H
H       0.9705    0.612   0.8047     H
H       0.9705    0.888   0.3047     H
C       0.9788   0.1172   0.7118     C
C       0.9788   0.3828   0.2118     C
C       0.9878   0.6728   0.5382     C
C       0.9878   0.8272   0.0382     C
C       0.9884   0.1499   0.7596     C
C       0.9884   0.3501   0.2596     C
C       0.9943   0.2051   0.6061     C
C       0.9943   0.2949   0.1061     C
C       0.9971   0.6242   0.5685     C
C       0.9971   0.8758   0.0685     C
C       0.9982   0.1638   0.5657     C
C       0.9982   0.3362   0.0657     C
