data_I
_chemical_name_common  '/home/zhangsd/repos/MofS-CGCNN/ML/data/TSD/clean_cifs/YERJEL_clean'
_cell_length_a 11.26900
_cell_length_b 11.27000
_cell_length_c 20.71100
_cell_angle_alpha 77.60800
_cell_angle_beta  77.60300
_cell_angle_gamma 64.72700
_space_group_name_H-M_alt      'P 1'


loop_
_space_group_symop_operation_xyz
  'x, y, z' 

loop_
_atom_site_label
_atom_site_fract_x
_atom_site_fract_y
_atom_site_fract_z
_atom_site_type_symbol
C       0.0209   0.3611   0.8583     C
H       0.0228   0.7798   0.4948     H
C       0.0282   0.6375   0.5738     C
C       0.0342   0.3133   0.8008     C
H       0.0364    0.185   0.3121     H
C       0.0439   0.2132   0.2663     C
C       0.0561   0.6949   0.8338     C
H       0.0602   0.7257   0.2577     H
C       0.0671   0.2928    0.131     C
C       0.0673   0.7334    0.766     C
C       0.0714   0.6905    0.219     C
C       0.0746   0.7218   0.5269     C
H       0.0759   0.3184   0.0851     H
H       0.0833   0.5012   0.6546     H
H       0.0935   0.3633   0.8717     H
C       0.1015   0.3658   0.4267     C
C       0.1034   0.5932   0.1033     C
C       0.1105   0.5574    0.621     C
H       0.1131   0.5624   0.0635     H
H       0.1145   0.3012   0.5238     H
H       0.1419   0.4289   0.3294     H
H       0.1497   0.7236   0.7417     H
O       0.1567   0.6174  0.93278     O
C       0.1584   0.3283   0.4839     C
O       0.1588   0.2758   0.7621     O
C       0.1649   0.2019   0.2306     C
C       0.1734   0.6369   0.8701     C
C       0.1744   0.4036   0.3701     C
C        0.177   0.2427   0.1637     C
H       0.1845   0.0355   0.8122     H
C       0.1948   0.6424   0.1821     C
C        0.197   0.7195    0.528     C
C       0.2023    0.165   0.7304     C
C       0.2116   0.5932   0.1234     C
C        0.213   0.0431   0.7665     C
H       0.2196    0.977   0.0052     H
H       0.2225   0.7742   0.0033     H
H       0.2252   0.7774   0.4961     H
C       0.2321   0.5609   0.6183     C
H       0.2368   0.2593     0.64     H
C       0.2427   0.1774   0.6637     C
H       0.2589   0.2369     0.14     H
C       0.2661   0.9332   0.7341     C
H       0.2673   0.6429   0.1966     H
H       0.2747   0.9397   0.2416     H
O       0.2755   0.1584   0.2624     O
H       0.2759   0.8506   0.7583     H
N       0.2773   0.6396  0.57191     N
C       0.2778   0.9251   0.9732     C
C       0.2792   0.3305   0.4831     C
C       0.2805   0.8026   0.9717     C
H       0.2854   0.5056   0.6504     H
O       0.2884    0.607  0.83808     O
C       0.2928   0.0672    0.631     C
C       0.2934   0.4041   0.3733     C
H       0.3013   0.1135   0.0236     H
H       0.3027   0.3149   0.0229     H
C       0.3051   0.9447    0.666     C
C       0.3089   0.9285   0.2806     C
C       0.3121   0.0343    0.301     C
H        0.315   0.3039   0.5228     H
H       0.3183   0.0759   0.5851     H
C       0.3284   0.1577   0.9838     C
C       0.3301    0.279   0.9831     C
H       0.3394   0.4311   0.3342     H
C       0.3473   0.5389   0.0835     C
N       0.3476   0.3683   0.4289     N
H       0.3547   0.7324   0.3041     H
C       0.3567   0.8046    0.318     C
O        0.357   0.4913   0.0318     O
C       0.3606   0.0203   0.3586     C
N       0.3607   0.7226  0.92794     N
H       0.3626   0.0929   0.3721     H
C       0.3626   0.8272   0.6295     C
C       0.3631   0.9707   0.9262     C
Ni     0.36462  0.53469  0.93074    Ni
C       0.3662   0.1013   0.9267     C
N       0.3687   0.3476  0.92883     N
O       0.3827   0.8435  0.56702     O
O       0.3929   0.7121  0.66187     O
C       0.4041   0.2945   0.8737     C
C       0.4048    0.173   0.8702     C
C       0.4063   0.8971   0.3964     C
C       0.4073   0.7876   0.3762     C
H       0.4303   0.3412   0.8346     H
H       0.4313   0.1399   0.8297     H
H       0.4372   0.8876   0.4362     H
C       0.4397   0.7682   0.8815     C
O       0.4416   0.5401  0.10516     O
C       0.4429     0.89    0.879     C
O       0.4599   0.5583  0.39471     O
C       0.4617   0.6526   0.4169     C
Ni      0.4653  0.63547  0.56919    Ni
O       0.4919    0.357  0.53184     O
H       0.4952   0.7151   0.8494     H
H       0.4989   0.9177   0.8455     H
H       0.5011   0.0823   0.1545     H
H       0.5048   0.2849   0.1506     H
O       0.5081    0.643  0.46816     O
Ni      0.5347  0.36453  0.43081    Ni
C       0.5383   0.3474   0.5831     C
O       0.5401   0.4417  0.60529     O
C       0.5571     0.11    0.121     C
O       0.5584   0.4599  0.89484     O
C       0.5603   0.2318   0.1185     C
H       0.5628   0.1124   0.5638     H
H       0.5687   0.8601   0.1703     H
H       0.5697   0.6588   0.1654     H
C       0.5927   0.2124   0.6238     C
C       0.5937   0.1029   0.6036     C
C       0.5952    0.827   0.1298     C
C       0.5959   0.7055   0.1263     C
O       0.6071   0.2879  0.33813     O
O       0.6173   0.1565  0.43298     O
N       0.6313   0.6524  0.07117     N
C       0.6338   0.8987   0.0733     C
Ni     0.63538  0.46531  0.06926    Ni
C       0.6369   0.0293   0.0738     C
C       0.6374   0.1728   0.3705     C
H       0.6374   0.9071   0.6279     H
N       0.6393   0.2774  0.07206     N
C       0.6394   0.9797   0.6414     C
O        0.643   0.5087   0.9682     O
C       0.6433   0.1954    0.682     C
H       0.6453   0.2676   0.6959     H
N       0.6524   0.6317   0.5711     N
C       0.6527   0.4611   0.9165     C
H       0.6606   0.5689   0.6658     H
C       0.6699    0.721   0.0169     C
C       0.6716   0.8423   0.0162     C
H       0.6817   0.9241   0.4149     H
H        0.685   0.6961   0.4772     H
C       0.6879   0.9657    0.699     C
C       0.6911   0.0715   0.7194     C
C       0.6949   0.0553    0.334     C
H       0.6973   0.6851   0.9771     H
H       0.6987   0.8865   0.9764     H
C       0.7066   0.5959   0.6267     C
C       0.7072   0.9328    0.369     C
O       0.7116    0.393  0.16192     O
H       0.7146   0.4944   0.3496     H
C       0.7195   0.1974   0.0283     C
C       0.7208   0.6695   0.5169     C
C       0.7222   0.0749   0.0268     C
N       0.7227   0.3604  0.42809     N
H       0.7241   0.1494   0.2417     H
O       0.7245   0.8416   0.7376     O
H       0.7253   0.0603   0.7584     H
H       0.7327   0.3571   0.8034     H
C       0.7339   0.0668   0.2659     C
H       0.7411   0.7631     0.86     H
C       0.7573   0.8226   0.3363     C
H       0.7632   0.7407     0.36     H
C       0.7679   0.4391   0.3817     C
H       0.7748   0.2226   0.5039     H
H       0.7775   0.2258   0.9967     H
H       0.7804    0.023   0.9948     H
C        0.787   0.9569   0.2335     C
C       0.7884   0.4068   0.8766     C
C       0.7977    0.835   0.2696     C
C        0.803   0.2805    0.472     C
C       0.8052   0.3576   0.8179     C
H       0.8155   0.9645   0.1878     H
C        0.823   0.7573   0.8363     C
C       0.8256   0.5964   0.6299     C
C       0.8266   0.3631   0.1299     C
C       0.8351   0.7981   0.7694     C
O       0.8412   0.7242   0.2379     O
C       0.8416   0.6717   0.5161     C
O       0.8433   0.3826  0.06722     O
H       0.8503   0.2764   0.2583     H
H       0.8581   0.5711   0.6706     H
H       0.8855   0.6988   0.4762     H
H       0.8869   0.4376   0.9365     H
C       0.8895   0.4426    0.379     C
C       0.8966   0.4068   0.8967     C
C       0.8985   0.6342   0.5733     C
H       0.9065   0.6367   0.1283     H
H       0.9167   0.4988   0.3454     H
H       0.9241   0.6816   0.9149     H
C       0.9254   0.2782   0.4731     C
C       0.9286   0.3095    0.781     C
C       0.9327   0.2666    0.234     C
C       0.9329   0.7072    0.869     C
H       0.9398   0.2743   0.7423     H
C       0.9439   0.3051   0.1662     C
C       0.9561   0.7868   0.7337     C
H       0.9636    0.815   0.6879     H
C       0.9658   0.6867   0.1992     C
C       0.9718   0.3625   0.4262     C
H       0.9772   0.2202   0.5052     H
C       0.9791   0.6389   0.1417     C
