data_I
_chemical_name_common  '/home/zhangsd/repos/MofS-CGCNN/ML/data/TSD/clean_cifs/YINCUV_clean'
_cell_length_a 13.10200
_cell_length_b 13.13400
_cell_length_c 25.33600
_cell_angle_alpha 93.93500
_cell_angle_beta  90.00000
_cell_angle_gamma 90.00000
_space_group_name_H-M_alt      'P 1'


loop_
_space_group_symop_operation_xyz
  'x, y, z' 

loop_
_atom_site_label
_atom_site_fract_x
_atom_site_fract_y
_atom_site_fract_z
_atom_site_type_symbol
Mn         0.0      0.5      0.5    Mn
C       0.0053    0.364  0.77543     C
C       0.0093   0.0525  0.57688     C
C       0.0113   0.9459  0.36411     C
H       0.0144   0.5523   0.6259     H
C        0.018    0.462  0.76076     C
C       0.0181   0.2809  0.42179     C
C        0.021   0.4009  0.35177     C
O       0.0211  0.64945  0.54624     O
O       0.0263   0.5199  0.28605     O
O       0.0295  0.19175  0.43631     O
H       0.0318   0.6831   0.2459     H
C       0.0364   0.0019  0.72097     C
H       0.0375   0.2702   0.8336     H
C       0.0398   0.9371  0.25509     C
C       0.0485   0.3354  0.82262     C
C       0.0487    0.422  0.29945     C
H       0.0489   0.9333   0.2186     H
C       0.0502   0.3056  0.36756     C
Mn     0.05282  0.76149  0.48483    Mn
C       0.0542   0.9986   0.6677     C
H       0.0593   0.1339   0.1747     H
O       0.0596  0.91188  0.45211     O
C       0.0764   0.5331  0.78969     C
H       0.0816   0.1644   0.0844     H
H       0.0852    0.598   0.7779     H
C       0.0879   0.8862  0.34264     C
O       0.0896   0.4348  0.55992     O
O       0.0916   0.2645  0.55009     O
O       0.0919   0.9388  0.75137     O
O       0.0952     0.02  0.56188     O
C       0.0995   0.2324  0.33538     C
C       0.1002   0.3516  0.26493     C
C       0.1017   0.8823  0.28708     C
H       0.1082   0.9607   0.6528     H
C       0.1085   0.4054  0.85349     C
C       0.1151   0.3497  0.57502     C
H       0.1156   0.1689   0.3473     H
C       0.1169   0.1678  0.16357     C
H       0.1174   0.3672   0.2308     H
C       0.1222   0.5076  0.83672     C
C       0.1249   0.2572  0.28371     C
H       0.1299   0.8491   0.3639     H
C       0.1303   0.1855   0.1095     C
O       0.1318   0.2828  0.91605     O
O      0.13387  0.68042  0.42596     O
H       0.1383   0.8505   0.8321     H
O       0.1404   0.5236  0.45818     O
C       0.1472   0.9831  0.79388     C
H       0.1486   0.7999     0.62     H
C       0.1489   0.3561  0.90611     C
H       0.1607   0.5554   0.8569     H
O       0.1616   0.2257  0.00563     O
C       0.1648   0.5915  0.42478     C
H       0.1652   0.1266   0.7714     H
C       0.1657    0.916  0.83403     C
H       0.1667   0.7642   0.7098     H
C       0.1756   0.3426  0.62436     C
O       0.1771   0.8154  0.26767     O
O       0.1788   0.1842  0.25354     O
C       0.1817   0.0823  0.79726     C
H       0.1851   0.1912   0.6213     H
H       0.1903   0.4965   0.6425     H
C       0.1905   0.2016  0.19932     C
Mn     0.19384  0.97132  0.49833    Mn
O       0.1949  0.81463  0.52535     O
C       0.2029   0.2503  0.64148     C
C       0.2043   0.4328  0.65465     C
O       0.2055   0.4371  0.93167     O
C       0.2064   0.7665  0.63123     C
C       0.2175   0.7474  0.68509     C
C       0.2188   0.2357  0.09507     C
H       0.2216   0.6789   0.1987     H
C       0.2228     0.83  0.21879     C
C       0.2255   0.2592  0.03612     C
C       0.2281   0.9524  0.87794     C
H       0.2294   0.9832   0.2242     H
H       0.2321   0.6805   0.3426     H
C       0.2351   0.5502  0.38072     C
C        0.242   0.1144   0.8404     C
C       0.2431    0.742  0.18838     C
H       0.2437   0.9094   0.9045     H
C       0.2462   0.9249  0.20302     C
C       0.2538   0.4249  0.70302     C
H       0.2563   0.4094   0.4045     H
C       0.2569    0.242  0.68838     C
C        0.258   0.6144   0.3404     C
C       0.2649   0.0502  0.88072     C
H       0.2679   0.1805   0.8426     H
H       0.2706   0.4832   0.7242     H
C       0.2719   0.4524  0.37794     C
C       0.2745   0.7592  0.53612     C
C       0.2772     0.33  0.71879     C
H       0.2784   0.1789   0.6987     H
C       0.2812   0.7357  0.59507     C
C       0.2825   0.2474  0.18509     C
C       0.2936   0.2665  0.13123     C
O       0.2945   0.9371  0.43167     O
C       0.2957   0.9328  0.15465     C
C       0.2971   0.7503  0.14148     C
O       0.3051  0.31463  0.02535     O
Mn     0.30616  0.47132  0.99833    Mn
C       0.3095   0.7016  0.69932     C
H       0.3097   0.9965   0.1425     H
H       0.3149   0.6912   0.1213     H
C       0.3183   0.5823  0.29726     C
O       0.3212   0.6842  0.75354     O
O       0.3229   0.3154  0.76767     O
C       0.3244   0.8426  0.12436     C
H       0.3333   0.2642   0.2098     H
C       0.3343    0.416  0.33403     C
H       0.3348   0.6266   0.2714     H
C       0.3352   0.0915  0.92478     C
O       0.3384   0.7257  0.50563     O
H       0.3393   0.0554   0.3569     H
C       0.3511   0.8561  0.40611     C
H       0.3514   0.2999     0.12     H
C       0.3528   0.4831  0.29388     C
O       0.3596   0.0236  0.95818     O
H       0.3617   0.3505   0.3321     H
O      0.36613  0.18042  0.92596     O
O       0.3682   0.7828  0.41605     O
C       0.3697   0.6855   0.6095     C
H       0.3701   0.3491   0.8639     H
C       0.3751   0.7572  0.78371     C
C       0.3778   0.0076  0.33672     C
H       0.3826   0.8672   0.7308     H
C       0.3831   0.6678  0.66357     C
H       0.3844   0.6689   0.8473     H
C       0.3849   0.8497  0.07502     C
C       0.3915   0.9054  0.35349     C
H       0.3918   0.4607   0.1528     H
C       0.3983   0.3823  0.78708     C
C       0.3998   0.8516  0.76493     C
C       0.4005   0.7324  0.83538     C
O       0.4048     0.52  0.06188     O
O       0.4081   0.4388  0.25137     O
O       0.4084   0.7645  0.05009     O
O       0.4104   0.9348  0.05992     O
C       0.4121   0.3862  0.84264     C
H       0.4148    0.098   0.2779     H
H       0.4184   0.6644   0.5844     H
C       0.4236   0.0331  0.28969     C
O       0.4404  0.41188  0.95211     O
H       0.4407   0.6339   0.6747     H
C       0.4458   0.4986   0.1677     C
Mn     0.44718  0.26149  0.98483    Mn
C       0.4498   0.8056  0.86756     C
H       0.4511   0.4333   0.7186     H
C       0.4513    0.922  0.79945     C
C       0.4515   0.8354  0.32262     C
C       0.4602   0.4371  0.75509     C
H       0.4625   0.7702   0.3336     H
C       0.4636   0.5019  0.22097     C
H       0.4682   0.1831   0.7459     H
O       0.4705  0.69175  0.93631     O
O       0.4737   0.0199  0.78605     O
O       0.4789  0.14945  0.04624     O
C        0.479   0.9009  0.85177     C
C       0.4819   0.7809  0.92179     C
C        0.482    0.962  0.26076     C
H       0.4856   0.0523   0.1259     H
C       0.4887   0.4459  0.86411     C
C       0.4907   0.5525  0.07688     C
C       0.4947    0.864  0.27543     C
Mn         0.5      0.0      0.0    Mn
C       0.5053    0.136  0.72457     C
C       0.5093   0.4475  0.92312     C
C       0.5113   0.5541  0.13589     C
H       0.5144   0.9477   0.8741     H
C        0.518    0.038  0.73924     C
C       0.5181   0.2191  0.07821     C
C        0.521   0.0991  0.14823     C
O       0.5211  0.85055  0.95376     O
O       0.5263   0.9801  0.21395     O
O       0.5295  0.30825  0.06369     O
H       0.5318   0.8169   0.2541     H
C       0.5364   0.4981  0.77903     C
H       0.5375   0.2298   0.6664     H
C       0.5398   0.5629  0.24491     C
C       0.5485   0.1646  0.67738     C
C       0.5487    0.078  0.20055     C
H       0.5489   0.5667   0.2814     H
C       0.5502   0.1944  0.13244     C
Mn     0.55282  0.73851  0.01517    Mn
C       0.5542   0.5014   0.8323     C
H       0.5593   0.3661   0.3253     H
O       0.5596  0.58812  0.04789     O
C       0.5764   0.9669  0.71031     C
H       0.5816   0.3356   0.4156     H
H       0.5852    0.902   0.7221     H
C       0.5879   0.6138  0.15736     C
O       0.5896   0.0652  0.94008     O
O       0.5916   0.2355  0.94991     O
O       0.5919   0.5612  0.74863     O
O       0.5952     0.48  0.93812     O
C       0.5995   0.2676  0.16462     C
C       0.6002   0.1484  0.23507     C
C       0.6017   0.6177  0.21292     C
H       0.6082   0.5393   0.8472     H
C       0.6085   0.0946  0.64651     C
C       0.6151   0.1503  0.92498     C
H       0.6156   0.3311   0.1527     H
C       0.6169   0.3322  0.33643     C
H       0.6174   0.1328   0.2692     H
C       0.6222   0.9924  0.66328     C
C       0.6249   0.2428  0.21629     C
H       0.6299   0.6509   0.1361     H
C       0.6303   0.3145   0.3905     C
O       0.6318   0.2172  0.58395     O
O      0.63387  0.81958  0.07404     O
H       0.6383   0.6495   0.6679     H
O       0.6404   0.9764  0.04182     O
C       0.6472   0.5169  0.70612     C
H       0.6486   0.7001     0.88     H
C       0.6489   0.1439  0.59389     C
H       0.6607   0.9446   0.6431     H
O       0.6616   0.2743  0.49437     O
C       0.6648   0.9085  0.07522     C
H       0.6652   0.3734   0.7286     H
C       0.6657    0.584  0.66597     C
H       0.6667   0.7358   0.7902     H
C       0.6756   0.1574  0.87564     C
O       0.6771   0.6846  0.23233     O
O       0.6788   0.3158  0.24646     O
C       0.6817   0.4177  0.70274     C
H       0.6851   0.3088   0.8787     H
H       0.6903   0.0035   0.8575     H
C       0.6905   0.2984  0.30068     C
Mn     0.69384  0.52868  0.00167    Mn
O       0.6949  0.68537  0.97465     O
C       0.7029   0.2497  0.85852     C
C       0.7043   0.0672  0.84535     C
O       0.7055   0.0629  0.56833     O
C       0.7064   0.7335  0.86877     C
C       0.7175   0.7526  0.81491     C
C       0.7188   0.2643  0.40493     C
H       0.7216   0.8211   0.3013     H
C       0.7228     0.67  0.28121     C
C       0.7255   0.2408  0.46388     C
C       0.7281   0.5476  0.62206     C
H       0.7294   0.5168   0.2758     H
H       0.7321   0.8195   0.1574     H
C       0.7351   0.9498  0.11928     C
C        0.742   0.3856   0.6596     C
C       0.7431    0.758  0.31162     C
H       0.7437   0.5906   0.5955     H
C       0.7462   0.5751  0.29698     C
C       0.7538   0.0751  0.79698     C
H       0.7563   0.0906   0.0955     H
C       0.7569    0.258  0.81162     C
C        0.758   0.8856   0.1596     C
C       0.7649   0.4498  0.61928     C
H       0.7679   0.3195   0.6574     H
H       0.7706   0.0168   0.7758     H
C       0.7719   0.0476  0.12206     C
C       0.7745   0.7408  0.96388     C
C       0.7772     0.17  0.78121     C
H       0.7784   0.3211   0.8013     H
C       0.7812   0.7643  0.90493     C
C       0.7825   0.2526  0.31491     C
C       0.7936   0.2335  0.36877     C
O       0.7945   0.5629  0.06833     O
C       0.7957   0.5672  0.34535     C
C       0.7971   0.7497  0.35852     C
O       0.8051  0.18537  0.47465     O
Mn     0.80616  0.02868  0.50167    Mn
C       0.8095   0.7984  0.80068     C
H       0.8097   0.5035   0.3575     H
H       0.8149   0.8088   0.3787     H
C       0.8183   0.9177  0.20274     C
O       0.8212   0.8158  0.74646     O
O       0.8229   0.1846  0.73233     O
C       0.8244   0.6574  0.37564     C
H       0.8333   0.2358   0.2902     H
C       0.8343    0.084  0.16597     C
H       0.8348   0.8734   0.2286     H
C       0.8352   0.4085  0.57522     C
O       0.8384   0.7743  0.99437     O
H       0.8393   0.4446   0.1431     H
C       0.8511   0.6439  0.09389     C
H       0.8514   0.2001     0.38     H
C       0.8528   0.0169  0.20612     C
O       0.8596   0.4764  0.54182     O
H       0.8617   0.1495   0.1679     H
O      0.86613  0.31958  0.57404     O
O       0.8682   0.7172  0.08395     O
C       0.8697   0.8145   0.8905     C
H       0.8701   0.1509   0.6361     H
C       0.8751   0.7428  0.71629     C
C       0.8778   0.4924  0.16328     C
H       0.8826   0.6328   0.7692     H
C       0.8831   0.8322  0.83643     C
H       0.8844   0.8311   0.6527     H
C       0.8849   0.6503  0.42498     C
C       0.8915   0.5946  0.14651     C
H       0.8918   0.0393   0.3472     H
C       0.8983   0.1177  0.71292     C
C       0.8998   0.6484  0.73507     C
C       0.9005   0.7676  0.66462     C
O       0.9048     0.98  0.43812     O
O       0.9081   0.0612  0.24863     O
O       0.9084   0.7355  0.44991     O
O       0.9104   0.5652  0.44008     O
C       0.9121   0.1138  0.65736     C
H       0.9148    0.402   0.2221     H
H       0.9184   0.8356   0.9156     H
C       0.9236   0.4669  0.21031     C
O       0.9404  0.08812  0.54789     O
H       0.9407   0.8661   0.8253     H
C       0.9458   0.0014   0.3323     C
Mn     0.94718  0.23851  0.51517    Mn
C       0.9498   0.6944  0.63244     C
H       0.9511   0.0667   0.7814     H
C       0.9513    0.578  0.70055     C
C       0.9515   0.6646  0.17738     C
C       0.9602   0.0629  0.74491     C
H       0.9625   0.7298   0.1664     H
C       0.9636   0.9981  0.27903     C
H       0.9682   0.3169   0.7541     H
O       0.9705  0.80825  0.56369     O
O       0.9737   0.4801  0.71395     O
O       0.9789  0.35055  0.45376     O
C        0.979   0.5991  0.64823     C
C       0.9819   0.7191  0.57821     C
C        0.982    0.538  0.23924     C
H       0.9856   0.4477   0.3741     H
C       0.9887   0.0541  0.63589     C
C       0.9907   0.9475  0.42312     C
C       0.9947    0.636  0.22457     C
