data_I
_chemical_name_common  '/home/zhangsd/repos/MofS-CGCNN/ML/data/TSD/clean_cifs/YITHOA01_clean'
_cell_length_a 21.96000
_cell_length_b  7.65500
_cell_length_c  6.16700
_cell_angle_alpha 90.00000
_cell_angle_beta  91.47000
_cell_angle_gamma 90.00000
_space_group_name_H-M_alt      'P 1'


loop_
_space_group_symop_operation_xyz
  'x, y, z' 

loop_
_atom_site_label
_atom_site_fract_x
_atom_site_fract_y
_atom_site_fract_z
_atom_site_type_symbol
S          0.0   0.7547      0.0     S
O      0.03758   0.6445   0.1483     O
O      0.04406   0.8622   0.8856     O
H       0.1066   0.3847   0.9441     H
H       0.1173   0.3237   0.6298     H
O      0.13765   0.4446   0.9055     O
Ce     0.14534  0.75424  0.05018    Ce
C       0.1509   0.3949   0.6887     C
O      0.15551   0.7037   0.6535     O
C       0.1557   0.5612   0.5549     C
O      0.15939   0.5452   0.3532     O
O      0.16438   0.0398   0.8623     O
C       0.2073   0.1469   0.8622     C
C         0.21   0.2867   0.6874     C
H       0.2122   0.2284   0.5464     H
O      0.23703    0.892   0.2828     O
H       0.2402   0.9803      0.2     H
O      0.24996   0.1477   0.0055     O
O      0.25004   0.6477   0.9945     O
H       0.2598   0.4803      0.8     H
O      0.26297    0.392   0.7172     O
H       0.2878   0.7284   0.4536     H
C         0.29   0.7867   0.3126     C
C       0.2927   0.6469   0.1378     C
O      0.33562   0.5398   0.1377     O
O      0.34061   0.0452   0.6468     O
C       0.3443   0.0612   0.4451     C
O      0.34449   0.2037   0.3465     O
C       0.3491   0.8949   0.3113     C
Ce     0.35466  0.25424  0.94982    Ce
O      0.36235   0.9446   0.0945     O
H       0.3827   0.8237   0.3702     H
H       0.3934   0.8847   0.0559     H
O      0.45594   0.3622   0.1144     O
O      0.46242   0.1445   0.8517     O
S          0.5   0.2547      0.0     S
O      0.53758   0.1445   0.1483     O
O      0.54406   0.3622   0.8856     O
H       0.6066   0.8847   0.9441     H
H       0.6173   0.8237   0.6298     H
O      0.63765   0.9446   0.9055     O
Ce     0.64534  0.25424  0.05018    Ce
C       0.6509   0.8949   0.6887     C
O      0.65551   0.2037   0.6535     O
C       0.6557   0.0612   0.5549     C
O      0.65939   0.0452   0.3532     O
O      0.66438   0.5398   0.8623     O
C       0.7073   0.6469   0.8622     C
C         0.71   0.7867   0.6874     C
H       0.7122   0.7284   0.5464     H
O      0.73703    0.392   0.2828     O
H       0.7402   0.4803      0.2     H
O      0.74996   0.6477   0.0055     O
O      0.75004   0.1477   0.9945     O
H       0.7598   0.9803      0.8     H
O      0.76297    0.892   0.7172     O
H       0.7878   0.2284   0.4536     H
C         0.79   0.2867   0.3126     C
C       0.7927   0.1469   0.1378     C
O      0.83562   0.0398   0.1377     O
O      0.84061   0.5452   0.6468     O
C       0.8443   0.5612   0.4451     C
O      0.84449   0.7037   0.3465     O
C       0.8491   0.3949   0.3113     C
Ce     0.85466  0.75424  0.94982    Ce
O      0.86235   0.4446   0.0945     O
H       0.8827   0.3237   0.3702     H
H       0.8934   0.3847   0.0559     H
O      0.95594   0.8622   0.1144     O
O      0.96242   0.6445   0.8517     O
