data_I
_chemical_name_common  '/home/zhangsd/repos/MofS-CGCNN/ML/data/TSD/clean_cifs/YITHOA_clean'
_cell_length_a  7.64390
_cell_length_b 22.01300
_cell_length_c  6.15560
_cell_angle_alpha 90.00000
_cell_angle_beta  90.00000
_cell_angle_gamma 90.00000
_space_group_name_H-M_alt      'P 1'


loop_
_space_group_symop_operation_xyz
  'x, y, z' 

loop_
_atom_site_label
_atom_site_fract_x
_atom_site_fract_y
_atom_site_fract_z
_atom_site_type_symbol
S          0.0      0.0   0.5534     S
H       0.0043    0.288   0.9518     H
Ce     0.02068  0.85423  0.56082    Ce
O       0.0274  0.15439   0.1664     O
C       0.0545   0.7099   0.8105     C
O        0.085  0.25059   0.4933     O
C       0.0857   0.2924   0.6307     C
H       0.0922   0.6172   0.8572     H
O       0.1007  0.04302   0.6884     O
O       0.1153  0.96168   0.4188     O
H       0.1543   0.6095   0.5386     H
O       0.1583  0.76326    0.783     O
C       0.1625   0.6509   0.8008     C
C       0.1699   0.1569   0.0636     C
O       0.1866  0.16338   0.8624     O
O       0.1932   0.3357    0.633     O
O       0.2124  0.63802   0.5846     O
H       0.2366   0.7565   0.6953     H
H       0.2634   0.2565   0.3047     H
O       0.2876  0.13802   0.4154     O
O       0.3068   0.8357    0.367     O
O       0.3134  0.66338   0.1376     O
C       0.3301   0.6569   0.9364     C
C       0.3375   0.1509   0.1992     C
O       0.3417  0.26326    0.217     O
H       0.3457   0.1095   0.4614     H
O       0.3847  0.46168   0.5812     O
O       0.3993  0.54302   0.3116     O
H       0.4078   0.1172   0.1428     H
C       0.4143   0.7924   0.3693     C
O        0.415  0.75059   0.5067     O
C       0.4455   0.2099   0.1895     C
O       0.4726  0.65439   0.8336     O
Ce     0.47932  0.35423  0.43918    Ce
H       0.4957    0.788   0.0482     H
S          0.5      0.5   0.4466     S
H       0.5043    0.212   0.0482     H
Ce     0.52068  0.64577  0.43918    Ce
O       0.5274  0.34561   0.8336     O
C       0.5545   0.7901   0.1895     C
O        0.585  0.24941   0.5067     O
C       0.5857   0.2076   0.3693     C
H       0.5922   0.8828   0.1428     H
O       0.6007  0.45698   0.3116     O
O       0.6153  0.53832   0.5812     O
H       0.6543   0.8905   0.4614     H
O       0.6583  0.73674    0.217     O
C       0.6625   0.8491   0.1992     C
C       0.6699   0.3431   0.9364     C
O       0.6866  0.33662   0.1376     O
O       0.6932   0.1643    0.367     O
O       0.7124  0.86198   0.4154     O
H       0.7366   0.7435   0.3047     H
H       0.7634   0.2435   0.6953     H
O       0.7876  0.36198   0.5846     O
O       0.8068   0.6643    0.633     O
O       0.8134  0.83662   0.8624     O
C       0.8301   0.8431   0.0636     C
C       0.8375   0.3491   0.8008     C
O       0.8417  0.23674    0.783     O
H       0.8457   0.3905   0.5386     H
O       0.8847  0.03832   0.4188     O
O       0.8993  0.95698   0.6884     O
H       0.9078   0.3828   0.8572     H
C       0.9143   0.7076   0.6307     C
O        0.915  0.74941   0.4933     O
C       0.9455   0.2901   0.8105     C
O       0.9726  0.84561   0.1664     O
Ce     0.97932  0.14577  0.56082    Ce
H       0.9957    0.712   0.9518     H
