data_I
_chemical_name_common  '/home/zhangsd/repos/MofS-CGCNN/ML/data/TSD/clean_cifs/YODRAM_clean'
_cell_length_a 13.18520
_cell_length_b 20.01980
_cell_length_c 20.01980
_cell_angle_alpha 103.23200
_cell_angle_beta  107.66400
_cell_angle_gamma 72.33610
_space_group_name_H-M_alt      'P 1'


loop_
_space_group_symop_operation_xyz
  'x, y, z' 

loop_
_atom_site_label
_atom_site_fract_x
_atom_site_fract_y
_atom_site_fract_z
_atom_site_type_symbol
Co         0.0      0.0      0.0    Co
N       0.0009  0.22331  0.77669     N
O       0.0255   0.2859   0.5555     O
O       0.0255   0.4445   0.7141     O
H       0.0316   0.1508   0.0344     H
H       0.0316   0.9656   0.8492     H
C       0.0368    0.142    0.858     C
C       0.0416   0.5699   0.2623     C
C       0.0416   0.7377   0.4301     C
O       0.0438  0.62828   0.2555     O
O       0.0438   0.7445  0.37172     O
O       0.0441  0.92799  0.07201     O
Co     0.06741  0.27567  0.72433    Co
C       0.0701   0.1792   0.8208     C
C       0.0738   0.8488   0.1512     C
H       0.0883   0.1117   0.8883     H
C       0.0984  0.12898  0.06262     C
C       0.0984  0.93738  0.87102     C
C       0.0997   0.7694   0.2306     C
H       0.1016   0.4332   0.2794     H
H       0.1016   0.7206   0.5668     H
C       0.1149   0.8872   0.1128     C
N       0.1167  0.06112  0.06536     N
N       0.1167  0.93464  0.93888     N
C       0.1329   0.5074   0.2424     C
C       0.1329   0.7576   0.4926     C
H       0.1451   0.1728   0.8272     H
C       0.1457   0.8031   0.1969     C
C       0.1482   0.4416   0.2572     C
C       0.1482   0.7428   0.5584     C
H       0.1488   0.7386   0.2614     H
H       0.1545   0.2179   0.0939     H
H       0.1545   0.9061   0.7821     H
H       0.1608    0.055    0.688     H
H       0.1608    0.312    0.945     H
O       0.1689  0.17901  0.70163     O
O       0.1689  0.29837  0.82099     O
C       0.1713  0.17028  0.09872     C
C       0.1713  0.90128  0.82972     C
H        0.193   0.5608    0.196     H
H        0.193    0.804   0.4392     H
C       0.2018  0.51712  0.20848     C
C       0.2018  0.79152  0.48288     C
H        0.206   0.3446   0.5606     H
H        0.206   0.4394   0.6554     H
C       0.2131  0.03251  0.10929     C
C       0.2131  0.89071  0.96749     C
O       0.2154  0.87703  0.12297     O
H       0.2214   0.7949   0.2051     H
H       0.2242   0.3177   0.0657     H
H       0.2242   0.9343   0.6823     H
H       0.2291   0.8864    0.015     H
H       0.2291    0.985   0.1136     H
C       0.2332  0.03319  0.68621     C
C       0.2332  0.31379  0.96681     C
C       0.2335   0.3872    0.239     C
C       0.2335    0.761   0.6128     C
H       0.2424   0.3426   0.2498     H
H       0.2424   0.7502   0.6574     H
H       0.2533   0.3489   0.4589     H
H       0.2533   0.5411   0.6511     H
C       0.2641  0.15424  0.69516     C
C       0.2641  0.30484  0.84576     C
C       0.2711  0.13841  0.14279     C
C       0.2711  0.85721  0.86159     C
C       0.2713    0.314   0.5522     C
C       0.2713   0.4478    0.686     C
C       0.2714  0.31729  0.03911     C
C       0.2714  0.96089  0.68271     C
C       0.2862   0.4586   0.1932     C
C       0.2862   0.8068   0.5414     C
C       0.2886  0.07024  0.14796     C
C       0.2886  0.85204  0.92976     C
C       0.2935   0.3138    0.487     C
C       0.2935    0.513   0.6862     C
C       0.3018  0.07315  0.68705     C
C       0.3018  0.31295  0.92685     C
N       0.3038  0.39432  0.20712     N
N       0.3038  0.79288  0.60568     N
Co     0.32246  0.29254  0.70746    Co
O       0.3287  0.18646  0.69396     O
O       0.3287  0.30604  0.81354     O
N       0.3308   0.2768   0.6002     N
N       0.3308   0.3998   0.7232     N
H        0.334   0.4657   0.1711     H
H        0.334   0.8289   0.5343     H
O        0.336  0.24126  0.16638     O
O        0.336  0.83362  0.75874     O
H       0.3529    0.048   0.1782     H
H       0.3529   0.8218    0.952     H
C       0.3554  0.18003  0.18237     C
C       0.3554  0.81763  0.81997     C
N       0.3746  0.32029  0.07219     N
N       0.3746  0.92781  0.67971     N
O       0.3754  0.30727  0.37093     O
O       0.3754  0.62907  0.69273     O
C       0.3766   0.2598   0.4676     C
C       0.3766   0.5324   0.7402     C
C       0.4057   0.2213   0.5783     C
C       0.4057   0.4217   0.7787     C
C       0.4076   0.0386    0.683     C
C       0.4076    0.317   0.9614     C
C       0.4099   0.2514   0.3988     C
C       0.4099   0.6012   0.7486     C
C       0.4319   0.2085   0.5089     C
C       0.4319   0.4911   0.7915     C
O       0.4363   0.1514  0.22604     O
O       0.4363  0.77396   0.8486     O
Co     0.43693  0.30733  0.18197    Co
Co     0.43693  0.81803  0.69267    Co
C       0.4404  0.32035  0.03485     C
C       0.4404  0.96515  0.67965     C
H       0.4444   0.1881   0.6089     H
H       0.4444   0.3911   0.8119     H
H       0.4562   0.0637   0.6825     H
H       0.4562   0.3175   0.9363     H
O       0.4713  0.20001  0.38039     O
O       0.4713  0.61961  0.79999     O
H       0.4826    0.168   0.4946     H
H       0.4826   0.5054    0.832     H
H       0.4879   0.0583   0.3227     H
H       0.4879   0.6773   0.9417     H
O          0.5  0.29144  0.29144     O
O          0.5  0.70856  0.70856     O
H       0.5121   0.3227   0.0583     H
H       0.5121   0.9417   0.6773     H
H       0.5174   0.4946    0.168     H
H       0.5174    0.832   0.5054     H
O       0.5287  0.38039  0.20001     O
O       0.5287  0.79999  0.61961     O
H       0.5438   0.6825   0.0637     H
H       0.5438   0.9363   0.3175     H
H       0.5556   0.6089   0.1881     H
H       0.5556   0.8119   0.3911     H
C       0.5596  0.03485  0.32035     C
C       0.5596  0.67965  0.96515     C
Co     0.56307  0.18197  0.30733    Co
Co     0.56307  0.69267  0.81803    Co
O       0.5637  0.22604   0.1514     O
O       0.5637   0.8486  0.77396     O
C       0.5681   0.5089   0.2085     C
C       0.5681   0.7915   0.4911     C
C       0.5901   0.3988   0.2514     C
C       0.5901   0.7486   0.6012     C
C       0.5924    0.683   0.0386     C
C       0.5924   0.9614    0.317     C
C       0.5943   0.5783   0.2213     C
C       0.5943   0.7787   0.4217     C
C       0.6234   0.4676   0.2598     C
C       0.6234   0.7402   0.5324     C
O       0.6246  0.37093  0.30727     O
O       0.6246  0.69273  0.62907     O
N       0.6254  0.07219  0.32029     N
N       0.6254  0.67971  0.92781     N
C       0.6446  0.18237  0.18003     C
C       0.6446  0.81997  0.81763     C
H       0.6471   0.1782    0.048     H
H       0.6471    0.952   0.8218     H
O        0.664  0.16638  0.24126     O
O        0.664  0.75874  0.83362     O
H        0.666   0.1711   0.4657     H
H        0.666   0.5343   0.8289     H
N       0.6692   0.6002   0.2768     N
N       0.6692   0.7232   0.3998     N
O       0.6713  0.69396  0.18646     O
O       0.6713  0.81354  0.30604     O
Co     0.67754  0.70746  0.29254    Co
N       0.6962  0.20712  0.39432     N
N       0.6962  0.60568  0.79288     N
C       0.6982  0.68705  0.07315     C
C       0.6982  0.92685  0.31295     C
C       0.7065    0.487   0.3138     C
C       0.7065   0.6862    0.513     C
C       0.7114  0.14796  0.07024     C
C       0.7114  0.92976  0.85204     C
C       0.7138   0.1932   0.4586     C
C       0.7138   0.5414   0.8068     C
C       0.7286  0.03911  0.31729     C
C       0.7286  0.68271  0.96089     C
C       0.7287   0.5522    0.314     C
C       0.7287    0.686   0.4478     C
C       0.7289  0.14279  0.13841     C
C       0.7289  0.86159  0.85721     C
C       0.7359  0.69516  0.15424     C
C       0.7359  0.84576  0.30484     C
H       0.7467   0.4589   0.3489     H
H       0.7467   0.6511   0.5411     H
H       0.7576   0.2498   0.3426     H
H       0.7576   0.6574   0.7502     H
C       0.7665    0.239   0.3872     C
C       0.7665   0.6128    0.761     C
C       0.7668  0.68621  0.03319     C
C       0.7668  0.96681  0.31379     C
H       0.7709    0.015   0.8864     H
H       0.7709   0.1136    0.985     H
H       0.7758   0.0657   0.3177     H
H       0.7758   0.6823   0.9343     H
H       0.7786   0.2051   0.7949     H
O       0.7846  0.12297  0.87703     O
C       0.7869  0.10929  0.03251     C
C       0.7869  0.96749  0.89071     C
H        0.794   0.5606   0.3446     H
H        0.794   0.6554   0.4394     H
C       0.7982  0.20848  0.51712     C
C       0.7982  0.48288  0.79152     C
H        0.807    0.196   0.5608     H
H        0.807   0.4392    0.804     H
C       0.8287  0.09872  0.17028     C
C       0.8287  0.82972  0.90128     C
O       0.8311  0.70163  0.17901     O
O       0.8311  0.82099  0.29837     O
H       0.8392    0.688    0.055     H
H       0.8392    0.945    0.312     H
H       0.8455   0.0939   0.2179     H
H       0.8455   0.7821   0.9061     H
H       0.8512   0.2614   0.7386     H
C       0.8518   0.2572   0.4416     C
C       0.8518   0.5584   0.7428     C
C       0.8543   0.1969   0.8031     C
H       0.8549   0.8272   0.1728     H
C       0.8671   0.2424   0.5074     C
C       0.8671   0.4926   0.7576     C
N       0.8833  0.06536  0.06112     N
N       0.8833  0.93888  0.93464     N
C       0.8851   0.1128   0.8872     C
H       0.8984   0.2794   0.4332     H
H       0.8984   0.5668   0.7206     H
C       0.9003   0.2306   0.7694     C
C       0.9016  0.06262  0.12898     C
C       0.9016  0.87102  0.93738     C
H       0.9117   0.8883   0.1117     H
C       0.9262   0.1512   0.8488     C
C       0.9299   0.8208   0.1792     C
Co     0.93259  0.72433  0.27567    Co
O       0.9559  0.07201  0.92799     O
O       0.9562   0.2555  0.62828     O
O       0.9562  0.37172   0.7445     O
C       0.9584   0.2623   0.5699     C
C       0.9584   0.4301   0.7377     C
C       0.9632    0.858    0.142     C
H       0.9684   0.0344   0.1508     H
H       0.9684   0.8492   0.9656     H
O       0.9745   0.5555   0.2859     O
O       0.9745   0.7141   0.4445     O
N       0.9991  0.77669  0.22331     N
