data_I
_chemical_name_common  '/home/zhangsd/repos/MofS-CGCNN/ML/data/TSD/clean_cifs/YOJMAN_clean'
_cell_length_a 19.14400
_cell_length_b 23.38800
_cell_length_c 22.86000
_cell_angle_alpha 90.00000
_cell_angle_beta  102.83800
_cell_angle_gamma 90.00000
_space_group_name_H-M_alt      'P 1'


loop_
_space_group_symop_operation_xyz
  'x, y, z' 

loop_
_atom_site_label
_atom_site_fract_x
_atom_site_fract_y
_atom_site_fract_z
_atom_site_type_symbol
Co         0.0      0.5      0.0    Co
O       0.0003   0.1129   0.4191     O
O       0.0009   0.7988   0.3875     O
K       0.0022   0.9169   0.1637     K
N       0.0038   0.6202   0.2481     N
N       0.0044   0.5919   0.2998     N
W      0.01273  0.36861  0.51156     W
O       0.0129   0.5681   0.5412     O
O       0.0132   0.9062   0.1291     O
W      0.01375  0.78455  0.46268     W
N        0.016   0.1652   0.8089     N
C        0.016    0.756    0.244     C
O       0.0175   0.2841   0.0477     O
N        0.018   0.8172   0.2494     N
O        0.021   0.2907   0.5349     O
H       0.0227   0.7161   0.9774     H
O       0.0273   0.6693   0.5855     O
N        0.029   0.2635   0.8085     N
W      0.02947  0.15816  0.24099     W
H       0.0304   0.4569   0.8716     H
O       0.0333   0.2236    0.189     O
O       0.0348   0.4027     0.58     O
O       0.0356   0.1207   0.3137     O
N       0.0357   0.4328   0.9549     N
C        0.039   0.4276   0.8998     C
W      0.03977  0.57645  0.62642     W
H       0.0431   0.7323   0.2722     H
Na      0.0434   0.8686   0.3245    Na
O       0.0454   0.6924   0.7746     O
O       0.0456   0.3324   0.1532     O
O       0.0456   0.7733   0.5688     O
C        0.047    0.217    0.842     C
N       0.0507   0.3792    0.979     N
N       0.0508   0.6081   0.9437     N
Co     0.05179  0.35685  0.06763    Co
O       0.0519   0.5066   0.6472     O
W      0.05236  0.29749  0.21982     W
O       0.0553   0.4153   0.3694     O
N       0.0559   0.3765   0.8892     N
O       0.0623   0.2417   0.3035     O
C       0.0634   0.3469   0.9359     C
O       0.0637   0.8531    0.494     O
C       0.0649   0.5644   0.3121     C
N       0.0663   0.5537   0.9663     N
O       0.0663   0.8194    0.757     O
C       0.0692   0.6095   0.2358     C
O       0.0709   0.6147   0.7003     O
O       0.0727   0.1888   0.5242     O
P       0.0744   0.7212    0.605     P
H       0.0753   0.2176   0.8809     H
H       0.0759   0.3084   0.9393     H
O       0.0766   0.3588   0.2754     O
H       0.0778   0.5422   0.3465     H
N       0.0803   0.4865   0.0764     N
K       0.0807   0.0786   0.8133     K
Co     0.08425  0.34238  0.80847    Co
O       0.0844   0.7326   0.6723     O
H       0.0861   0.6273   0.2053     H
W      0.08766  0.10056  0.39197     W
Co     0.08778  0.42175  0.66831    Co
O       0.0907   0.6391   0.4885     O
W      0.09262  0.86817  0.57858     W
N       0.0949   0.4342   0.1022     N
O       0.1024   0.3659    0.493     O
O       0.1033   0.2003   0.4065     O
N       0.1072   0.5691   0.2742     N
O       0.1078   0.7483   0.4696     O
C       0.1079   0.6255   0.9239     C
H       0.1121   0.6614   0.9074     H
O       0.1129   0.8535   0.6617     O
C       0.1164   0.5231   0.1183     C
P       0.1167   0.2452   0.3628     P
H       0.1177   0.5625   0.1134     H
N       0.1195   0.3055   0.7322     N
N        0.122   0.3375   0.6825     N
O       0.1225   0.3061   0.3887     O
W      0.12917  0.66856  0.75152     W
C        0.131   0.5411    0.961     C
O       0.1321   0.1525   0.2543     O
C       0.1362   0.4426    0.157     C
O       0.1372    0.589   0.6176     O
W      0.14081  0.39259  0.34208     W
O       0.1431   0.1132   0.4705     O
C       0.1442    0.255   0.7254     C
N        0.145    0.446   0.7533     N
H       0.1474   0.2256   0.7533     H
C       0.1477   0.3014   0.6455     C
O       0.1497   0.7064   0.5911     O
N       0.1502   0.4146    0.803     N
N       0.1506   0.4949   0.1686     N
W      0.15106  0.80862  0.72993     W
O       0.1514   0.2828   0.2333     O
H       0.1526   0.3107   0.6071     H
H       0.1527   0.4131   0.1838     H
H       0.1553   0.5078   0.9753     H
N       0.1587   0.5846   0.9308     N
O       0.1596   0.4575   0.3124     O
N        0.165   0.2503   0.6722     N
O       0.1678   0.6265   0.8132     O
W      0.16793  0.18534  0.50686     W
W       0.1697  0.68624  0.49447     W
O       0.1707   0.2652   0.5108     O
O       0.1721   0.7396   0.7769     O
O       0.1727   0.3037   0.8741     O
O       0.1752   0.1098   0.3622     O
O       0.1792   0.7735   0.1448     O
O        0.181   0.8255   0.5777     O
C        0.182   0.4903   0.7676     C
C       0.1869   0.4448   0.8493     C
H       0.1922   0.5166   0.7402     H
O       0.1925   0.3989   0.4226     O
W      0.19288  0.33779  0.47953     W
O       0.1939     0.23   0.3489     O
Co      0.1965   0.5243    0.262    Co
W       0.1973  0.72982  0.07736     W
O       0.1977    0.663    0.126     O
H       0.1983   0.4331   0.8892     H
O       0.2003   0.6518   0.7063     O
N       0.2044   0.4949   0.8283     N
O       0.2112   0.0777   0.8419     O
O       0.2148   0.3494   0.3202     O
O       0.2162   0.1958   0.8589     O
O       0.2196    0.783   0.6839     O
W      0.22318  0.14466  0.30737     W
O       0.2236   0.6296   0.5503     O
W      0.22457  0.62866  0.63315     W
O        0.233   0.7976   0.0487     O
Co      0.2371   0.5751   0.8792    Co
O       0.2414   0.5879   0.2222     O
O       0.2419   0.7064   0.2355     O
O       0.2424   0.7399   0.5313     O
W      0.24753  0.28668  0.28399     W
W      0.24784  0.76993  0.61233     W
O        0.248   0.1891   0.4693     O
O        0.252   0.6891   0.0307     O
W      0.25216  0.26993  0.88767     W
W      0.25247  0.78668  0.21601     W
O       0.2576   0.2399   0.9687     O
O       0.2581   0.2064   0.2645     O
O       0.2586   0.0879   0.2778     O
Co      0.2629   0.0751   0.6208    Co
O        0.267   0.2976   0.4513     O
W      0.27543  0.12866  0.86685     W
O       0.2764   0.1296   0.9497     O
W      0.27682  0.64466  0.19263     W
O       0.2804    0.283   0.8161     O
O       0.2838   0.6958   0.6411     O
O       0.2852   0.8494   0.1798     O
O       0.2888   0.5777   0.6581     O
N       0.2956   0.9949   0.6717     N
O       0.2997   0.1518   0.7937     O
H       0.3017   0.9331   0.6108     H
O       0.3023    0.163    0.374     O
W       0.3027  0.22982  0.42264     W
Co      0.3035   0.0243    0.238    Co
O       0.3061     0.73   0.1511     O
W      0.30712  0.83779  0.02047     W
O       0.3075   0.8989   0.0774     O
H       0.3078   0.0166   0.7598     H
C       0.3131   0.9448   0.6507     C
C        0.318   0.9903   0.7324     C
O        0.319   0.3255   0.9223     O
O       0.3208   0.2735   0.3552     O
O       0.3248   0.6098   0.1378     O
O       0.3273   0.8037   0.6259     O
O       0.3279   0.2396   0.7231     O
O       0.3293   0.7652   0.9892     O
W       0.3303  0.18624  0.00553     W
W      0.33207  0.68534  0.99314     W
O       0.3322   0.1265   0.6868     O
N        0.335   0.7503   0.8278     N
O       0.3404   0.9575   0.1876     O
N       0.3413   0.0846   0.5692     N
H       0.3447   0.0078   0.5247     H
H       0.3473   0.9131   0.3162     H
H       0.3474   0.8107   0.8929     H
O       0.3486   0.7828   0.2667     O
W      0.34894  0.30862  0.77007     W
N       0.3494   0.9949   0.3314     N
N       0.3498   0.9146    0.697     N
O       0.3503   0.2064   0.9089     O
C       0.3523   0.8014   0.8545     C
H       0.3526   0.7256   0.7467     H
N        0.355    0.946   0.7467     N
C       0.3558    0.755   0.7746     C
O       0.3569   0.6132   0.0295     O
W      0.35919  0.89259  0.15792     W
O       0.3628    0.089   0.8824     O
C       0.3638   0.9426    0.343     C
O       0.3679   0.6525   0.2457     O
C        0.369   0.0411    0.539     C
W      0.37083  0.16856  0.74848     W
O       0.3775   0.8061   0.1113     O
N        0.378   0.8375   0.8175     N
N       0.3805   0.8055   0.7678     N
H       0.3823   0.0625   0.3866     H
P       0.3833   0.7452   0.1372     P
C       0.3836   0.0231   0.3817     C
O       0.3871   0.3535   0.8383     O
H       0.3879   0.1614   0.5926     H
C       0.3921   0.1255   0.5761     C
O       0.3922   0.2483   0.0304     O
N       0.3928   0.0691   0.2258     N
O       0.3967   0.7003   0.0935     O
O       0.3976   0.8659    0.007     O
N       0.4051   0.9342   0.3978     N
W      0.40738  0.36817  0.92142     W
O       0.4093   0.1391   0.0115     O
Co     0.41222  0.92175  0.83169    Co
W      0.41234  0.60056  0.10803     W
H       0.4139   0.1273   0.2947     H
O       0.4156   0.2326   0.8277     O
Co     0.41575  0.84238  0.69153    Co
K       0.4193   0.5786   0.6867     K
N       0.4197   0.9865   0.4236     N
H       0.4222   0.0422   0.1535     H
O       0.4234   0.8588   0.2246     O
H       0.4241   0.8084   0.5607     H
H       0.4247   0.7176   0.6191     H
P       0.4256   0.2212    0.895     P
O       0.4273   0.6888   0.9758     O
O       0.4291   0.1147   0.7997     O
C       0.4308   0.1095   0.2642     C
N       0.4337   0.0537   0.5337     N
O       0.4337   0.3194    0.743     O
C       0.4351   0.0644   0.1879     C
O       0.4363   0.3531    0.006     O
C       0.4366   0.8469   0.5641     C
O       0.4377   0.7417   0.1965     O
N       0.4441   0.8765   0.6108     N
O       0.4447   0.9153   0.1306     O
W      0.44764  0.79749  0.28018     W
O       0.4481   0.0066   0.8528     O
Co     0.44821  0.85685  0.43237    Co
N       0.4492   0.1081   0.5563     N
N       0.4493   0.8792    0.521     N
C        0.453    0.717    0.658     C
O       0.4544   0.2733   0.9312     O
O       0.4544   0.8324   0.3468     O
O       0.4546   0.1924   0.7254     O
Na      0.4566   0.3686   0.1755    Na
H       0.4569   0.2323   0.2278     H
W      0.46023  0.07645  0.87358     W
C        0.461   0.9276   0.6002     C
N       0.4643   0.9328   0.5451     N
O       0.4644   0.6207   0.1863     O
O       0.4652   0.9027     0.92     O
O       0.4667   0.7236    0.311     O
H       0.4696   0.9569   0.6284     H
W      0.47053  0.65816  0.25901     W
N        0.471   0.7635   0.6915     N
O       0.4727   0.1693   0.9145     O
H       0.4773   0.2161   0.5226     H
O        0.479   0.7907   0.9651     O
N        0.482   0.3172   0.2506     N
O       0.4825   0.7841   0.4523     O
C        0.484    0.256    0.256     C
N        0.484   0.6652   0.6911     N
W      0.48625  0.28455  0.03732     W
O       0.4868   0.4062   0.3709     O
O       0.4871   0.0681   0.9588     O
W      0.48727  0.86861  0.98844     W
N       0.4956   0.0919   0.2002     N
N       0.4962   0.1202   0.2519     N
K       0.4978   0.4169   0.3363     K
O       0.4991   0.2988   0.1125     O
O       0.4997   0.6129   0.0809     O
Co         0.5      0.0      0.5    Co
O       0.5003   0.3871   0.9191     O
O       0.5009   0.7012   0.8875     O
K       0.5022   0.5831   0.6637     K
N       0.5038   0.8798   0.7481     N
N       0.5044   0.9081   0.7998     N
W      0.51273  0.13139  0.01156     W
O       0.5129   0.9319   0.0412     O
O       0.5132   0.5938   0.6291     O
W      0.51375  0.71545  0.96268     W
N        0.516   0.3348   0.3089     N
C        0.516    0.744    0.744     C
O       0.5175   0.2159   0.5477     O
N        0.518   0.6828   0.7494     N
O        0.521   0.2093   0.0349     O
H       0.5227   0.7839   0.4774     H
O       0.5273   0.8307   0.0855     O
N        0.529   0.2365   0.3085     N
W      0.52947  0.34184  0.74099     W
H       0.5304   0.0431   0.3716     H
O       0.5333   0.2764    0.689     O
O       0.5348   0.0973     0.08     O
O       0.5356   0.3793   0.8137     O
N       0.5357   0.0672   0.4549     N
C        0.539   0.0724   0.3998     C
W      0.53977  0.92355  0.12642     W
H       0.5431   0.7677   0.7722     H
Na      0.5434   0.6314   0.8245    Na
O       0.5454   0.8076   0.2746     O
O       0.5456   0.1676   0.6532     O
O       0.5456   0.7267   0.0688     O
C        0.547    0.283    0.342     C
N       0.5507   0.1208    0.479     N
N       0.5508   0.8919   0.4437     N
Co     0.55179  0.14315  0.56763    Co
O       0.5519   0.9934   0.1472     O
W      0.55236  0.20251  0.71982     W
O       0.5553   0.0847   0.8694     O
N       0.5559   0.1235   0.3892     N
O       0.5623   0.2583   0.8035     O
C       0.5634   0.1531   0.4359     C
O       0.5637   0.6469    0.994     O
C       0.5649   0.9356   0.8121     C
O       0.5663   0.6806    0.257     O
N       0.5663   0.9463   0.4663     N
C       0.5692   0.8905   0.7358     C
O       0.5709   0.8853   0.2003     O
O       0.5727   0.3112   0.0242     O
P       0.5744   0.7788    0.105     P
H       0.5753   0.2824   0.3809     H
H       0.5759   0.1916   0.4393     H
O       0.5766   0.1412   0.7754     O
H       0.5778   0.9578   0.8465     H
N       0.5803   0.0135   0.5764     N
K       0.5807   0.4214   0.3133     K
Co     0.58425  0.15762  0.30847    Co
O       0.5844   0.7674   0.1723     O
H       0.5861   0.8727   0.7053     H
W      0.58766  0.39944  0.89197     W
Co     0.58778  0.07825  0.16831    Co
O       0.5907   0.8609   0.9885     O
W      0.59262  0.63183  0.07858     W
N       0.5949   0.0658   0.6022     N
O       0.6024   0.1341    0.993     O
O       0.6033   0.2997   0.9065     O
N       0.6072   0.9309   0.7742     N
O       0.6078   0.7517   0.9696     O
C       0.6079   0.8745   0.4239     C
H       0.6121   0.8386   0.4074     H
O       0.6129   0.6465   0.1617     O
C       0.6164   0.9769   0.6183     C
P       0.6167   0.2548   0.8628     P
H       0.6177   0.9375   0.6134     H
N       0.6195   0.1945   0.2322     N
N        0.622   0.1625   0.1825     N
O       0.6225   0.1939   0.8887     O
W      0.62917  0.83144  0.25152     W
C        0.631   0.9589    0.461     C
O       0.6321   0.3475   0.7543     O
C       0.6362   0.0574    0.657     C
O       0.6372    0.911   0.1176     O
W      0.64081  0.10741  0.84208     W
O       0.6431   0.3868   0.9705     O
C       0.6442    0.245   0.2254     C
N        0.645    0.054   0.2533     N
H       0.6474   0.2744   0.2533     H
C       0.6477   0.1986   0.1455     C
O       0.6497   0.7936   0.0911     O
N       0.6502   0.0854    0.303     N
N       0.6506   0.0051   0.6686     N
W      0.65106  0.69138  0.22993     W
O       0.6514   0.2172   0.7333     O
H       0.6526   0.1893   0.1071     H
H       0.6527   0.0869   0.6838     H
H       0.6553   0.9922   0.4753     H
N       0.6587   0.9154   0.4308     N
O       0.6596   0.0425   0.8124     O
N        0.665   0.2497   0.1722     N
O       0.6678   0.8735   0.3132     O
W      0.66793  0.31466  0.00686     W
W       0.6697  0.81376  0.99447     W
O       0.6707   0.2348   0.0108     O
O       0.6721   0.7604   0.2769     O
O       0.6727   0.1963   0.3741     O
O       0.6752   0.3902   0.8622     O
O       0.6792   0.7265   0.6448     O
O        0.681   0.6745   0.0777     O
C        0.682   0.0097   0.2676     C
C       0.6869   0.0552   0.3493     C
H       0.6922   0.9834   0.2402     H
O       0.6925   0.1011   0.9226     O
W      0.69288  0.16221  0.97953     W
O       0.6939     0.27   0.8489     O
Co      0.6965   0.9757    0.762    Co
W       0.6973  0.77018  0.57736     W
O       0.6977    0.837    0.626     O
H       0.6983   0.0669   0.3892     H
O       0.7003   0.8482   0.2063     O
N       0.7044   0.0051   0.3283     N
O       0.7112   0.4223   0.3419     O
O       0.7148   0.1506   0.8202     O
O       0.7162   0.3042   0.3589     O
O       0.7196    0.717   0.1839     O
W      0.72318  0.35534  0.80737     W
O       0.7236   0.8704   0.0503     O
W      0.72457  0.87134  0.13315     W
O        0.733   0.7024   0.5487     O
Co      0.7371   0.9249   0.3792    Co
O       0.7414   0.9121   0.7222     O
O       0.7419   0.7936   0.7355     O
O       0.7424   0.7601   0.0313     O
W      0.74753  0.21332  0.78399     W
W      0.74784  0.73007  0.11233     W
O        0.748   0.3109   0.9693     O
O        0.752   0.8109   0.5307     O
W      0.75216  0.23007  0.38767     W
W      0.75247  0.71332  0.71601     W
O       0.7576   0.2601   0.4687     O
O       0.7581   0.2936   0.7645     O
O       0.7586   0.4121   0.7778     O
Co      0.7629   0.4249   0.1208    Co
O        0.767   0.2024   0.9513     O
W      0.77543  0.37134  0.36685     W
O       0.7764   0.3704   0.4497     O
W      0.77682  0.85534  0.69263     W
O       0.7804    0.217   0.3161     O
O       0.7838   0.8042   0.1411     O
O       0.7852   0.6506   0.6798     O
O       0.7888   0.9223   0.1581     O
N       0.7956   0.5051   0.1717     N
O       0.7997   0.3482   0.2937     O
H       0.8017   0.5669   0.1108     H
O       0.8023    0.337    0.874     O
W       0.8027  0.27018  0.92264     W
Co      0.8035   0.4757    0.738    Co
O       0.8061     0.77   0.6511     O
W      0.80712  0.66221  0.52047     W
O       0.8075   0.6011   0.5774     O
H       0.8078   0.4834   0.2598     H
C       0.8131   0.5552   0.1507     C
C        0.818   0.5097   0.2324     C
O        0.819   0.1745   0.4223     O
O       0.8208   0.2265   0.8552     O
O       0.8248   0.8902   0.6378     O
O       0.8273   0.6963   0.1259     O
O       0.8279   0.2604   0.2231     O
O       0.8293   0.7348   0.4892     O
W       0.8303  0.31376  0.50553     W
W      0.83207  0.81466  0.49314     W
O       0.8322   0.3735   0.1868     O
N        0.835   0.7497   0.3278     N
O       0.8404   0.5425   0.6876     O
N       0.8413   0.4154   0.0692     N
H       0.8447   0.4922   0.0247     H
H       0.8473   0.5869   0.8162     H
H       0.8474   0.6893   0.3929     H
O       0.8486   0.7172   0.7667     O
W      0.84894  0.19138  0.27007     W
N       0.8494   0.5051   0.8314     N
N       0.8498   0.5854    0.197     N
O       0.8503   0.2936   0.4089     O
C       0.8523   0.6986   0.3545     C
H       0.8526   0.7744   0.2467     H
N        0.855    0.554   0.2467     N
C       0.8558    0.745   0.2746     C
O       0.8569   0.8868   0.5295     O
W      0.85919  0.60741  0.65792     W
O       0.8628    0.411   0.3824     O
C       0.8638   0.5574    0.843     C
O       0.8679   0.8475   0.7457     O
C        0.869   0.4589    0.039     C
W      0.87083  0.33144  0.24848     W
O       0.8775   0.6939   0.6113     O
N        0.878   0.6625   0.3175     N
N       0.8805   0.6945   0.2678     N
H       0.8823   0.4375   0.8866     H
P       0.8833   0.7548   0.6372     P
C       0.8836   0.4769   0.8817     C
O       0.8871   0.1465   0.3383     O
H       0.8879   0.3386   0.0926     H
C       0.8921   0.3745   0.0761     C
O       0.8922   0.2517   0.5304     O
N       0.8928   0.4309   0.7258     N
O       0.8967   0.7997   0.5935     O
O       0.8976   0.6341    0.507     O
N       0.9051   0.5658   0.8978     N
W      0.90738  0.13183  0.42142     W
O       0.9093   0.3609   0.5115     O
Co     0.91222  0.57825  0.33169    Co
W      0.91234  0.89944  0.60803     W
H       0.9139   0.3727   0.7947     H
O       0.9156   0.2674   0.3277     O
Co     0.91575  0.65762  0.19153    Co
K       0.9193   0.9214   0.1867     K
N       0.9197   0.5135   0.9236     N
H       0.9222   0.4578   0.6535     H
O       0.9234   0.6412   0.7246     O
H       0.9241   0.6916   0.0607     H
H       0.9247   0.7824   0.1191     H
P       0.9256   0.2788    0.395     P
O       0.9273   0.8112   0.4758     O
O       0.9291   0.3853   0.2997     O
C       0.9308   0.3905   0.7642     C
O       0.9337   0.1806    0.243     O
N       0.9337   0.4463   0.0337     N
C       0.9351   0.4356   0.6879     C
O       0.9363   0.1469    0.506     O
C       0.9366   0.6531   0.0641     C
O       0.9377   0.7583   0.6965     O
N       0.9441   0.6235   0.1108     N
O       0.9447   0.5847   0.6306     O
W      0.94764  0.70251  0.78018     W
O       0.9481   0.4934   0.3528     O
Co     0.94821  0.64315  0.93237    Co
N       0.9492   0.3919   0.0563     N
N       0.9493   0.6208    0.021     N
C        0.953    0.783    0.158     C
O       0.9544   0.2267   0.4312     O
O       0.9544   0.6676   0.8468     O
O       0.9546   0.3076   0.2254     O
Na      0.9566   0.1314   0.6755    Na
H       0.9569   0.2677   0.7278     H
W      0.96023  0.42355  0.37358     W
C        0.961   0.5724   0.1002     C
N       0.9643   0.5672   0.0451     N
O       0.9644   0.8793   0.6863     O
O       0.9652   0.5973     0.42     O
O       0.9667   0.7764    0.811     O
H       0.9696   0.5431   0.1284     H
W      0.97053  0.84184  0.75901     W
N        0.971   0.7365   0.1915     N
O       0.9727   0.3307   0.4145     O
H       0.9773   0.2839   0.0226     H
O        0.979   0.7093   0.4651     O
N        0.982   0.1828   0.7506     N
O       0.9825   0.7159   0.9523     O
C        0.984    0.244    0.756     C
N        0.984   0.8348   0.1911     N
W      0.98625  0.21545  0.53732     W
O       0.9868   0.0938   0.8709     O
O       0.9871   0.4319   0.4588     O
W      0.98727  0.63139  0.48844     W
N       0.9956   0.4081   0.7002     N
N       0.9962   0.3798   0.7519     N
K       0.9978   0.0831   0.8363     K
O       0.9991   0.2012   0.6125     O
O       0.9997   0.8871   0.5809     O
