data_I
_chemical_name_common  '/home/zhangsd/repos/MofS-CGCNN/ML/data/TSD/clean_cifs/YOMVIG_clean'
_cell_length_a 14.71800
_cell_length_b 13.06300
_cell_length_c 15.22900
_cell_angle_alpha 90.00000
_cell_angle_beta  110.92000
_cell_angle_gamma 90.00000
_space_group_name_H-M_alt      'P 1'


loop_
_space_group_symop_operation_xyz
  'x, y, z' 

loop_
_atom_site_label
_atom_site_fract_x
_atom_site_fract_y
_atom_site_fract_z
_atom_site_type_symbol
O       0.0011   0.2991   0.6404     O
O       0.0011   0.7009   0.1404     O
O       0.0264   0.3273   0.3862     O
O       0.0264   0.6727   0.8862     O
O       0.0629   0.4745   0.6368     O
O       0.0629   0.5255   0.1368     O
Co     0.08341  0.39416  0.16313    Co
Co     0.08341  0.60584  0.66313    Co
P       0.0913  0.36681  0.67051     P
P       0.0913  0.63319  0.17051     P
O       0.1235   0.3708   0.2852     O
O       0.1235   0.6292   0.7852     O
P      0.12382  0.31418  0.37184     P
P      0.12382  0.68582  0.87184     P
Al     0.12474  0.30912  0.87634    Al
Al     0.12474  0.69088  0.37634    Al
O       0.1379   0.1994   0.3634     O
O       0.1379   0.8006   0.8634     O
O       0.1407    0.369    0.777     O
O       0.1407    0.631    0.277     O
O         0.16    0.324    0.627     O
O         0.16    0.676    0.127     O
O        0.165   0.1794   0.8908     O
O        0.165   0.8206   0.3908     O
O       0.1732   0.3484   0.1202     O
O       0.1732   0.6516   0.6202     O
O       0.1996   0.3861   0.9724     O
O       0.1996   0.6139   0.4724     O
O       0.2075   0.3571   0.4534     O
O       0.2075   0.6429   0.9534     O
O       0.2212   0.0062   0.8887     O
O       0.2212   0.9938   0.3887     O
P       0.2464  0.38798  0.07878     P
P       0.2464  0.61202  0.57878     P
Al      0.2492  0.37215  0.58127    Al
Co      0.2492  0.62785  0.08127    Co
Co      0.2508  0.12785  0.41873    Co
Al      0.2508  0.87215  0.91873    Al
P       0.2536  0.11202  0.92122     P
P       0.2536  0.88798  0.42122     P
O       0.2788   0.4938   0.1113     O
O       0.2788   0.5062   0.6113     O
O       0.2925   0.1429   0.5466     O
O       0.2925   0.8571   0.0466     O
O       0.3004   0.1139   0.0276     O
O       0.3004   0.8861   0.5276     O
O       0.3268   0.1516   0.8798     O
O       0.3268   0.8484   0.3798     O
O        0.335   0.3206   0.1092     O
O        0.335   0.6794   0.6092     O
O         0.34    0.176    0.373     O
O         0.34    0.824    0.873     O
O       0.3593    0.131    0.223     O
O       0.3593    0.869    0.723     O
O       0.3621   0.3006   0.6366     O
O       0.3621   0.6994   0.1366     O
Al     0.37526  0.19088  0.12366    Al
Al     0.37526  0.80912  0.62366    Al
P      0.37618  0.18582  0.62816     P
P      0.37618  0.81418  0.12816     P
O       0.3765   0.1292   0.7148     O
O       0.3765   0.8708   0.2148     O
P       0.4087  0.13319  0.32949     P
P       0.4087  0.86681  0.82949     P
Al     0.41659  0.10584  0.83687    Al
Al     0.41659  0.89416  0.33687    Al
O       0.4371   0.0255   0.3632     O
O       0.4371   0.9745   0.8632     O
O       0.4736   0.1727   0.6138     O
O       0.4736   0.8273   0.1138     O
O       0.4989   0.2009   0.3596     O
O       0.4989   0.7991   0.8596     O
O       0.5011   0.2009   0.1404     O
O       0.5011   0.7991   0.6404     O
O       0.5264   0.1727   0.8862     O
O       0.5264   0.8273   0.3862     O
O       0.5629   0.0255   0.1368     O
O       0.5629   0.9745   0.6368     O
Al     0.58341  0.10584  0.66313    Al
Al     0.58341  0.89416  0.16313    Al
P       0.5913  0.13319  0.17051     P
P       0.5913  0.86681  0.67051     P
O       0.6235   0.1292   0.7852     O
O       0.6235   0.8708   0.2852     O
P      0.62382  0.18582  0.87184     P
P      0.62382  0.81418  0.37184     P
Al     0.62474  0.19088  0.37634    Al
Al     0.62474  0.80912  0.87634    Al
O       0.6379   0.3006   0.8634     O
O       0.6379   0.6994   0.3634     O
O       0.6407    0.131    0.277     O
O       0.6407    0.869    0.777     O
O         0.66    0.176    0.127     O
O         0.66    0.824    0.627     O
O        0.665   0.3206   0.3908     O
O        0.665   0.6794   0.8908     O
O       0.6732   0.1516   0.6202     O
O       0.6732   0.8484   0.1202     O
O       0.6996   0.1139   0.4724     O
O       0.6996   0.8861   0.9724     O
O       0.7075   0.1429   0.9534     O
O       0.7075   0.8571   0.4534     O
O       0.7212   0.4938   0.3887     O
O       0.7212   0.5062   0.8887     O
P       0.7464  0.11202  0.57878     P
P       0.7464  0.88798  0.07878     P
Co      0.7492  0.12785  0.08127    Co
Al      0.7492  0.87215  0.58127    Al
Al      0.7508  0.37215  0.91873    Al
Co      0.7508  0.62785  0.41873    Co
P       0.7536  0.38798  0.42122     P
P       0.7536  0.61202  0.92122     P
O       0.7788   0.0062   0.6113     O
O       0.7788   0.9938   0.1113     O
O       0.7925   0.3571   0.0466     O
O       0.7925   0.6429   0.5466     O
O       0.8004   0.3861   0.5276     O
O       0.8004   0.6139   0.0276     O
O       0.8268   0.3484   0.3798     O
O       0.8268   0.6516   0.8798     O
O        0.835   0.1794   0.6092     O
O        0.835   0.8206   0.1092     O
O         0.84    0.324    0.873     O
O         0.84    0.676    0.373     O
O       0.8593    0.369    0.723     O
O       0.8593    0.631    0.223     O
O       0.8621   0.1994   0.1366     O
O       0.8621   0.8006   0.6366     O
Al     0.87526  0.30912  0.62366    Al
Al     0.87526  0.69088  0.12366    Al
P      0.87618  0.31418  0.12816     P
P      0.87618  0.68582  0.62816     P
O       0.8765   0.3708   0.2148     O
O       0.8765   0.6292   0.7148     O
P       0.9087  0.36681  0.82949     P
P       0.9087  0.63319  0.32949     P
Co     0.91659  0.39416  0.33687    Co
Co     0.91659  0.60584  0.83687    Co
O       0.9371   0.4745   0.8632     O
O       0.9371   0.5255   0.3632     O
O       0.9736   0.3273   0.1138     O
O       0.9736   0.6727   0.6138     O
O       0.9989   0.2991   0.8596     O
O       0.9989   0.7009   0.3596     O
