data_I
_chemical_name_common  '/home/zhangsd/repos/MofS-CGCNN/ML/data/TSD/clean_cifs/YOTROQ_clean'
_cell_length_a 25.58450
_cell_length_b 24.55970
_cell_length_c 19.05180
_cell_angle_alpha 90.00000
_cell_angle_beta  105.29100
_cell_angle_gamma 90.00000
_space_group_name_H-M_alt      'P 1'


loop_
_space_group_symop_operation_xyz
  'x, y, z' 

loop_
_atom_site_label
_atom_site_fract_x
_atom_site_fract_y
_atom_site_fract_z
_atom_site_type_symbol
H       0.0017   0.3512   0.5027     H
H       0.0017   0.6488   0.0027     H
H       0.0095   0.4091   0.5428     H
H       0.0095   0.5909   0.0428     H
H       0.0116   0.4061    0.044     H
H       0.0116   0.5939    0.544     H
C       0.0124   0.3893   0.4993     C
C       0.0124   0.6107   0.9993     C
H       0.0144   0.0512    0.527     H
H       0.0144   0.9488    0.027     H
C      0.01506  0.33753  0.70511     C
C      0.01506  0.66247  0.20511     C
C       0.0159    0.409    0.707     C
C       0.0159    0.591    0.207     C
C      0.01999   0.0135   0.5209     C
C      0.01999   0.9865   0.0209     C
H        0.024     0.32   0.6626     H
H        0.024     0.68   0.1626     H
H       0.0241   0.4459   0.6839     H
H       0.0241   0.5541   0.1839     H
C      0.03689  0.40909  0.78541     C
C      0.03689  0.59091  0.28541     C
C      0.03798  0.33745  0.78722     C
C      0.03798  0.66255  0.28722     C
H       0.0423   0.2075   0.1849     H
H       0.0423   0.7925   0.6849     H
N      0.05206  0.37355  0.74158     N
N      0.05206  0.62645  0.24158     N
H       0.0548   0.3767   0.3848     H
H       0.0548   0.6233   0.8848     H
H       0.0598   0.2116   0.7096     H
H       0.0598   0.7884   0.2096     H
H       0.0599   0.4401   0.8014     H
H       0.0599   0.5599   0.3014     H
H       0.0638   0.3105    0.813     H
H       0.0638   0.6895    0.313     H
H       0.0651   0.3223   0.4327     H
H       0.0651   0.6777   0.9327     H
C       0.0698   0.3914   0.4938     C
C       0.0698   0.6086   0.9938     C
H       0.0706   0.0793   0.0004     H
H       0.0706   0.9207   0.5004     H
H       0.0713   0.4625   0.4342     H
H       0.0713   0.5375   0.9342     H
H       0.0725   0.1482   0.7236     H
H       0.0725   0.8518   0.2236     H
H       0.0726   0.1747   0.6469     H
H       0.0726   0.8253   0.1469     H
C      0.07303   0.0088   0.0596     C
C      0.07303   0.9912   0.5596     C
H       0.0732   0.4746   0.5174     H
H       0.0732   0.5254   0.0174     H
C       0.0764    0.187   0.1964     C
C       0.0764    0.813   0.6964     C
H       0.0766   0.4615   0.2013     H
H       0.0766   0.5385   0.7013     H
C       0.0768   0.3601   0.4296     C
C       0.0768   0.6399   0.9296     C
H       0.0778   0.1643   0.1547     H
H       0.0778   0.8357   0.6547     H
H       0.0785   0.1639   0.2389     H
H       0.0785   0.8361   0.7389     H
H       0.0786   0.2816   0.2557     H
H       0.0786   0.7184   0.7557     H
C       0.0812   0.1809   0.6995     C
C       0.0812   0.8191   0.1995     C
C       0.0867   0.4509   0.4846     C
C       0.0867   0.5491   0.9846     C
H       0.0872   0.4567   0.2876     H
H       0.0872   0.5433   0.7876     H
H       0.0896   0.4035   0.2401     H
H       0.0896   0.5965   0.7401     H
H       0.0899   0.2682   0.1213     H
H       0.0899   0.7318   0.6213     H
C      0.09153   0.0592   0.0407     C
C      0.09153   0.9408   0.5407     C
O      0.09524  0.38197  0.62246     O
O      0.09524  0.61803  0.12246     O
H       0.0961   0.0545   0.6285     H
H       0.0961   0.9455   0.1285     H
C       0.0974   0.4426    0.245     C
C       0.0974   0.5574    0.745     C
H       0.1011   0.0494   0.4147     H
H       0.1011   0.9506   0.9147     H
H       0.1056   0.0738   0.3386     H
H       0.1056   0.9262   0.8386     H
C      0.10625   0.0193    0.616     C
C      0.10625   0.9807    0.116     C
C      0.10872  0.37268    0.565     C
C      0.10872  0.62732    0.065     C
H       0.1091   0.2084   0.8158     H
H       0.1091   0.7916   0.3158     H
C       0.1146    0.265   0.2725     C
C       0.1146    0.735   0.7725     C
H        0.115   0.3606   0.4293     H
H        0.115   0.6394   0.9293     H
H       0.1167   0.2439   0.3168     H
H       0.1167   0.7561   0.8168     H
O      0.12283  0.28851  0.72135     O
O      0.12283  0.71149  0.22135     O
C       0.1242   0.0698   0.3903     C
C       0.1242   0.9302   0.8903     C
C       0.1244    0.227    0.213     C
C       0.1244    0.773    0.713     C
H        0.126   0.4082   0.9355     H
H        0.126   0.5918   0.4355     H
H       0.1263   0.4533   0.4965     H
H       0.1263   0.5467   0.9965     H
C       0.1266   0.2569   0.1477     C
C       0.1266   0.7431   0.6477     C
H       0.1318   0.1059   0.4126     H
H       0.1318   0.8941   0.9126     H
O      0.13333   0.4538  0.74066     O
O      0.13333   0.5462  0.24066     O
Fe     0.13459  0.37108  0.72886    Fe
Co     0.13459  0.62892  0.22886    Co
H       0.1375   0.3035   0.9201     H
H       0.1375   0.6965   0.4201     H
C       0.1403   0.1936   0.7277     C
C       0.1403   0.8064   0.2277     C
C      0.14113  0.07908  0.08206     C
C      0.14113  0.92092  0.58206     C
H       0.1417   0.2333   0.1164     H
H       0.1417   0.7667   0.6164     H
H       0.1422   0.2936   0.2828     H
H       0.1422   0.7064   0.7828     H
H       0.1427   0.0367   0.8915     H
H       0.1427   0.9633   0.3915     H
H       0.1428   0.3944   0.0206     H
H       0.1428   0.6056   0.5206     H
C       0.1436   0.1952    0.809     C
C       0.1436   0.8048    0.309     C
H       0.1443   0.0129   0.8139     H
H       0.1443   0.9871   0.3139     H
H       0.1485   0.3074   0.0067     H
H       0.1485   0.6926   0.5067     H
H       0.1496   0.2891   0.1614     H
H       0.1496   0.7109   0.6614     H
C      0.14996  0.25182  0.70217     C
C      0.14996  0.74818  0.20217     C
H       0.1509   0.1586   0.8295     H
H       0.1509   0.8414   0.3295     H
O       0.1527  0.35118  0.56212     O
O       0.1527  0.64882  0.06212     O
H       0.1537    0.113   0.0689     H
H       0.1537    0.887   0.5689     H
O      0.15401  0.36285  0.83922     O
O      0.15401  0.63715  0.33922     O
C       0.1546  0.00349   0.1545     C
C       0.1546  0.99651   0.6545     C
C       0.1565   0.4037   0.9787     C
C       0.1565   0.5963   0.4787     C
C       0.1573  0.45194   0.2543     C
C       0.1573  0.54806   0.7543     C
H       0.1581   0.4499   0.1459     H
H       0.1581   0.5501   0.6459     H
H        0.164   0.1158   0.7204     H
H        0.164   0.8842   0.2204     H
C       0.1645   0.0164   0.8651     C
C       0.1645   0.9836   0.3651     C
C       0.1655   0.3076   0.9662     C
C       0.1655   0.6924   0.4662     C
H       0.1684   0.3914    0.184     H
H       0.1684   0.6086    0.684     H
H       0.1695   0.1531   0.6538     H
H       0.1695   0.8469   0.1538     H
C      0.17112  0.48828   0.7601     C
C      0.17112  0.51172   0.2601     C
N      0.17157  0.05265    0.139     N
N      0.17157  0.94735    0.639     N
H       0.1728   0.2198   0.8336     H
H       0.1728   0.7802   0.3336     H
C       0.1744   0.1519   0.7066     C
C       0.1744   0.8481   0.2066     C
C      0.17576  0.19378   0.2399     C
C      0.17576  0.80622   0.7399     C
C       0.1766   0.4303   0.1903     C
C       0.1766   0.5697   0.6903     C
C       0.1768   0.0395   0.3981     C
C       0.1768   0.9605   0.8981     C
H       0.1769   0.0165   0.6938     H
H       0.1769   0.9835   0.1938     H
H       0.1771   0.4378   0.9886     H
H       0.1771   0.5622   0.4886     H
H       0.1787   0.4371   0.3649     H
H       0.1787   0.5629   0.8649     H
H       0.1801   0.3834   0.3179     H
H       0.1801   0.6166   0.8179     H
O      0.18329  0.15638   0.1991     O
O      0.18329  0.84362   0.6991     O
O       0.1834  0.25812  0.66564     O
O       0.1834  0.74188  0.16564     O
H       0.1873   0.0072   0.4992     H
H       0.1873   0.9928   0.9992     H
C       0.1887   0.4223   0.3225     C
C       0.1887   0.5777   0.8225     C
H       0.1912   0.2774   0.9719     H
H       0.1912   0.7226   0.4719     H
C       0.1946   0.3566    0.965     C
C       0.1946   0.6434    0.465     C
C      0.19699  0.36695   0.8868     C
C      0.19699  0.63305   0.3868     C
H       0.1985   0.0359   0.8684     H
H       0.1985   0.9641   0.3684     H
H       0.2039   0.0701   0.5004     H
H       0.2039   0.9299   0.0004     H
O      0.20515  0.06241  0.29259     O
O      0.20515  0.93759  0.79259     O
C       0.2052    0.035   0.4767     C
C       0.2052    0.965   0.9767     C
O      0.20584  0.36854  0.71938     O
O      0.20584  0.63146  0.21938     O
O      0.20728  0.20576  0.29963     O
O      0.20728  0.79424  0.79963     O
C      0.21057   0.0736   0.3578     C
C      0.21057   0.9264   0.8578     C
H       0.2125   0.1588   0.7315     H
H       0.2125   0.8412   0.2315     H
H       0.2158   0.4358      0.2     H
H       0.2158   0.5642      0.7     H
Fe     0.21988  0.32734  0.64172    Fe
Co     0.21988  0.67266  0.14172    Co
O      0.22044  0.47616  0.78356     O
O      0.22044  0.52384  0.28356     O
H       0.2225   0.3385   0.4807     H
H       0.2225   0.6615   0.9807     H
H       0.2277   0.4274   0.3286     H
H       0.2277   0.5726   0.8286     H
H       0.2281   0.1633   0.9878     H
H       0.2281   0.8367   0.4878     H
C      0.23384   0.3018   0.4896     C
C      0.23384   0.6982   0.9896     C
N      0.23728  0.27981   0.5545     N
N      0.23728  0.72019   0.0545     N
O      0.23794  0.11235  0.39252     O
O      0.23794  0.88765  0.89252     O
Fe     0.23841  0.09484  0.21529    Fe
Co     0.23841  0.90516  0.71529    Co
H       0.2399   0.0994   0.9861     H
H       0.2399   0.9006   0.4861     H
H       0.2405   0.3604   0.0679     H
H       0.2405   0.6396   0.5679     H
O      0.24216  0.38046  0.87697     O
O      0.24216  0.61954  0.37697     O
H        0.243   0.0246   0.4822     H
H        0.243   0.9754   0.9822     H
H       0.2438   0.2885   0.3895     H
H       0.2438   0.7115   0.8895     H
C        0.246   0.3642   0.0192     C
C        0.246   0.6358   0.5192     C
C      0.24658   0.2719   0.4354     C
C      0.24658   0.7281   0.9354     C
C      0.25342   0.2281   0.5646     C
C      0.25342   0.7719   0.0646     C
C        0.254   0.1358   0.9808     C
C        0.254   0.8642   0.4808     C
H       0.2562   0.2115   0.6105     H
H       0.2562   0.7885   0.1105     H
H        0.257   0.4754   0.5178     H
H        0.257   0.5246   0.0178     H
O      0.25784  0.11954  0.12303     O
O      0.25784  0.88046  0.62303     O
H       0.2595   0.1396   0.9321     H
H       0.2595   0.8604   0.4321     H
H       0.2601   0.4006   0.0139     H
H       0.2601   0.5994   0.5139     H
Fe     0.26159  0.40516  0.78471    Fe
Co     0.26159  0.59484  0.28471    Co
O      0.26206  0.38765  0.60748     O
O      0.26206  0.61235  0.10748     O
N      0.26272  0.22019   0.4455     N
N      0.26272  0.77981   0.9455     N
C      0.26616   0.1982   0.5104     C
C      0.26616   0.8018   0.0104     C
H       0.2719   0.3367   0.0122     H
H       0.2719   0.6633   0.5122     H
H       0.2723   0.0726   0.6714     H
H       0.2723   0.9274   0.1714     H
H       0.2775   0.1615   0.5193     H
H       0.2775   0.8385   0.0193     H
O      0.27956  0.02384  0.21644     O
O      0.27956  0.97616  0.71644     O
Fe     0.28012  0.17266  0.35828    Fe
Co     0.28012  0.82734  0.85828    Co
H       0.2842   0.0642      0.8     H
H       0.2842   0.9358      0.3     H
H       0.2875   0.3412   0.2685     H
H       0.2875   0.6588   0.7685     H
C      0.28943   0.4264   0.6422     C
C      0.28943   0.5736   0.1422     C
O      0.29272  0.29424  0.70037     O
O      0.29272  0.70576  0.20037     O
O      0.29416  0.13146  0.28062     O
O      0.29416  0.86854  0.78062     O
C       0.2948    0.465   0.5233     C
C       0.2948    0.535   0.0233     C
O      0.29485  0.43759  0.70741     O
O      0.29485  0.56241  0.20741     O
H       0.2961   0.4299   0.4996     H
H       0.2961   0.5701   0.9996     H
H       0.3015   0.4641   0.1316     H
H       0.3015   0.5359   0.6316     H
C      0.30301  0.13305   0.1132     C
C      0.30301  0.86695   0.6132     C
C       0.3054   0.1434    0.035     C
C       0.3054   0.8566    0.535     C
H       0.3088   0.2226   0.0281     H
H       0.3088   0.7774   0.5281     H
C       0.3113   0.0777   0.6775     C
C       0.3113   0.9223   0.1775     C
H       0.3127   0.4928   0.5008     H
H       0.3127   0.5072   0.0008     H
O       0.3166  0.24188  0.33436     O
O       0.3166  0.75812  0.83436     O
O      0.31671  0.34362   0.8009     O
O      0.31671  0.65638   0.3009     O
H       0.3199   0.1166   0.6821     H
H       0.3199   0.8834   0.1821     H
H       0.3213   0.0629   0.6351     H
H       0.3213   0.9371   0.1351     H
H       0.3229   0.0622   0.0114     H
H       0.3229   0.9378   0.5114     H
H       0.3231   0.4835   0.3062     H
H       0.3231   0.5165   0.8062     H
C       0.3232   0.4605   0.6019     C
C       0.3232   0.5395   0.1019     C
C       0.3234   0.0697   0.8097     C
C       0.3234   0.9303   0.3097     C
C      0.32424  0.30622   0.7601     C
C      0.32424  0.69378   0.2601     C
C       0.3256   0.3481   0.2934     C
C       0.3256   0.6519   0.7934     C
H       0.3272   0.2802   0.1664     H
H       0.3272   0.7198   0.6664     H
N      0.32843  0.44735    0.861     N
N      0.32843  0.55265    0.361     N
C      0.32888  0.01172   0.2399     C
C      0.32888  0.98828   0.7399     C
H       0.3305   0.3469   0.3462     H
H       0.3305   0.6531   0.8462     H
H       0.3316   0.1086    0.816     H
H       0.3316   0.8914    0.316     H
C       0.3345   0.1924   0.0338     C
C       0.3345   0.8076   0.5338     C
C       0.3355   0.4836   0.1349     C
C       0.3355   0.5164   0.6349     C
H        0.336   0.3842   0.2796     H
H        0.336   0.6158   0.7796     H
H       0.3419   0.0501   0.8541     H
H       0.3419   0.9499   0.3541     H
C       0.3427  0.04806   0.7457     C
C       0.3427  0.95194   0.2457     C
C       0.3435   0.0963   0.0213     C
C       0.3435   0.9037   0.5213     C
C       0.3454  0.49651   0.8455     C
C       0.3454  0.50349   0.3455     C
O      0.34599  0.13715  0.16078     O
O      0.34599  0.86285  0.66078     O
H       0.3463    0.387   0.9311     H
H       0.3463    0.613   0.4311     H
O       0.3473  0.14882  0.43788     O
O       0.3473  0.85118  0.93788     O
H       0.3491   0.3414   0.1705     H
H       0.3491   0.6586   0.6705     H
C      0.35004  0.24818  0.29783     C
C      0.35004  0.75182  0.79783     C
H       0.3504   0.2109   0.8386     H
H       0.3504   0.7891   0.3386     H
H       0.3515   0.1926   0.9933     H
H       0.3515   0.8074   0.4933     H
H       0.3557   0.4871   0.1861     H
H       0.3557   0.5129   0.6861     H
C       0.3564   0.3048    0.191     C
C       0.3564   0.6952    0.691     C
H       0.3572   0.1056   0.9794     H
H       0.3572   0.8944   0.4794     H
H       0.3573   0.4633   0.1085     H
H       0.3573   0.5367   0.6085     H
H       0.3578   0.2064   0.7172     H
H       0.3578   0.7936   0.2172     H
H       0.3583   0.2667   0.8836     H
H       0.3583   0.7333   0.3836     H
C      0.35887  0.42092  0.91794     C
C      0.35887  0.57908  0.41794     C
C       0.3597   0.3064   0.2723     C
C       0.3597   0.6936   0.7723     C
H       0.3625   0.1965   0.0799     H
H       0.3625   0.8035   0.5799     H
Fe     0.36541  0.12892  0.27114    Fe
Co     0.36541  0.87108  0.77114    Co
O      0.36667   0.0462  0.25934     O
O      0.36667   0.9538  0.75934     O
H       0.3682   0.3941   0.5874     H
H       0.3682   0.6059   0.0874     H
C       0.3734   0.2431   0.8523     C
C       0.3734   0.7569   0.3523     C
H       0.3737   0.0467   0.5035     H
H       0.3737   0.9533   0.0035     H
H        0.374   0.0918   0.0645     H
H        0.374   0.9082   0.5645     H
C       0.3756    0.273    0.787     C
C       0.3756    0.727    0.287     C
C       0.3758   0.4302   0.6097     C
C       0.3758   0.5698   0.1097     C
O      0.37717  0.21149  0.27865     O
O      0.37717  0.78851  0.77865     O
H       0.3833   0.2561   0.6832     H
H       0.3833   0.7439   0.1832     H
H        0.385   0.1394   0.5707     H
H        0.385   0.8606   0.0707     H
C       0.3854    0.235   0.7275     C
C       0.3854    0.765   0.2275     C
H       0.3909   0.2916   0.1842     H
H       0.3909   0.7084   0.6842     H
C      0.39128  0.12732    0.435     C
C      0.39128  0.87268    0.935     C
C      0.39375   0.4807    0.384     C
C      0.39375   0.5193    0.884     C
H       0.3944   0.4262   0.6614     H
H       0.3944   0.5738   0.1614     H
H       0.3989   0.4506   0.5853     H
H       0.3989   0.5494   0.0853     H
C       0.4026   0.0574    0.755     C
C       0.4026   0.9426    0.255     C
H       0.4039   0.4455   0.3715     H
H       0.4039   0.5545   0.8715     H
O      0.40476  0.11803  0.37754     O
O      0.40476  0.88197  0.87754     O
C      0.40847   0.4408   0.9593     C
C      0.40847   0.5592   0.4593     C
H       0.4101   0.2318   0.8787     H
H       0.4101   0.7682   0.3787     H
H       0.4104   0.0965   0.7599     H
H       0.4104   0.9035   0.2599     H
H       0.4128   0.0433   0.7124     H
H       0.4128   0.9567   0.2124     H
C       0.4133   0.0491   0.5154     C
C       0.4133   0.9509   0.0154     C
C       0.4188   0.3191   0.3005     C
C       0.4188   0.6809   0.8005     C
H       0.4214   0.2184   0.7443     H
H       0.4214   0.7816   0.2443     H
H       0.4215   0.3361   0.7611     H
H       0.4215   0.6639   0.2611     H
H       0.4222   0.3357   0.8453     H
H       0.4222   0.6643   0.3453     H
C       0.4232   0.1399   0.5704     C
C       0.4232   0.8601   0.0704     C
H       0.4234   0.0385   0.7987     H
H       0.4234   0.9615   0.2987     H
C       0.4236    0.313   0.8036     C
C       0.4236    0.687   0.3036     C
H       0.4268   0.0254   0.4826     H
H       0.4268   0.9746   0.9826     H
C      0.42697   0.4912   0.9404     C
C      0.42697   0.5088   0.4404     C
H       0.4274   0.3253   0.3531     H
H       0.4274   0.6747   0.8531     H
H       0.4275   0.3518   0.2764     H
H       0.4275   0.6482   0.7764     H
H       0.4287   0.0375   0.5658     H
H       0.4287   0.9625   0.0658     H
H       0.4294   0.4207   0.9996     H
H       0.4294   0.5793   0.4996     H
C       0.4302   0.1086   0.5062     C
C       0.4302   0.8914   0.0062     C
H       0.4349   0.1777   0.5673     H
H       0.4349   0.8223   0.0673     H
H       0.4362   0.1895    0.187     H
H       0.4362   0.8105    0.687     H
H       0.4401   0.0599   0.1986     H
H       0.4401   0.9401   0.6986     H
H       0.4402   0.2884   0.2904     H
H       0.4402   0.7116   0.7904     H
H       0.4452   0.1233   0.6152     H
H       0.4452   0.8767   0.1152     H
N      0.44794  0.12645  0.25842     N
N      0.44794  0.87355  0.75842     N
H       0.4577   0.2925   0.8151     H
H       0.4577   0.7075   0.3151     H
C      0.46202  0.16255  0.21278     C
C      0.46202  0.83745  0.71278     C
C      0.46311  0.09091  0.21459     C
C      0.46311  0.90909  0.71459     C
H       0.4759   0.0541   0.3161     H
H       0.4759   0.9459   0.8161     H
H        0.476     0.18   0.3374     H
H        0.476     0.82   0.8374     H
C      0.48001   0.4865   0.4791     C
C      0.48001   0.5135   0.9791     C
C       0.4841    0.091    0.293     C
C       0.4841    0.909    0.793     C
C      0.48494  0.16247  0.29489     C
C      0.48494  0.83753  0.79489     C
H       0.4856   0.4488    0.473     H
H       0.4856   0.5512    0.973     H
C       0.4876   0.1107   0.5007     C
C       0.4876   0.8893   0.0007     C
H       0.4884   0.0939    0.956     H
H       0.4884   0.9061    0.456     H
H       0.4905   0.0909   0.4572     H
H       0.4905   0.9091   0.9572     H
H       0.4983   0.1488   0.4973     H
H       0.4983   0.8512   0.9973     H
H       0.5017   0.1488   0.0027     H
H       0.5017   0.8512   0.5027     H
H       0.5095   0.0909   0.0428     H
H       0.5095   0.9091   0.5428     H
H       0.5116   0.0939    0.544     H
H       0.5116   0.9061    0.044     H
C       0.5124   0.1107   0.9993     C
C       0.5124   0.8893   0.4993     C
H       0.5144   0.4488    0.027     H
H       0.5144   0.5512    0.527     H
C      0.51506  0.16247  0.20511     C
C      0.51506  0.83753  0.70511     C
C       0.5159    0.091    0.207     C
C       0.5159    0.909    0.707     C
C      0.51999   0.4865   0.0209     C
C      0.51999   0.5135   0.5209     C
H        0.524     0.18   0.1626     H
H        0.524     0.82   0.6626     H
H       0.5241   0.0541   0.1839     H
H       0.5241   0.9459   0.6839     H
C      0.53689  0.09091  0.28541     C
C      0.53689  0.90909  0.78541     C
C      0.53798  0.16255  0.28722     C
C      0.53798  0.83745  0.78722     C
H       0.5423   0.2925   0.6849     H
H       0.5423   0.7075   0.1849     H
N      0.55206  0.12645  0.24158     N
N      0.55206  0.87355  0.74158     N
H       0.5548   0.1233   0.8848     H
H       0.5548   0.8767   0.3848     H
H       0.5598   0.2884   0.2096     H
H       0.5598   0.7116   0.7096     H
H       0.5599   0.0599   0.3014     H
H       0.5599   0.9401   0.8014     H
H       0.5638   0.1895    0.313     H
H       0.5638   0.8105    0.813     H
H       0.5651   0.1777   0.9327     H
H       0.5651   0.8223   0.4327     H
C       0.5698   0.1086   0.9938     C
C       0.5698   0.8914   0.4938     C
H       0.5706   0.4207   0.5004     H
H       0.5706   0.5793   0.0004     H
H       0.5713   0.0375   0.9342     H
H       0.5713   0.9625   0.4342     H
H       0.5725   0.3518   0.2236     H
H       0.5725   0.6482   0.7236     H
H       0.5726   0.3253   0.1469     H
H       0.5726   0.6747   0.6469     H
C      0.57303   0.4912   0.5596     C
C      0.57303   0.5088   0.0596     C
H       0.5732   0.0254   0.0174     H
H       0.5732   0.9746   0.5174     H
C       0.5764    0.313   0.6964     C
C       0.5764    0.687   0.1964     C
H       0.5766   0.0385   0.7013     H
H       0.5766   0.9615   0.2013     H
C       0.5768   0.1399   0.9296     C
C       0.5768   0.8601   0.4296     C
H       0.5778   0.3357   0.6547     H
H       0.5778   0.6643   0.1547     H
H       0.5785   0.3361   0.7389     H
H       0.5785   0.6639   0.2389     H
H       0.5786   0.2184   0.7557     H
H       0.5786   0.7816   0.2557     H
C       0.5812   0.3191   0.1995     C
C       0.5812   0.6809   0.6995     C
C       0.5867   0.0491   0.9846     C
C       0.5867   0.9509   0.4846     C
H       0.5872   0.0433   0.7876     H
H       0.5872   0.9567   0.2876     H
H       0.5896   0.0965   0.7401     H
H       0.5896   0.9035   0.2401     H
H       0.5899   0.2318   0.6213     H
H       0.5899   0.7682   0.1213     H
C      0.59153   0.4408   0.5407     C
C      0.59153   0.5592   0.0407     C
O      0.59524  0.11803  0.12246     O
O      0.59524  0.88197  0.62246     O
H       0.5961   0.4455   0.1285     H
H       0.5961   0.5545   0.6285     H
C       0.5974   0.0574    0.745     C
C       0.5974   0.9426    0.245     C
H       0.6011   0.4506   0.9147     H
H       0.6011   0.5494   0.4147     H
H       0.6056   0.4262   0.8386     H
H       0.6056   0.5738   0.3386     H
C      0.60625   0.4807    0.116     C
C      0.60625   0.5193    0.616     C
C      0.60872  0.12732    0.065     C
C      0.60872  0.87268    0.565     C
H       0.6091   0.2916   0.3158     H
H       0.6091   0.7084   0.8158     H
C       0.6146    0.235   0.7725     C
C       0.6146    0.765   0.2725     C
H        0.615   0.1394   0.9293     H
H        0.615   0.8606   0.4293     H
H       0.6167   0.2561   0.8168     H
H       0.6167   0.7439   0.3168     H
O      0.62283  0.21149  0.22135     O
O      0.62283  0.78851  0.72135     O
C       0.6242   0.4302   0.8903     C
C       0.6242   0.5698   0.3903     C
C       0.6244    0.273    0.713     C
C       0.6244    0.727    0.213     C
H        0.626   0.0918   0.4355     H
H        0.626   0.9082   0.9355     H
H       0.6263   0.0467   0.9965     H
H       0.6263   0.9533   0.4965     H
C       0.6266   0.2431   0.6477     C
C       0.6266   0.7569   0.1477     C
H       0.6318   0.3941   0.9126     H
H       0.6318   0.6059   0.4126     H
O      0.63333   0.0462  0.24066     O
O      0.63333   0.9538  0.74066     O
Co     0.63459  0.12892  0.22886    Co
Fe     0.63459  0.87108  0.72886    Fe
H       0.6375   0.1965   0.4201     H
H       0.6375   0.8035   0.9201     H
C       0.6403   0.3064   0.2277     C
C       0.6403   0.6936   0.7277     C
C      0.64113  0.42092  0.58206     C
C      0.64113  0.57908  0.08206     C
H       0.6417   0.2667   0.6164     H
H       0.6417   0.7333   0.1164     H
H       0.6422   0.2064   0.7828     H
H       0.6422   0.7936   0.2828     H
H       0.6427   0.4633   0.3915     H
H       0.6427   0.5367   0.8915     H
H       0.6428   0.1056   0.5206     H
H       0.6428   0.8944   0.0206     H
C       0.6436   0.3048    0.309     C
C       0.6436   0.6952    0.809     C
H       0.6443   0.4871   0.3139     H
H       0.6443   0.5129   0.8139     H
H       0.6485   0.1926   0.5067     H
H       0.6485   0.8074   0.0067     H
H       0.6496   0.2109   0.6614     H
H       0.6496   0.7891   0.1614     H
C      0.64996  0.24818  0.20217     C
C      0.64996  0.75182  0.70217     C
H       0.6509   0.3414   0.3295     H
H       0.6509   0.6586   0.8295     H
O       0.6527  0.14882  0.06212     O
O       0.6527  0.85118  0.56212     O
H       0.6537    0.387   0.5689     H
H       0.6537    0.613   0.0689     H
O      0.65401  0.13715  0.33922     O
O      0.65401  0.86285  0.83922     O
C       0.6546  0.49651   0.6545     C
C       0.6546  0.50349   0.1545     C
C       0.6565   0.0963   0.4787     C
C       0.6565   0.9037   0.9787     C
C       0.6573  0.04806   0.7543     C
C       0.6573  0.95194   0.2543     C
H       0.6581   0.0501   0.6459     H
H       0.6581   0.9499   0.1459     H
H        0.664   0.3842   0.2204     H
H        0.664   0.6158   0.7204     H
C       0.6645   0.4836   0.3651     C
C       0.6645   0.5164   0.8651     C
C       0.6655   0.1924   0.4662     C
C       0.6655   0.8076   0.9662     C
H       0.6684   0.1086    0.684     H
H       0.6684   0.8914    0.184     H
H       0.6695   0.3469   0.1538     H
H       0.6695   0.6531   0.6538     H
C      0.67112  0.01172   0.2601     C
C      0.67112  0.98828   0.7601     C
N      0.67157  0.44735    0.639     N
N      0.67157  0.55265    0.139     N
H       0.6728   0.2802   0.3336     H
H       0.6728   0.7198   0.8336     H
C       0.6744   0.3481   0.2066     C
C       0.6744   0.6519   0.7066     C
C      0.67576  0.30622   0.7399     C
C      0.67576  0.69378   0.2399     C
C       0.6766   0.0697   0.6903     C
C       0.6766   0.9303   0.1903     C
C       0.6768   0.4605   0.8981     C
C       0.6768   0.5395   0.3981     C
H       0.6769   0.4835   0.1938     H
H       0.6769   0.5165   0.6938     H
H       0.6771   0.0622   0.4886     H
H       0.6771   0.9378   0.9886     H
H       0.6787   0.0629   0.8649     H
H       0.6787   0.9371   0.3649     H
H       0.6801   0.1166   0.8179     H
H       0.6801   0.8834   0.3179     H
O      0.68329  0.34362   0.6991     O
O      0.68329  0.65638   0.1991     O
O       0.6834  0.24188  0.16564     O
O       0.6834  0.75812  0.66564     O
H       0.6873   0.4928   0.9992     H
H       0.6873   0.5072   0.4992     H
C       0.6887   0.0777   0.8225     C
C       0.6887   0.9223   0.3225     C
H       0.6912   0.2226   0.4719     H
H       0.6912   0.7774   0.9719     H
C       0.6946   0.1434    0.465     C
C       0.6946   0.8566    0.965     C
C      0.69699  0.13305   0.3868     C
C      0.69699  0.86695   0.8868     C
H       0.6985   0.4641   0.3684     H
H       0.6985   0.5359   0.8684     H
H       0.7039   0.4299   0.0004     H
H       0.7039   0.5701   0.5004     H
O      0.70515  0.43759  0.79259     O
O      0.70515  0.56241  0.29259     O
C       0.7052    0.465   0.9767     C
C       0.7052    0.535   0.4767     C
O      0.70584  0.13146  0.21938     O
O      0.70584  0.86854  0.71938     O
O      0.70728  0.29424  0.79963     O
O      0.70728  0.70576  0.29963     O
C      0.71057   0.4264   0.8578     C
C      0.71057   0.5736   0.3578     C
H       0.7125   0.3412   0.2315     H
H       0.7125   0.6588   0.7315     H
H       0.7158   0.0642      0.7     H
H       0.7158   0.9358      0.2     H
Co     0.71988  0.17266  0.14172    Co
Fe     0.71988  0.82734  0.64172    Fe
O      0.72044  0.02384  0.28356     O
O      0.72044  0.97616  0.78356     O
H       0.7225   0.1615   0.9807     H
H       0.7225   0.8385   0.4807     H
H       0.7277   0.0726   0.8286     H
H       0.7277   0.9274   0.3286     H
H       0.7281   0.3367   0.4878     H
H       0.7281   0.6633   0.9878     H
C      0.73384   0.1982   0.9896     C
C      0.73384   0.8018   0.4896     C
N      0.73728  0.22019   0.0545     N
N      0.73728  0.77981   0.5545     N
O      0.73794  0.38765  0.89252     O
O      0.73794  0.61235  0.39252     O
Co     0.73841  0.40516  0.71529    Co
Fe     0.73841  0.59484  0.21529    Fe
H       0.7399   0.4006   0.4861     H
H       0.7399   0.5994   0.9861     H
H       0.7405   0.1396   0.5679     H
H       0.7405   0.8604   0.0679     H
O      0.74216  0.11954  0.37697     O
O      0.74216  0.88046  0.87697     O
H        0.743   0.4754   0.9822     H
H        0.743   0.5246   0.4822     H
H       0.7438   0.2115   0.8895     H
H       0.7438   0.7885   0.3895     H
C        0.746   0.1358   0.5192     C
C        0.746   0.8642   0.0192     C
C      0.74658   0.2281   0.9354     C
C      0.74658   0.7719   0.4354     C
C      0.75342   0.2719   0.0646     C
C      0.75342   0.7281   0.5646     C
C        0.754   0.3642   0.4808     C
C        0.754   0.6358   0.9808     C
H       0.7562   0.2885   0.1105     H
H       0.7562   0.7115   0.6105     H
H        0.757   0.0246   0.0178     H
H        0.757   0.9754   0.5178     H
O      0.75784  0.38046  0.62303     O
O      0.75784  0.61954  0.12303     O
H       0.7595   0.3604   0.4321     H
H       0.7595   0.6396   0.9321     H
H       0.7601   0.0994   0.5139     H
H       0.7601   0.9006   0.0139     H
Co     0.76159  0.09484  0.28471    Co
Fe     0.76159  0.90516  0.78471    Fe
O      0.76206  0.11235  0.10748     O
O      0.76206  0.88765  0.60748     O
N      0.76272  0.27981   0.9455     N
N      0.76272  0.72019   0.4455     N
C      0.76616   0.3018   0.0104     C
C      0.76616   0.6982   0.5104     C
H       0.7719   0.1633   0.5122     H
H       0.7719   0.8367   0.0122     H
H       0.7723   0.4274   0.1714     H
H       0.7723   0.5726   0.6714     H
H       0.7775   0.3385   0.0193     H
H       0.7775   0.6615   0.5193     H
O      0.77956  0.47616  0.71644     O
O      0.77956  0.52384  0.21644     O
Co     0.78012  0.32734  0.85828    Co
Fe     0.78012  0.67266  0.35828    Fe
H       0.7842   0.4358      0.3     H
H       0.7842   0.5642      0.8     H
H       0.7875   0.1588   0.7685     H
H       0.7875   0.8412   0.2685     H
C      0.78943   0.0736   0.1422     C
C      0.78943   0.9264   0.6422     C
O      0.79272  0.20576  0.20037     O
O      0.79272  0.79424  0.70037     O
O      0.79416  0.36854  0.78062     O
O      0.79416  0.63146  0.28062     O
C       0.7948    0.035   0.0233     C
C       0.7948    0.965   0.5233     C
O      0.79485  0.06241  0.20741     O
O      0.79485  0.93759  0.70741     O
H       0.7961   0.0701   0.9996     H
H       0.7961   0.9299   0.4996     H
H       0.8015   0.0359   0.6316     H
H       0.8015   0.9641   0.1316     H
C      0.80301  0.36695   0.6132     C
C      0.80301  0.63305   0.1132     C
C       0.8054   0.3566    0.535     C
C       0.8054   0.6434    0.035     C
H       0.8088   0.2774   0.5281     H
H       0.8088   0.7226   0.0281     H
C       0.8113   0.4223   0.1775     C
C       0.8113   0.5777   0.6775     C
H       0.8127   0.0072   0.0008     H
H       0.8127   0.9928   0.5008     H
O       0.8166  0.25812  0.83436     O
O       0.8166  0.74188  0.33436     O
O      0.81671  0.15638   0.3009     O
O      0.81671  0.84362   0.8009     O
H       0.8199   0.3834   0.1821     H
H       0.8199   0.6166   0.6821     H
H       0.8213   0.4371   0.1351     H
H       0.8213   0.5629   0.6351     H
H       0.8229   0.4378   0.5114     H
H       0.8229   0.5622   0.0114     H
H       0.8231   0.0165   0.8062     H
H       0.8231   0.9835   0.3062     H
C       0.8232   0.0395   0.1019     C
C       0.8232   0.9605   0.6019     C
C       0.8234   0.4303   0.3097     C
C       0.8234   0.5697   0.8097     C
C      0.82424  0.19378   0.2601     C
C      0.82424  0.80622   0.7601     C
C       0.8256   0.1519   0.7934     C
C       0.8256   0.8481   0.2934     C
H       0.8272   0.2198   0.6664     H
H       0.8272   0.7802   0.1664     H
N      0.82843  0.05265    0.361     N
N      0.82843  0.94735    0.861     N
C      0.82888  0.48828   0.7399     C
C      0.82888  0.51172   0.2399     C
H       0.8305   0.1531   0.8462     H
H       0.8305   0.8469   0.3462     H
H       0.8316   0.3914    0.316     H
H       0.8316   0.6086    0.816     H
C       0.8345   0.3076   0.5338     C
C       0.8345   0.6924   0.0338     C
C       0.8355   0.0164   0.6349     C
C       0.8355   0.9836   0.1349     C
H        0.836   0.1158   0.7796     H
H        0.836   0.8842   0.2796     H
H       0.8419   0.4499   0.3541     H
H       0.8419   0.5501   0.8541     H
C       0.8427  0.45194   0.2457     C
C       0.8427  0.54806   0.7457     C
C       0.8435   0.4037   0.5213     C
C       0.8435   0.5963   0.0213     C
C       0.8454  0.00349   0.3455     C
C       0.8454  0.99651   0.8455     C
O      0.84599  0.36285  0.66078     O
O      0.84599  0.63715  0.16078     O
H       0.8463    0.113   0.4311     H
H       0.8463    0.887   0.9311     H
O       0.8473  0.35118  0.93788     O
O       0.8473  0.64882  0.43788     O
H       0.8491   0.1586   0.6705     H
H       0.8491   0.8414   0.1705     H
C      0.85004  0.25182  0.79783     C
C      0.85004  0.74818  0.29783     C
H       0.8504   0.2891   0.3386     H
H       0.8504   0.7109   0.8386     H
H       0.8515   0.3074   0.4933     H
H       0.8515   0.6926   0.9933     H
H       0.8557   0.0129   0.6861     H
H       0.8557   0.9871   0.1861     H
C       0.8564   0.1952    0.691     C
C       0.8564   0.8048    0.191     C
H       0.8572   0.3944   0.4794     H
H       0.8572   0.6056   0.9794     H
H       0.8573   0.0367   0.6085     H
H       0.8573   0.9633   0.1085     H
H       0.8578   0.2936   0.2172     H
H       0.8578   0.7064   0.7172     H
H       0.8583   0.2333   0.3836     H
H       0.8583   0.7667   0.8836     H
C      0.85887  0.07908  0.41794     C
C      0.85887  0.92092  0.91794     C
C       0.8597   0.1936   0.7723     C
C       0.8597   0.8064   0.2723     C
H       0.8625   0.3035   0.5799     H
H       0.8625   0.6965   0.0799     H
Co     0.86541  0.37108  0.77114    Co
Fe     0.86541  0.62892  0.27114    Fe
O      0.86667   0.4538  0.75934     O
O      0.86667   0.5462  0.25934     O
H       0.8682   0.1059   0.0874     H
H       0.8682   0.8941   0.5874     H
C       0.8734   0.2569   0.3523     C
C       0.8734   0.7431   0.8523     C
H       0.8737   0.4533   0.0035     H
H       0.8737   0.5467   0.5035     H
H        0.874   0.4082   0.5645     H
H        0.874   0.5918   0.0645     H
C       0.8756    0.227    0.287     C
C       0.8756    0.773    0.787     C
C       0.8758   0.0698   0.1097     C
C       0.8758   0.9302   0.6097     C
O      0.87717  0.28851  0.77865     O
O      0.87717  0.71149  0.27865     O
H       0.8833   0.2439   0.1832     H
H       0.8833   0.7561   0.6832     H
H        0.885   0.3606   0.0707     H
H        0.885   0.6394   0.5707     H
C       0.8854    0.265   0.2275     C
C       0.8854    0.735   0.7275     C
H       0.8909   0.2084   0.6842     H
H       0.8909   0.7916   0.1842     H
C      0.89128  0.37268    0.935     C
C      0.89128  0.62732    0.435     C
C      0.89375   0.0193    0.884     C
C      0.89375   0.9807    0.384     C
H       0.8944   0.0738   0.1614     H
H       0.8944   0.9262   0.6614     H
H       0.8989   0.0494   0.0853     H
H       0.8989   0.9506   0.5853     H
C       0.9026   0.4426    0.255     C
C       0.9026   0.5574    0.755     C
H       0.9039   0.0545   0.8715     H
H       0.9039   0.9455   0.3715     H
O      0.90476  0.38197  0.87754     O
O      0.90476  0.61803  0.37754     O
C      0.90847   0.0592   0.4593     C
C      0.90847   0.9408   0.9593     C
H       0.9101   0.2682   0.3787     H
H       0.9101   0.7318   0.8787     H
H       0.9104   0.4035   0.2599     H
H       0.9104   0.5965   0.7599     H
H       0.9128   0.4567   0.2124     H
H       0.9128   0.5433   0.7124     H
C       0.9133   0.4509   0.0154     C
C       0.9133   0.5491   0.5154     C
C       0.9188   0.1809   0.8005     C
C       0.9188   0.8191   0.3005     C
H       0.9214   0.2816   0.2443     H
H       0.9214   0.7184   0.7443     H
H       0.9215   0.1639   0.2611     H
H       0.9215   0.8361   0.7611     H
H       0.9222   0.1643   0.3453     H
H       0.9222   0.8357   0.8453     H
C       0.9232   0.3601   0.0704     C
C       0.9232   0.6399   0.5704     C
H       0.9234   0.4615   0.2987     H
H       0.9234   0.5385   0.7987     H
C       0.9236    0.187   0.3036     C
C       0.9236    0.813   0.8036     C
H       0.9268   0.4746   0.9826     H
H       0.9268   0.5254   0.4826     H
C      0.92697   0.0088   0.4404     C
C      0.92697   0.9912   0.9404     C
H       0.9274   0.1747   0.8531     H
H       0.9274   0.8253   0.3531     H
H       0.9275   0.1482   0.7764     H
H       0.9275   0.8518   0.2764     H
H       0.9287   0.4625   0.0658     H
H       0.9287   0.5375   0.5658     H
H       0.9294   0.0793   0.4996     H
H       0.9294   0.9207   0.9996     H
C       0.9302   0.3914   0.0062     C
C       0.9302   0.6086   0.5062     C
H       0.9349   0.3223   0.0673     H
H       0.9349   0.6777   0.5673     H
H       0.9362   0.3105    0.687     H
H       0.9362   0.6895    0.187     H
H       0.9401   0.4401   0.6986     H
H       0.9401   0.5599   0.1986     H
H       0.9402   0.2116   0.7904     H
H       0.9402   0.7884   0.2904     H
H       0.9452   0.3767   0.1152     H
H       0.9452   0.6233   0.6152     H
N      0.94794  0.37355  0.75842     N
N      0.94794  0.62645  0.25842     N
H       0.9577   0.2075   0.3151     H
H       0.9577   0.7925   0.8151     H
C      0.96202  0.33745  0.71278     C
C      0.96202  0.66255  0.21278     C
C      0.96311  0.40909  0.71459     C
C      0.96311  0.59091  0.21459     C
H       0.9759   0.4459   0.8161     H
H       0.9759   0.5541   0.3161     H
H        0.976     0.32   0.8374     H
H        0.976     0.68   0.3374     H
C      0.98001   0.0135   0.9791     C
C      0.98001   0.9865   0.4791     C
C       0.9841    0.409    0.793     C
C       0.9841    0.591    0.293     C
C      0.98494  0.33753  0.79489     C
C      0.98494  0.66247  0.29489     C
H       0.9856   0.0512    0.973     H
H       0.9856   0.9488    0.473     H
C       0.9876   0.3893   0.0007     C
C       0.9876   0.6107   0.5007     C
H       0.9884   0.4061    0.456     H
H       0.9884   0.5939    0.956     H
H       0.9905   0.4091   0.9572     H
H       0.9905   0.5909   0.4572     H
H       0.9983   0.3512   0.9973     H
H       0.9983   0.6488   0.4973     H
