data_I
_chemical_name_common  '/home/zhangsd/repos/MofS-CGCNN/ML/data/TSD/clean_cifs/YOTXOW_clean'
_cell_length_a 37.13300
_cell_length_b 11.52780
_cell_length_c  6.51550
_cell_angle_alpha 90.00000
_cell_angle_beta  109.26600
_cell_angle_gamma 90.00000
_space_group_name_H-M_alt      'P 1'


loop_
_space_group_symop_operation_xyz
  'x, y, z' 

loop_
_atom_site_label
_atom_site_fract_x
_atom_site_fract_y
_atom_site_fract_z
_atom_site_type_symbol
Al         0.0      0.0      0.0    Al
Al         0.0      0.0      0.5    Al
O          0.0    0.076     0.75     O
O          0.0    0.924     0.25     O
O       0.0348   0.1247    0.128     O
O       0.0348   0.8753    0.628     O
O       0.0423   0.0939    0.495     O
O       0.0423   0.9061    0.995     O
C       0.0527    0.131    0.336     C
C       0.0527    0.869    0.836     C
C       0.0928    0.185     0.41     C
C       0.0928    0.815     0.91     C
C       0.1028    0.256    0.265     C
C       0.1028    0.744    0.765     C
C        0.121    0.128    0.581     C
C        0.121    0.872    0.081     C
O       0.1359   0.4508    0.091     O
O       0.1359   0.5492    0.591     O
C       0.1417    0.296    0.326     C
C       0.1417    0.704    0.826     C
C       0.1585    0.401    0.252     C
C       0.1585    0.599    0.752     C
C       0.1594    0.158    0.621     C
C       0.1594    0.842    0.121     C
N       0.1666    0.248    0.502     N
N       0.1666    0.752    0.002     N
O       0.1941   0.3948    0.354     O
O       0.1941   0.6052    0.854     O
C        0.195    0.113    0.798     C
C        0.195    0.887    0.298     C
O       0.1959    0.027    0.919     O
O       0.1959    0.973    0.419     O
Al      0.2209   0.2837    0.571    Al
Al      0.2209   0.7163    0.071    Al
O       0.2268   0.1698     0.81     O
O       0.2268   0.8302     0.31     O
O       0.2295   0.1784    0.382     O
O       0.2295   0.8216    0.882     O
O       0.2705   0.3216    0.618     O
O       0.2705   0.6784    0.118     O
O       0.2732   0.3302     0.19     O
O       0.2732   0.6698     0.69     O
Al      0.2791   0.2163    0.429    Al
Al      0.2791   0.7837    0.929    Al
O       0.3041    0.473    0.081     O
O       0.3041    0.527    0.581     O
C        0.305    0.387    0.202     C
C        0.305    0.613    0.702     C
O       0.3059   0.1052    0.646     O
O       0.3059   0.8948    0.146     O
N       0.3334    0.252    0.498     N
N       0.3334    0.748    0.998     N
C       0.3406    0.342    0.379     C
C       0.3406    0.658    0.879     C
C       0.3415    0.099    0.748     C
C       0.3415    0.901    0.248     C
C       0.3583    0.204    0.674     C
C       0.3583    0.796    0.174     C
O       0.3641   0.0492    0.909     O
O       0.3641   0.9508    0.409     O
C        0.379    0.372    0.419     C
C        0.379    0.628    0.919     C
C       0.3972    0.244    0.735     C
C       0.3972    0.756    0.235     C
C       0.4072    0.315     0.59     C
C       0.4072    0.685     0.09     C
C       0.4473    0.369    0.664     C
C       0.4473    0.631    0.164     C
O       0.4577   0.4061    0.505     O
O       0.4577   0.5939    0.005     O
O       0.4652   0.3753    0.872     O
O       0.4652   0.6247    0.372     O
O          0.5    0.424     0.25     O
Al         0.5      0.5      0.0    Al
Al         0.5      0.5      0.5    Al
O          0.5    0.576     0.75     O
O       0.5348   0.3753    0.628     O
O       0.5348   0.6247    0.128     O
O       0.5423   0.4061    0.995     O
O       0.5423   0.5939    0.495     O
C       0.5527    0.369    0.836     C
C       0.5527    0.631    0.336     C
C       0.5928    0.315     0.91     C
C       0.5928    0.685     0.41     C
C       0.6028    0.244    0.765     C
C       0.6028    0.756    0.265     C
C        0.621    0.372    0.081     C
C        0.621    0.628    0.581     C
O       0.6359   0.0492    0.591     O
O       0.6359   0.9508    0.091     O
C       0.6417    0.204    0.826     C
C       0.6417    0.796    0.326     C
C       0.6585    0.099    0.752     C
C       0.6585    0.901    0.252     C
C       0.6594    0.342    0.121     C
C       0.6594    0.658    0.621     C
N       0.6666    0.252    0.002     N
N       0.6666    0.748    0.502     N
O       0.6941   0.1052    0.854     O
O       0.6941   0.8948    0.354     O
C        0.695    0.387    0.298     C
C        0.695    0.613    0.798     C
O       0.6959    0.473    0.419     O
O       0.6959    0.527    0.919     O
Al      0.7209   0.2163    0.071    Al
Al      0.7209   0.7837    0.571    Al
O       0.7268   0.3302     0.31     O
O       0.7268   0.6698     0.81     O
O       0.7295   0.3216    0.882     O
O       0.7295   0.6784    0.382     O
O       0.7705   0.1784    0.118     O
O       0.7705   0.8216    0.618     O
O       0.7732   0.1698     0.69     O
O       0.7732   0.8302     0.19     O
Al      0.7791   0.2837    0.929    Al
Al      0.7791   0.7163    0.429    Al
O       0.8041    0.027    0.581     O
O       0.8041    0.973    0.081     O
C        0.805    0.113    0.702     C
C        0.805    0.887    0.202     C
O       0.8059   0.3948    0.146     O
O       0.8059   0.6052    0.646     O
N       0.8334    0.248    0.998     N
N       0.8334    0.752    0.498     N
C       0.8406    0.158    0.879     C
C       0.8406    0.842    0.379     C
C       0.8415    0.401    0.248     C
C       0.8415    0.599    0.748     C
C       0.8583    0.296    0.174     C
C       0.8583    0.704    0.674     C
O       0.8641   0.4508    0.409     O
O       0.8641   0.5492    0.909     O
C        0.879    0.128    0.919     C
C        0.879    0.872    0.419     C
C       0.8972    0.256    0.235     C
C       0.8972    0.744    0.735     C
C       0.9072    0.185     0.09     C
C       0.9072    0.815     0.59     C
C       0.9473    0.131    0.164     C
C       0.9473    0.869    0.664     C
O       0.9577   0.0939    0.005     O
O       0.9577   0.9061    0.505     O
O       0.9652   0.1247    0.372     O
O       0.9652   0.8753    0.872     O
