data_I
_chemical_name_common  '/home/zhangsd/repos/MofS-CGCNN/ML/data/TSD/clean_cifs/YOYPAF_clean'
_cell_length_a 16.87000
_cell_length_b 16.87000
_cell_length_c 13.88600
_cell_angle_alpha 90.00000
_cell_angle_beta  90.00000
_cell_angle_gamma 120.00000
_space_group_name_H-M_alt      'P 1'


loop_
_space_group_symop_operation_xyz
  'x, y, z' 

loop_
_atom_site_label
_atom_site_fract_x
_atom_site_fract_y
_atom_site_fract_z
_atom_site_type_symbol
H       0.0055   0.2289   0.4592     H
H       0.0055   0.7766   0.0408     H
H       0.0165   0.3334   0.5752     H
H       0.0165   0.6831   0.9248     H
C       0.0306   0.3404   0.0302     C
C       0.0306   0.6902   0.4698     C
C        0.034   0.4925   0.6683     C
C        0.034   0.5415   0.8317     C
C       0.0381   0.2853   0.9613     C
C       0.0381   0.7528   0.5387     C
C       0.0601   0.5053   0.1695     C
C       0.0601   0.5548   0.3305     C
H       0.0656   0.4923   0.6136     H
H       0.0656   0.5733   0.8864     H
C       0.0813  0.54065     0.75     C
C        0.097   0.4327   0.0286     C
C        0.097   0.6643   0.4714     C
C       0.1077  0.55385     0.25     C
C       0.1101   0.3208   0.8947     C
C       0.1101   0.7893   0.6053     C
N       0.1112   0.5058   0.0866     N
N       0.1112   0.6054   0.4134     N
H       0.1121    0.282   0.8484     H
H       0.1121   0.8301   0.6516     H
H       0.1699    0.282   0.6516     H
H       0.1699   0.8879   0.8484     H
C       0.1709   0.4681   0.9642     C
C       0.1709   0.7028   0.5358     C
H       0.1714   0.5857     0.25     H
C       0.1785   0.4121   0.8958     C
C       0.1785   0.7664   0.6042     C
C       0.1847  0.59235     0.75     C
C       0.1904   0.5795   0.0558     C
C       0.1904   0.6109   0.4442     C
H       0.2076   0.4347   0.6473     H
H       0.2076   0.7729   0.8527     H
C       0.2107   0.3208   0.6053     C
C       0.2107   0.8899   0.8947     C
H       0.2154   0.5781   0.4164     H
H       0.2154   0.6373   0.0836     H
O       0.2228   0.5757    0.681     O
O       0.2228   0.6471    0.819     O
H       0.2234   0.2289   0.0408     H
H       0.2234   0.9945   0.4592     H
H       0.2271   0.4347   0.8527     H
H       0.2271   0.7924   0.6473     H
N       0.2281   0.5608   0.9827     N
N       0.2281   0.6673   0.5173     N
H       0.2289   0.0055   0.9592     H
H       0.2289   0.2234   0.5408     H
C       0.2336   0.4121   0.6042     C
C       0.2336   0.8215   0.8958     C
C       0.2472   0.2853   0.5387     C
C       0.2472   0.9619   0.9613     C
H        0.282   0.1121   0.3484     H
H        0.282   0.1699   0.1516     H
C       0.2853   0.0381   0.4613     C
C       0.2853   0.2472   0.0387     C
C       0.2972   0.4681   0.5358     C
C       0.2972   0.8291   0.9642     C
C       0.3098   0.3404   0.4698     C
C       0.3098   0.9694   0.0302     C
H       0.3169   0.3334   0.9248     H
H       0.3169   0.9835   0.5752     H
C       0.3208   0.1101   0.3947     C
C       0.3208   0.2107   0.1053     C
N       0.3327   0.5608   0.5173     N
N       0.3327   0.7719   0.9827     N
Ni     0.33333  0.66667   0.6026    Ni
Ni     0.33333  0.66667   0.8974    Ni
H       0.3334   0.0165   0.0752     H
H       0.3334   0.3169   0.4248     H
C       0.3357   0.4327   0.4714     C
C       0.3357    0.903   0.0286     C
C       0.3404   0.0306   0.5302     C
C       0.3404   0.3098   0.9698     C
O       0.3529   0.5757    0.819     O
O       0.3529   0.7772    0.681     O
H       0.3627   0.5781   0.0836     H
H       0.3627   0.7846   0.4164     H
C       0.3891   0.5795   0.4442     C
C       0.3891   0.8096   0.0558     C
N       0.3946   0.5058   0.4134     N
N       0.3946   0.8888   0.0866     N
C      0.40765  0.59235     0.75     C
C      0.40765   0.8153     0.75     C
C       0.4121   0.1785   0.3958     C
C       0.4121   0.2336   0.1042     C
H       0.4143   0.5857     0.25     H
H       0.4143   0.8286     0.25     H
C       0.4205   0.6109   0.0558     C
C       0.4205   0.8096   0.4442     C
H       0.4219   0.6373   0.4164     H
H       0.4219   0.7846   0.0836     H
O       0.4243   0.6471    0.681     O
O       0.4243   0.7772    0.819     O
H       0.4267   0.4923   0.8864     H
H       0.4267   0.9344   0.6136     H
C       0.4327    0.097   0.5286     C
C       0.4327   0.3357   0.9714     C
H       0.4347   0.2076   0.1473     H
H       0.4347   0.2271   0.3527     H
N       0.4392   0.6673   0.9827     N
N       0.4392   0.7719   0.5173     N
C       0.4452   0.5053   0.3305     C
C       0.4452   0.9399   0.1695     C
C      0.44615  0.55385     0.25     C
C      0.44615   0.8923     0.25     C
C       0.4585   0.4925   0.8317     C
C       0.4585    0.966   0.6683     C
C      0.45935  0.54065     0.75     C
C      0.45935   0.9187     0.75     C
C       0.4681   0.1709   0.4642     C
C       0.4681   0.2972   0.0358     C
H       0.4923   0.0656   0.1136     H
H       0.4923   0.4267   0.3864     H
C       0.4925    0.034   0.1683     C
C       0.4925   0.4585   0.3317     C
N       0.4942   0.6054   0.0866     N
N       0.4942   0.8888   0.4134     N
C       0.4947   0.5548   0.1695     C
C       0.4947   0.9399   0.3305     C
C       0.5053   0.0601   0.6695     C
C       0.5053   0.4452   0.8305     C
N       0.5058   0.1112   0.5866     N
N       0.5058   0.3946   0.9134     N
C       0.5075   0.5415   0.6683     C
C       0.5075    0.966   0.8317     C
H       0.5077   0.5733   0.6136     H
H       0.5077   0.9344   0.8864     H
C       0.5319   0.7028   0.9642     C
C       0.5319   0.8291   0.5358     C
C      0.54065   0.0813     0.25     C
C      0.54065  0.45935     0.25     C
C       0.5415    0.034   0.3317     C
C       0.5415   0.5075   0.1683     C
C      0.55385   0.1077     0.75     C
C      0.55385  0.44615     0.75     C
C       0.5548   0.0601   0.8305     C
C       0.5548   0.4947   0.6695     C
N       0.5608   0.2281   0.4827     N
N       0.5608   0.3327   0.0173     N
H       0.5653   0.7729   0.6473     H
H       0.5653   0.7924   0.8527     H
C       0.5673   0.6643   0.0286     C
C       0.5673    0.903   0.4714     C
H       0.5733   0.0656   0.3864     H
H       0.5733   0.5077   0.1136     H
O       0.5757   0.2228    0.181     O
O       0.5757   0.3529    0.319     O
H       0.5781   0.2154   0.9164     H
H       0.5781   0.3627   0.5836     H
C       0.5795   0.1904   0.5558     C
C       0.5795   0.3891   0.9442     C
H       0.5857   0.1714     0.75     H
H       0.5857   0.4143     0.75     H
C       0.5879   0.7664   0.8958     C
C       0.5879   0.8215   0.6042     C
C      0.59235   0.1847     0.25     C
C      0.59235  0.40765     0.25     C
N       0.6054   0.1112   0.9134     N
N       0.6054   0.4942   0.5866     N
C       0.6109   0.1904   0.9442     C
C       0.6109   0.4205   0.5558     C
H       0.6373   0.2154   0.5836     H
H       0.6373   0.4219   0.9164     H
O       0.6471   0.2228    0.319     O
O       0.6471   0.4243    0.181     O
C       0.6596   0.6902   0.0302     C
C       0.6596   0.9694   0.4698     C
C       0.6643    0.097   0.9714     C
C       0.6643   0.5673   0.5286     C
H       0.6666   0.6831   0.5752     H
H       0.6666   0.9835   0.9248     H
Ni     0.66667  0.33333   0.1026    Ni
Ni     0.66667  0.33333   0.3974    Ni
N       0.6673   0.2281   0.0173     N
N       0.6673   0.4392   0.4827     N
C       0.6792   0.7893   0.8947     C
C       0.6792   0.8899   0.6053     C
H       0.6831   0.0165   0.4248     H
H       0.6831   0.6666   0.0752     H
C       0.6902   0.0306   0.9698     C
C       0.6902   0.6596   0.5302     C
C       0.7028   0.1709   0.0358     C
C       0.7028   0.5319   0.4642     C
C       0.7147   0.7528   0.9613     C
C       0.7147   0.9619   0.5387     C
H        0.718   0.8301   0.8484     H
H        0.718   0.8879   0.6516     H
C       0.7528   0.0381   0.0387     C
C       0.7528   0.7147   0.4613     C
C       0.7664   0.1785   0.1042     C
C       0.7664   0.5879   0.3958     C
H       0.7711   0.7766   0.4592     H
H       0.7711   0.9945   0.0408     H
N       0.7719   0.3327   0.4827     N
N       0.7719   0.4392   0.0173     N
H       0.7729   0.2076   0.3527     H
H       0.7729   0.5653   0.1473     H
H       0.7766   0.0055   0.5408     H
H       0.7766   0.7711   0.9592     H
O       0.7772   0.3529    0.181     O
O       0.7772   0.4243    0.319     O
H       0.7846   0.3627   0.9164     H
H       0.7846   0.4219   0.5836     H
C       0.7893   0.1101   0.1053     C
C       0.7893   0.6792   0.3947     C
H       0.7924   0.2271   0.1473     H
H       0.7924   0.5653   0.3527     H
C       0.8096   0.3891   0.5558     C
C       0.8096   0.4205   0.9442     C
C       0.8153  0.40765     0.25     C
C       0.8215   0.2336   0.3958     C
C       0.8215   0.5879   0.1042     C
H       0.8286   0.4143     0.75     H
C       0.8291   0.2972   0.4642     C
C       0.8291   0.5319   0.0358     C
H       0.8301   0.1121   0.1516     H
H       0.8301    0.718   0.3484     H
H       0.8879   0.1699   0.3484     H
H       0.8879    0.718   0.1516     H
N       0.8888   0.3946   0.5866     N
N       0.8888   0.4942   0.9134     N
C       0.8899   0.2107   0.3947     C
C       0.8899   0.6792   0.1053     C
C       0.8923  0.44615     0.75     C
C        0.903   0.3357   0.5286     C
C        0.903   0.5673   0.9714     C
C       0.9187  0.45935     0.25     C
H       0.9344   0.4267   0.1136     H
H       0.9344   0.5077   0.3864     H
C       0.9399   0.4452   0.6695     C
C       0.9399   0.4947   0.8305     C
C       0.9619   0.2472   0.4613     C
C       0.9619   0.7147   0.0387     C
C        0.966   0.4585   0.1683     C
C        0.966   0.5075   0.3317     C
C       0.9694   0.3098   0.5302     C
C       0.9694   0.6596   0.9698     C
H       0.9835   0.3169   0.0752     H
H       0.9835   0.6666   0.4248     H
H       0.9945   0.2234   0.9592     H
H       0.9945   0.7711   0.5408     H
