data_I
_chemical_name_common  '/home/zhangsd/repos/MofS-CGCNN/ML/data/TSD/clean_cifs/YOYPUZ_clean'
_cell_length_a 17.08800
_cell_length_b 17.08800
_cell_length_c 13.89200
_cell_angle_alpha 90.00000
_cell_angle_beta  90.00000
_cell_angle_gamma 120.00000
_space_group_name_H-M_alt      'P 1'


loop_
_space_group_symop_operation_xyz
  'x, y, z' 

loop_
_atom_site_label
_atom_site_fract_x
_atom_site_fract_y
_atom_site_fract_z
_atom_site_type_symbol
H       0.0109   0.2411   0.4526     H
H       0.0109   0.7698   0.0474     H
H       0.0225   0.3446    0.568     H
H       0.0225   0.6779    0.932     H
C        0.026   0.3447   0.0255     C
C        0.026   0.6813   0.4745     C
C       0.0336   0.2908   0.9568     C
C       0.0336   0.7428   0.5432     C
C       0.0353   0.4941  0.66818     C
C       0.0353   0.5412  0.83182     C
C       0.0572   0.5046  0.16928     C
C       0.0572   0.5526  0.33072     C
H       0.0665   0.4944   0.6132     H
H       0.0665   0.5721   0.8868     H
C      0.08244  0.54122     0.75     C
C       0.0939   0.4339  0.02803     C
C       0.0939     0.66  0.47197     C
C      0.10516  0.55258     0.25     C
C       0.1073   0.3257    0.893     C
C       0.1073   0.7816    0.607     C
N       0.1087  0.50614  0.08673     N
N       0.1087  0.60256  0.41327     N
H       0.1102   0.2876   0.8471     H
H       0.1102   0.8226   0.6529     H
H        0.168    0.584     0.25     H
C       0.1681   0.4696  0.96512     C
C       0.1681   0.6985  0.53488     C
C        0.175   0.4139   0.8963     C
C        0.175   0.7611   0.6037     C
H       0.1774   0.2876   0.6529     H
H       0.1774   0.8898   0.8471     H
C      0.18388  0.59194     0.75     C
C       0.1877   0.5783  0.05753     C
C       0.1877   0.6094  0.44247     C
H        0.212   0.5769   0.4144     H
H        0.212   0.6351   0.0856     H
H       0.2121    0.436   0.6457     H
H       0.2121   0.7761   0.8543     H
C       0.2184   0.3257    0.607     C
C       0.2184   0.8927    0.893     C
O      0.22217  0.57611   0.6811     O
O      0.22217  0.64606   0.8189     O
H       0.2239    0.436   0.8543     H
H       0.2239   0.7879   0.6457     H
N       0.2266  0.56034  0.98571     N
N       0.2266  0.66626  0.51429     N
H       0.2302   0.2411   0.0474     H
H       0.2302   0.9891   0.4526     H
C       0.2389   0.4139   0.6037     C
C       0.2389    0.825   0.8963     C
H       0.2411   0.0109   0.9526     H
H       0.2411   0.2302   0.5474     H
C       0.2572   0.2908   0.5432     C
C       0.2572   0.9664   0.9568     C
H       0.2876   0.1102   0.3471     H
H       0.2876   0.1774   0.1529     H
C       0.2908   0.0336   0.4568     C
C       0.2908   0.2572   0.0432     C
C       0.3015   0.4696  0.53488     C
C       0.3015   0.8319  0.96512     C
C       0.3187   0.3447   0.4745     C
C       0.3187    0.974   0.0255     C
H       0.3221   0.3446    0.932     H
H       0.3221   0.9775    0.568     H
C       0.3257   0.1073    0.393     C
C       0.3257   0.2184    0.107     C
Co     0.33333  0.66667  0.60186    Co
Co     0.33333  0.66667  0.89814    Co
N      0.33374  0.56034  0.51429     N
N      0.33374   0.7734  0.98571     N
C         0.34   0.4339  0.47197     C
C         0.34   0.9061  0.02803     C
H       0.3446   0.0225    0.068     H
H       0.3446   0.3221    0.432     H
C       0.3447    0.026   0.5255     C
C       0.3447   0.3187   0.9745     C
O      0.35394  0.57611   0.8189     O
O      0.35394  0.77783   0.6811     O
H       0.3649   0.5769   0.0856     H
H       0.3649    0.788   0.4144     H
C       0.3906   0.5783  0.44247     C
C       0.3906   0.8123  0.05753     C
N      0.39744  0.50614  0.41327     N
N      0.39744   0.8913  0.08673     N
C      0.40806  0.59194     0.75     C
C      0.40806  0.81612     0.75     C
C       0.4139    0.175   0.3963     C
C       0.4139   0.2389   0.1037     C
H        0.416    0.584     0.25     H
H        0.416    0.832     0.25     H
C       0.4217   0.6094  0.05753     C
C       0.4217   0.8123  0.44247     C
H       0.4231   0.6351   0.4144     H
H       0.4231    0.788   0.0856     H
O      0.42389  0.64606   0.6811     O
O      0.42389  0.77783   0.8189     O
H       0.4279   0.4944   0.8868     H
H       0.4279   0.9335   0.6132     H
C       0.4339   0.0939  0.52803     C
C       0.4339     0.34  0.97197     C
H        0.436   0.2121   0.1457     H
H        0.436   0.2239   0.3543     H
N      0.43966  0.66626  0.98571     N
N      0.43966   0.7734  0.51429     N
C       0.4474   0.5046  0.33072     C
C       0.4474   0.9428  0.16928     C
C      0.44742  0.55258     0.25     C
C      0.44742  0.89484     0.25     C
C      0.45878  0.54122     0.75     C
C      0.45878  0.91756     0.75     C
C       0.4588   0.4941  0.83182     C
C       0.4588   0.9647  0.66818     C
C       0.4696   0.1681  0.46512     C
C       0.4696   0.3015  0.03488     C
N      0.49386  0.60256  0.08673     N
N      0.49386   0.8913  0.41327     N
C       0.4941   0.0353  0.16818     C
C       0.4941   0.4588  0.33182     C
H       0.4944   0.0665   0.1132     H
H       0.4944   0.4279   0.3868     H
C       0.4954   0.5526  0.16928     C
C       0.4954   0.9428  0.33072     C
C       0.5046   0.0572  0.66928     C
C       0.5046   0.4474  0.83072     C
H       0.5056   0.5721   0.6132     H
H       0.5056   0.9335   0.8868     H
C       0.5059   0.5412  0.66818     C
C       0.5059   0.9647  0.83182     C
N      0.50614   0.1087  0.58673     N
N      0.50614  0.39744  0.91327     N
C       0.5304   0.6985  0.96512     C
C       0.5304   0.8319  0.53488     C
C       0.5412   0.0353  0.33182     C
C       0.5412   0.5059  0.16818     C
C      0.54122  0.08244     0.25     C
C      0.54122  0.45878     0.25     C
C      0.55258  0.10516     0.75     C
C      0.55258  0.44742     0.75     C
C       0.5526   0.0572  0.83072     C
C       0.5526   0.4954  0.66928     C
N      0.56034   0.2266  0.48571     N
N      0.56034  0.33374  0.01429     N
H        0.564   0.7761   0.6457     H
H        0.564   0.7879   0.8543     H
C       0.5661     0.66  0.02803     C
C       0.5661   0.9061  0.47197     C
H       0.5721   0.0665   0.3868     H
H       0.5721   0.5056   0.1132     H
O      0.57611  0.22217   0.1811     O
O      0.57611  0.35394   0.3189     O
H       0.5769    0.212   0.9144     H
H       0.5769   0.3649   0.5856     H
C       0.5783   0.1877  0.55753     C
C       0.5783   0.3906  0.94247     C
H        0.584    0.168     0.75     H
H        0.584    0.416     0.75     H
C       0.5861   0.7611   0.8963     C
C       0.5861    0.825   0.6037     C
C      0.59194  0.18388     0.25     C
C      0.59194  0.40806     0.25     C
N      0.60256   0.1087  0.91327     N
N      0.60256  0.49386  0.58673     N
C       0.6094   0.1877  0.94247     C
C       0.6094   0.4217  0.55753     C
H       0.6351    0.212   0.5856     H
H       0.6351   0.4231   0.9144     H
O      0.64606  0.22217   0.3189     O
O      0.64606  0.42389   0.1811     O
C       0.6553   0.6813   0.0255     C
C       0.6553    0.974   0.4745     C
H       0.6554   0.6779    0.568     H
H       0.6554   0.9775    0.932     H
C         0.66   0.0939  0.97197     C
C         0.66   0.5661  0.52803     C
N      0.66626   0.2266  0.01429     N
N      0.66626  0.43966  0.48571     N
Co     0.66667  0.33333  0.10186    Co
Co     0.66667  0.33333  0.39814    Co
C       0.6743   0.7816    0.893     C
C       0.6743   0.8927    0.607     C
H       0.6779   0.0225    0.432     H
H       0.6779   0.6554    0.068     H
C       0.6813    0.026   0.9745     C
C       0.6813   0.6553   0.5255     C
C       0.6985   0.1681  0.03488     C
C       0.6985   0.5304  0.46512     C
C       0.7092   0.7428   0.9568     C
C       0.7092   0.9664   0.5432     C
H       0.7124   0.8226   0.8471     H
H       0.7124   0.8898   0.6529     H
C       0.7428   0.0336   0.0432     C
C       0.7428   0.7092   0.4568     C
H       0.7589   0.7698   0.4526     H
H       0.7589   0.9891   0.0474     H
C       0.7611    0.175   0.1037     C
C       0.7611   0.5861   0.3963     C
H       0.7698   0.0109   0.5474     H
H       0.7698   0.7589   0.9526     H
N       0.7734  0.33374  0.48571     N
N       0.7734  0.43966  0.01429     N
H       0.7761   0.2121   0.3543     H
H       0.7761    0.564   0.1457     H
O      0.77783  0.35394   0.1811     O
O      0.77783  0.42389   0.3189     O
C       0.7816   0.1073    0.107     C
C       0.7816   0.6743    0.393     C
H       0.7879   0.2239   0.1457     H
H       0.7879    0.564   0.3543     H
H        0.788   0.3649   0.9144     H
H        0.788   0.4231   0.5856     H
C       0.8123   0.3906  0.55753     C
C       0.8123   0.4217  0.94247     C
C      0.81612  0.40806     0.25     C
H       0.8226   0.1102   0.1529     H
H       0.8226   0.7124   0.3471     H
C        0.825   0.2389   0.3963     C
C        0.825   0.5861   0.1037     C
C       0.8319   0.3015  0.46512     C
C       0.8319   0.5304  0.03488     C
H        0.832    0.416     0.75     H
H       0.8898   0.1774   0.3471     H
H       0.8898   0.7124   0.1529     H
N       0.8913  0.39744  0.58673     N
N       0.8913  0.49386  0.91327     N
C       0.8927   0.2184    0.393     C
C       0.8927   0.6743    0.107     C
C      0.89484  0.44742     0.75     C
C       0.9061     0.34  0.52803     C
C       0.9061   0.5661  0.97197     C
C      0.91756  0.45878     0.25     C
H       0.9335   0.4279   0.1132     H
H       0.9335   0.5056   0.3868     H
C       0.9428   0.4474  0.66928     C
C       0.9428   0.4954  0.83072     C
C       0.9647   0.4588  0.16818     C
C       0.9647   0.5059  0.33182     C
C       0.9664   0.2572   0.4568     C
C       0.9664   0.7092   0.0432     C
C        0.974   0.3187   0.5255     C
C        0.974   0.6553   0.9745     C
H       0.9775   0.3221    0.068     H
H       0.9775   0.6554    0.432     H
H       0.9891   0.2302   0.9526     H
H       0.9891   0.7589   0.5474     H
