data_I
_chemical_name_common  '/home/zhangsd/repos/MofS-CGCNN/ML/data/TSD/clean_cifs/YOYPIN_clean'
_cell_length_a 16.90100
_cell_length_b 16.90100
_cell_length_c 14.08200
_cell_angle_alpha 90.00000
_cell_angle_beta  90.00000
_cell_angle_gamma 120.00000
_space_group_name_H-M_alt      'P 1'


loop_
_space_group_symop_operation_xyz
  'x, y, z' 

loop_
_atom_site_label
_atom_site_fract_x
_atom_site_fract_y
_atom_site_fract_z
_atom_site_type_symbol
H       0.0154    0.244   0.4516     H
H       0.0154   0.7714   0.0484     H
H       0.0205    0.341   0.5728     H
H       0.0205   0.6795   0.9272     H
C       0.0264   0.3437   0.0281     C
C       0.0264   0.6827   0.4719     C
C       0.0307   0.2894   0.9563     C
C       0.0307   0.7413   0.5437     C
C       0.0328    0.492   0.6704     C
C       0.0328   0.5408   0.8296     C
C       0.0615   0.5056   0.1707     C
C       0.0615   0.5559   0.3293     C
H       0.0645    0.492   0.6165     H
H       0.0645   0.5725   0.8835     H
C         0.08     0.54     0.75     C
C       0.0948   0.4328   0.0293     C
C       0.0948    0.662   0.4707     C
C       0.1036   0.3244   0.8904     C
C       0.1036   0.7792   0.6096     C
H       0.1048   0.2862   0.8435     H
H       0.1048   0.8186   0.6565     H
C       0.1087  0.55435     0.25     C
N       0.1114   0.5067   0.0884     N
N       0.1114   0.6047   0.4116     N
C       0.1678   0.4684   0.9655     C
C       0.1678   0.6994   0.5345     C
C       0.1721   0.4131   0.8942     C
C       0.1721    0.759   0.6058     C
H       0.1723  0.58615     0.25     H
H       0.1814   0.2862   0.6565     H
H       0.1814   0.8952   0.8435     H
C       0.1831  0.59155     0.75     C
C       0.1907   0.5785   0.0571     C
C       0.1907   0.6122   0.4429     C
H       0.2159    0.436   0.6491     H
H       0.2159   0.7799   0.8509     H
H        0.217    0.581   0.4147     H
H        0.217    0.636   0.0853     H
H       0.2201    0.436   0.8509     H
H       0.2201   0.7841   0.6491     H
C       0.2208   0.3244   0.6096     C
C       0.2208   0.8964   0.8904     C
O        0.221   0.5755   0.6816     O
O        0.221   0.6455   0.8184     O
N       0.2275   0.5606    0.984     N
N       0.2275   0.6669    0.516     N
H       0.2286    0.244   0.0484     H
H       0.2286   0.9846   0.4516     H
C        0.241   0.4131   0.6058     C
C        0.241   0.8279   0.8942     C
H        0.244   0.0154   0.9516     H
H        0.244   0.2286   0.5484     H
C       0.2587   0.2894   0.5437     C
C       0.2587   0.9693   0.9563     C
H       0.2862   0.1048   0.3435     H
H       0.2862   0.1814   0.1565     H
C       0.2894   0.0307   0.4563     C
C       0.2894   0.2587   0.0437     C
C       0.3006   0.4684   0.5345     C
C       0.3006   0.8322   0.9655     C
C       0.3173   0.3437   0.4719     C
C       0.3173   0.9736   0.0281     C
H       0.3205    0.341   0.9272     H
H       0.3205   0.9795   0.5728     H
C       0.3244   0.1036   0.3904     C
C       0.3244   0.2208   0.1096     C
N       0.3331   0.5606    0.516     N
N       0.3331   0.7725    0.984     N
Co     0.33333  0.66667  0.60379    Co
Co     0.33333  0.66667  0.89621    Co
C        0.338   0.4328   0.4707     C
C        0.338   0.9052   0.0293     C
H        0.341   0.0205   0.0728     H
H        0.341   0.3205   0.4272     H
C       0.3437   0.0264   0.5281     C
C       0.3437   0.3173   0.9719     C
O       0.3545   0.5755   0.8184     O
O       0.3545    0.779   0.6816     O
H        0.364    0.581   0.0853     H
H        0.364    0.783   0.4147     H
C       0.3878   0.5785   0.4429     C
C       0.3878   0.8093   0.0571     C
N       0.3953   0.5067   0.4116     N
N       0.3953   0.8886   0.0884     N
C      0.40845  0.59155     0.75     C
C      0.40845   0.8169     0.75     C
C       0.4131   0.1721   0.3942     C
C       0.4131    0.241   0.1058     C
H      0.41385  0.58615     0.25     H
H      0.41385   0.8277     0.25     H
H        0.419    0.636   0.4147     H
H        0.419    0.783   0.0853     H
C       0.4215   0.6122   0.0571     C
C       0.4215   0.8093   0.4429     C
O       0.4245   0.6455   0.6816     O
O       0.4245    0.779   0.8184     O
H       0.4275    0.492   0.8835     H
H       0.4275   0.9355   0.6165     H
C       0.4328   0.0948   0.5293     C
C       0.4328    0.338   0.9707     C
H        0.436   0.2159   0.1491     H
H        0.436   0.2201   0.3509     H
N       0.4394   0.6669    0.984     N
N       0.4394   0.7725    0.516     N
C       0.4441   0.5056   0.3293     C
C       0.4441   0.9385   0.1707     C
C      0.44565  0.55435     0.25     C
C      0.44565   0.8913     0.25     C
C       0.4592    0.492   0.8296     C
C       0.4592   0.9672   0.6704     C
C         0.46     0.54     0.75     C
C         0.46     0.92     0.75     C
C       0.4684   0.1678   0.4655     C
C       0.4684   0.3006   0.0345     C
C        0.492   0.0328   0.1704     C
H        0.492   0.0645   0.1165     H
H        0.492   0.4275   0.3835     H
C        0.492   0.4592   0.3296     C
N       0.4933   0.6047   0.0884     N
N       0.4933   0.8886   0.4116     N
C       0.4944   0.5559   0.1707     C
C       0.4944   0.9385   0.3293     C
C       0.5056   0.0615   0.6707     C
C       0.5056   0.4441   0.8293     C
N       0.5067   0.1114   0.5884     N
N       0.5067   0.3953   0.9116     N
C        0.508   0.5408   0.6704     C
H        0.508   0.5725   0.6165     H
H        0.508   0.9355   0.8835     H
C        0.508   0.9672   0.8296     C
C       0.5316   0.6994   0.9655     C
C       0.5316   0.8322   0.5345     C
C         0.54     0.08     0.25     C
C         0.54     0.46     0.25     C
C       0.5408   0.0328   0.3296     C
C       0.5408    0.508   0.1704     C
C      0.55435   0.1087     0.75     C
C      0.55435  0.44565     0.75     C
C       0.5559   0.0615   0.8293     C
C       0.5559   0.4944   0.6707     C
N       0.5606   0.2275    0.484     N
N       0.5606   0.3331    0.016     N
H        0.564   0.7799   0.6491     H
H        0.564   0.7841   0.8509     H
C       0.5672    0.662   0.0293     C
C       0.5672   0.9052   0.4707     C
H       0.5725   0.0645   0.3835     H
H       0.5725    0.508   0.1165     H
O       0.5755    0.221   0.1816     O
O       0.5755   0.3545   0.3184     O
C       0.5785   0.1907   0.5571     C
C       0.5785   0.3878   0.9429     C
H        0.581    0.217   0.9147     H
H        0.581    0.364   0.5853     H
H      0.58615   0.1723     0.75     H
H      0.58615  0.41385     0.75     H
C       0.5869    0.759   0.8942     C
C       0.5869   0.8279   0.6058     C
C      0.59155   0.1831     0.25     C
C      0.59155  0.40845     0.25     C
N       0.6047   0.1114   0.9116     N
N       0.6047   0.4933   0.5884     N
C       0.6122   0.1907   0.9429     C
C       0.6122   0.4215   0.5571     C
H        0.636    0.217   0.5853     H
H        0.636    0.419   0.9147     H
O       0.6455    0.221   0.3184     O
O       0.6455   0.4245   0.1816     O
C       0.6563   0.6827   0.0281     C
C       0.6563   0.9736   0.4719     C
H        0.659   0.6795   0.5728     H
H        0.659   0.9795   0.9272     H
C        0.662   0.0948   0.9707     C
C        0.662   0.5672   0.5293     C
Co     0.66667  0.33333  0.10379    Co
Co     0.66667  0.33333  0.39621    Co
N       0.6669   0.2275    0.016     N
N       0.6669   0.4394    0.484     N
C       0.6756   0.7792   0.8904     C
C       0.6756   0.8964   0.6096     C
H       0.6795   0.0205   0.4272     H
H       0.6795    0.659   0.0728     H
C       0.6827   0.0264   0.9719     C
C       0.6827   0.6563   0.5281     C
C       0.6994   0.1678   0.0345     C
C       0.6994   0.5316   0.4655     C
C       0.7106   0.7413   0.9563     C
C       0.7106   0.9693   0.5437     C
H       0.7138   0.8186   0.8435     H
H       0.7138   0.8952   0.6565     H
C       0.7413   0.0307   0.0437     C
C       0.7413   0.7106   0.4563     C
H        0.756   0.7714   0.4516     H
H        0.756   0.9846   0.0484     H
C        0.759   0.1721   0.1058     C
C        0.759   0.5869   0.3942     C
H       0.7714   0.0154   0.5484     H
H       0.7714    0.756   0.9516     H
N       0.7725   0.3331    0.484     N
N       0.7725   0.4394    0.016     N
O        0.779   0.3545   0.1816     O
O        0.779   0.4245   0.3184     O
C       0.7792   0.1036   0.1096     C
C       0.7792   0.6756   0.3904     C
H       0.7799   0.2159   0.3509     H
H       0.7799    0.564   0.1491     H
H        0.783    0.364   0.9147     H
H        0.783    0.419   0.5853     H
H       0.7841   0.2201   0.1491     H
H       0.7841    0.564   0.3509     H
C       0.8093   0.3878   0.5571     C
C       0.8093   0.4215   0.9429     C
C       0.8169  0.40845     0.25     C
H       0.8186   0.1048   0.1565     H
H       0.8186   0.7138   0.3435     H
H       0.8277  0.41385     0.75     H
C       0.8279    0.241   0.3942     C
C       0.8279   0.5869   0.1058     C
C       0.8322   0.3006   0.4655     C
C       0.8322   0.5316   0.0345     C
N       0.8886   0.3953   0.5884     N
N       0.8886   0.4933   0.9116     N
C       0.8913  0.44565     0.75     C
H       0.8952   0.1814   0.3435     H
H       0.8952   0.7138   0.1565     H
C       0.8964   0.2208   0.3904     C
C       0.8964   0.6756   0.1096     C
C       0.9052    0.338   0.5293     C
C       0.9052   0.5672   0.9707     C
C         0.92     0.46     0.25     C
H       0.9355   0.4275   0.1165     H
H       0.9355    0.508   0.3835     H
C       0.9385   0.4441   0.6707     C
C       0.9385   0.4944   0.8293     C
C       0.9672   0.4592   0.1704     C
C       0.9672    0.508   0.3296     C
C       0.9693   0.2587   0.4563     C
C       0.9693   0.7106   0.0437     C
C       0.9736   0.3173   0.5281     C
C       0.9736   0.6563   0.9719     C
H       0.9795   0.3205   0.0728     H
H       0.9795    0.659   0.4272     H
H       0.9846   0.2286   0.9516     H
H       0.9846    0.756   0.5484     H
