data_I
_chemical_name_common  '/home/zhangsd/repos/MofS-CGCNN/ML/data/TSD/clean_cifs/YOYVOZ01_clean'
_cell_length_a 26.80780
_cell_length_b 26.80780
_cell_length_c  9.94060
_cell_angle_alpha 90.00000
_cell_angle_beta  90.00000
_cell_angle_gamma 120.00000
_space_group_name_H-M_alt      'P 1'


loop_
_space_group_symop_operation_xyz
  'x, y, z' 

loop_
_atom_site_label
_atom_site_fract_x
_atom_site_fract_y
_atom_site_fract_z
_atom_site_type_symbol
Au         0.0  0.29173      0.0    Au
Fe         0.0      0.5      0.0    Fe
Au         0.0  0.70827      0.0    Au
N      0.00033  0.44157  0.84797     N
N      0.00033  0.55877  0.84797     N
H      0.00887  0.14043  0.65303     H
H      0.00887  0.86843  0.65303     H
C      0.01073  0.41437  0.78257     C
C      0.01073  0.59637  0.78257     C
C      0.02833  0.05667  0.34067     C
C      0.02833  0.97167  0.34067     C
N      0.03032  0.06063  0.66333     N
N      0.03032  0.96968  0.66333     N
C      0.03113  0.15057  0.34357     C
C      0.03113  0.88057  0.34357     C
Au      0.0416  0.37494  0.66667    Au
Au      0.0416  0.66667  0.66667    Au
H      0.04223  0.22897  0.34277     H
H      0.04223  0.81327  0.34277     H
C      0.05667  0.02833  0.65933     C
C      0.06003  0.12007  0.34007     C
C      0.06003  0.93997  0.34007     C
N      0.06063  0.03032  0.33667     N
C      0.06233  0.20897  0.34207     C
C      0.06233  0.85337  0.34207     C
C       0.0703   0.3226   0.1159     C
C       0.0703   0.7477   0.1159     C
C      0.08103  0.34407  0.55077     C
C      0.08103  0.73697  0.55077     C
N      0.09347  0.54673  0.00623     N
H      0.10437  0.47993  0.00943     H
H      0.10437  0.62443  0.00943     H
N       0.1079    0.333   0.1813     N
N       0.1079   0.7749   0.1813     N
N      0.10823  0.33367  0.48537     N
N      0.10823  0.77457  0.48537     N
C      0.11943  0.15057  0.34357     C
C      0.11943  0.96887  0.34357     C
N      0.11993  0.23987  0.33957     N
N      0.11993  0.88007  0.33957     N
C      0.12007  0.06003  0.65993     C
C      0.12437  0.52003  0.00873     C
C      0.12437  0.60433  0.00873     C
H      0.13157  0.14043  0.65303     H
H      0.13157  0.99113  0.65303     H
H      0.14043  0.00887  0.34697     H
H      0.14043  0.13157  0.34697     H
H       0.1466   0.4377   0.3239     H
H       0.1466   0.7089   0.3239     H
C      0.14663  0.20897  0.34207     C
C      0.14663  0.93767  0.34207     C
C      0.15057  0.03113  0.65643     C
C      0.15057  0.11943  0.65643     C
Fe     0.16667  0.33333  0.33333    Fe
Fe     0.16667  0.83333  0.33333    Fe
C      0.18277  0.54723  0.01023     C
C      0.18277  0.63553  0.01023     C
C       0.1867   0.4577   0.3246     C
C       0.1867    0.729   0.3246     C
H      0.18673  0.22897  0.34277     H
H      0.18673  0.95777  0.34277     H
H       0.1929   0.5351   0.3197     H
H       0.1929   0.6578   0.3197     H
H      0.20177  0.52623  0.01363     H
H      0.20177  0.67553  0.01363     H
C      0.20897  0.06233  0.65793     C
C      0.20897  0.14663  0.65793     C
C      0.21327  0.60663  0.00673     C
N       0.2134   0.4268   0.3271     N
N       0.2134   0.7866   0.3271     N
C       0.2139   0.5161   0.3231     C
C       0.2139   0.6978   0.3231     C
N       0.2251    0.333   0.1813     N
N       0.2251   0.8921   0.1813     N
N      0.22543  0.33367  0.48537     N
N      0.22543  0.89177  0.48537     N
H      0.22897  0.04223  0.65723     H
H      0.22897  0.18673  0.65723     H
N      0.23987  0.11993  0.66043     N
C       0.2523   0.3226   0.1159     C
C       0.2523   0.9297   0.1159     C
C      0.26303  0.34407  0.55077     C
C      0.26303  0.91897  0.55077     C
C        0.271   0.4577   0.3246     C
C        0.271   0.8133   0.3246     C
N       0.2727  0.63635     0.33     N
C       0.2733   0.5466   0.3266     C
C       0.2733   0.7267   0.3266     C
C      0.27667  0.63833  0.00733     C
H       0.2911   0.4377   0.3239     H
H       0.2911   0.8534   0.3239     H
Au     0.29173      0.0      0.0    Au
Au     0.29173  0.29173      0.0    Au
C       0.3022   0.5161   0.3231     C
C       0.3022   0.7861   0.3231     C
N      0.30302  0.60603  0.00333     N
N      0.30302  0.69698  0.00333     N
C        0.305     0.61    0.326     C
C        0.305    0.695    0.326     C
C       0.3226   0.0703   0.8841     C
C       0.3226   0.2523   0.8841     C
H      0.32447  0.52623  0.01363     H
H      0.32447  0.79823  0.01363     H
N        0.333   0.1079   0.8187     N
N        0.333   0.2251   0.8187     N
Fe     0.33333  0.16667  0.66667    Fe
Au     0.33333  0.37494  0.66667    Au
Au     0.33333   0.9584  0.66667    Au
N      0.33367  0.10823  0.51463     N
N      0.33367  0.22543  0.51463     N
H       0.3422   0.5351   0.3197     H
H       0.3422   0.8071   0.3197     H
C      0.34407  0.08103  0.44923     C
C      0.34407  0.26303  0.44923     C
C      0.36167  0.63833  0.00733     C
C      0.36167  0.72333  0.00733     C
N      0.36365  0.63635     0.33     N
N      0.36365   0.7273     0.33     N
C      0.36447  0.54723  0.01023     C
C      0.36447  0.81723  0.01023     C
Au     0.37494   0.0416  0.33333    Au
Au     0.37494  0.33333  0.33333    Au
H      0.37557  0.47993  0.00943     H
H      0.37557  0.89563  0.00943     H
C         0.39    0.695    0.326     C
C      0.39337  0.60663  0.00673     C
C      0.39337  0.78673  0.00673     C
N      0.39397  0.69698  0.00333     N
C      0.39567  0.52003  0.00873     C
C      0.39567  0.87563  0.00873     C
C      0.40363  0.41437  0.78257     C
C      0.40363  0.98927  0.78257     C
C      0.41437  0.01073  0.21743     C
C      0.41437  0.40363  0.21743     C
N       0.4268   0.2134   0.6729     N
H       0.4377   0.1466   0.6761     H
H       0.4377   0.2911   0.6761     H
N      0.44123  0.44157  0.84797     N
N      0.44123  0.99967  0.84797     N
N      0.44157  0.00033  0.15203     N
N      0.44157  0.44123  0.15203     N
C      0.45277  0.63553  0.01023     C
C      0.45277  0.81723  0.01023     C
N      0.45327  0.54673  0.00623     N
N      0.45327  0.90653  0.00623     N
C       0.4534   0.7267   0.3266     C
C       0.4577   0.1867   0.6754     C
C       0.4577    0.271   0.6754     C
H       0.4649   0.6578   0.3197     H
H       0.4649   0.8071   0.3197     H
H      0.47377  0.67553  0.01363     H
H      0.47377  0.79823  0.01363     H
H      0.47993  0.10437  0.99057     H
H      0.47993  0.37557  0.99057     H
C      0.47997  0.60433  0.00873     C
C      0.47997  0.87563  0.00873     C
C       0.4839   0.6978   0.3231     C
C       0.4839   0.7861   0.3231     C
Fe         0.5      0.0      0.0    Fe
Fe         0.5      0.5      0.0    Fe
C       0.5161   0.2139   0.6769     C
C       0.5161   0.3022   0.6769     C
C      0.52003  0.12437  0.99127     C
C      0.52003  0.39567  0.99127     C
H      0.52007  0.62443  0.00943     H
H      0.52007  0.89563  0.00943     H
H      0.52623  0.20177  0.98637     H
H      0.52623  0.32447  0.98637     H
H       0.5351   0.1929   0.6803     H
H       0.5351   0.3422   0.6803     H
C       0.5423    0.729   0.3246     C
C       0.5423   0.8133   0.3246     C
C       0.5466   0.2733   0.6734     C
N      0.54673  0.09347  0.99377     N
N      0.54673  0.45327  0.99377     N
C      0.54723  0.18277  0.98977     C
C      0.54723  0.36447  0.98977     C
N      0.55843  0.55877  0.84797     N
N      0.55843  0.99967  0.84797     N
N      0.55877  0.00033  0.15203     N
N      0.55877  0.55843  0.15203     N
H       0.5623   0.7089   0.3239     H
H       0.5623   0.8534   0.3239     H
N       0.5732   0.7866   0.3271     N
C      0.58563  0.59637  0.78257     C
C      0.58563  0.98927  0.78257     C
C      0.59637  0.01073  0.21743     C
C      0.59637  0.58563  0.21743     C
C      0.60433  0.12437  0.99127     C
C      0.60433  0.47997  0.99127     C
N      0.60603  0.30302  0.99667     N
C      0.60663  0.21327  0.99327     C
C      0.60663  0.39337  0.99327     C
C         0.61    0.305    0.674     C
H      0.62443  0.10437  0.99057     H
H      0.62443  0.52007  0.99057     H
Au     0.62506  0.66667  0.66667    Au
Au     0.62506   0.9584  0.66667    Au
C      0.63553  0.18277  0.98977     C
C      0.63553  0.45277  0.98977     C
N      0.63635   0.2727     0.67     N
N      0.63635  0.36365     0.67     N
C      0.63833  0.27667  0.99267     C
C      0.63833  0.36167  0.99267     C
C      0.65593  0.73697  0.55077     C
C      0.65593  0.91897  0.55077     C
H       0.6578   0.1929   0.6803     H
H       0.6578   0.4649   0.6803     H
N      0.66633  0.77457  0.48537     N
N      0.66633  0.89177  0.48537     N
Au     0.66667   0.0416  0.33333    Au
Au     0.66667  0.62506  0.33333    Au
Fe     0.66667  0.83333  0.33333    Fe
N        0.667   0.7749   0.1813     N
N        0.667   0.8921   0.1813     N
H      0.67553  0.20177  0.98637     H
H      0.67553  0.47377  0.98637     H
C       0.6774   0.7477   0.1159     C
C       0.6774   0.9297   0.1159     C
C        0.695    0.305    0.674     C
C        0.695     0.39    0.674     C
N      0.69698  0.30302  0.99667     N
N      0.69698  0.39397  0.99667     N
C       0.6978   0.2139   0.6769     C
C       0.6978   0.4839   0.6769     C
Au     0.70827      0.0      0.0    Au
Au     0.70827  0.70827      0.0    Au
H       0.7089   0.1466   0.6761     H
H       0.7089   0.5623   0.6761     H
C      0.72333  0.36167  0.99267     C
C       0.7267   0.2733   0.6734     C
C       0.7267   0.4534   0.6734     C
N       0.7273  0.36365     0.67     N
C        0.729   0.1867   0.6754     C
C        0.729   0.5423   0.6754     C
C      0.73697  0.08103  0.44923     C
C      0.73697  0.65593  0.44923     C
C       0.7477   0.0703   0.8841     C
C       0.7477   0.6774   0.8841     C
N      0.76013  0.88007  0.33957     N
H      0.77103  0.81327  0.34277     H
H      0.77103  0.95777  0.34277     H
N      0.77457  0.10823  0.51463     N
N      0.77457  0.66633  0.51463     N
N       0.7749   0.1079   0.8187     N
N       0.7749    0.667   0.8187     N
C       0.7861   0.3022   0.6769     C
C       0.7861   0.4839   0.6769     C
N       0.7866   0.2134   0.6729     N
N       0.7866   0.5732   0.6729     N
C      0.78673  0.39337  0.99327     C
C      0.79103  0.85337  0.34207     C
C      0.79103  0.93767  0.34207     C
H      0.79823  0.32447  0.98637     H
H      0.79823  0.47377  0.98637     H
H       0.8071   0.3422   0.6803     H
H       0.8071   0.4649   0.6803     H
H      0.81327  0.04223  0.65723     H
H      0.81327  0.77103  0.65723     H
C       0.8133    0.271   0.6754     C
C       0.8133   0.5423   0.6754     C
C      0.81723  0.36447  0.98977     C
C      0.81723  0.45277  0.98977     C
Fe     0.83333  0.16667  0.66667    Fe
Fe     0.83333  0.66667  0.66667    Fe
C      0.84943  0.88057  0.34357     C
C      0.84943  0.96887  0.34357     C
C      0.85337  0.06233  0.65793     C
C      0.85337  0.79103  0.65793     C
H       0.8534   0.2911   0.6761     H
H       0.8534   0.5623   0.6761     H
H      0.85957  0.86843  0.65303     H
H      0.85957  0.99113  0.65303     H
H      0.86843  0.00887  0.34697     H
H      0.86843  0.85957  0.34697     H
C      0.87563  0.39567  0.99127     C
C      0.87563  0.47997  0.99127     C
C      0.87993  0.93997  0.34007     C
N      0.88007  0.11993  0.66043     N
N      0.88007  0.76013  0.66043     N
C      0.88057  0.03113  0.65643     C
C      0.88057  0.84943  0.65643     C
N      0.89177  0.22543  0.51463     N
N      0.89177  0.66633  0.51463     N
N       0.8921   0.2251   0.8187     N
N       0.8921    0.667   0.8187     N
H      0.89563  0.37557  0.99057     H
H      0.89563  0.52007  0.99057     H
N      0.90653  0.45327  0.99377     N
C      0.91897  0.26303  0.44923     C
C      0.91897  0.65593  0.44923     C
C       0.9297   0.2523   0.8841     C
C       0.9297   0.6774   0.8841     C
C      0.93767  0.14663  0.65793     C
C      0.93767  0.79103  0.65793     C
N      0.93937  0.96968  0.66333     N
C      0.93997  0.06003  0.65993     C
C      0.93997  0.87993  0.65993     C
C      0.94333  0.97167  0.34067     C
H      0.95777  0.18673  0.65723     H
H      0.95777  0.77103  0.65723     H
Au      0.9584  0.33333  0.33333    Au
Au      0.9584  0.62506  0.33333    Au
C      0.96887  0.11943  0.65643     C
C      0.96887  0.84943  0.65643     C
N      0.96968  0.03032  0.33667     N
N      0.96968  0.93937  0.33667     N
C      0.97167  0.02833  0.65933     C
C      0.97167  0.94333  0.65933     C
C      0.98927  0.40363  0.21743     C
C      0.98927  0.58563  0.21743     C
H      0.99113  0.13157  0.34697     H
H      0.99113  0.85957  0.34697     H
N      0.99967  0.44123  0.15203     N
N      0.99967  0.55843  0.15203     N
