data_I
_chemical_name_common  '/home/zhangsd/repos/MofS-CGCNN/ML/data/TSD/clean_cifs/YOYVEP01_clean'
_cell_length_a 26.90100
_cell_length_b 26.90100
_cell_length_c  9.77420
_cell_angle_alpha 90.00000
_cell_angle_beta  90.00000
_cell_angle_gamma 120.00000
_space_group_name_H-M_alt      'P 1'


loop_
_space_group_symop_operation_xyz
  'x, y, z' 

loop_
_atom_site_label
_atom_site_fract_x
_atom_site_fract_y
_atom_site_fract_z
_atom_site_type_symbol
Au         0.0  0.29342      0.0    Au
Fe         0.0      0.5      0.0    Fe
Au         0.0  0.70658      0.0    Au
N       0.0008    0.442   0.1521     N
N       0.0008   0.5588   0.1521     N
H      0.00883  0.13947  0.66637     H
H      0.00883  0.86937  0.66637     H
C       0.0103   0.4132   0.7822     C
C       0.0103   0.5971   0.7822     C
C      0.02807  0.05613  0.33483     C
C      0.02807  0.97193  0.33483     C
N      0.02942  0.05885  0.66627     N
N      0.02942  0.97058  0.66627     N
C      0.03107  0.14983  0.33363     C
C      0.03107  0.88123  0.33363     C
Au     0.03991  0.37325  0.66667    Au
Au     0.03991  0.66667  0.66667    Au
H      0.04247  0.22943  0.33363     H
H      0.04247  0.81303  0.33363     H
C      0.05613  0.02807  0.66517     C
N      0.05885  0.02942  0.33373     N
C      0.05987  0.11973  0.33383     C
C      0.05987  0.94013  0.33383     C
C      0.06227  0.20933  0.33353     C
C      0.06227  0.85293  0.33353     C
C      0.06957  0.32303  0.11553     C
C      0.06957  0.74653  0.11553     C
C      0.07987  0.34363  0.55113     C
C      0.07987  0.73623  0.55113     C
N       0.0943  0.54715   0.9998     N
H       0.1039   0.4797   0.0003     H
H       0.1039   0.6242   0.0003     H
N      0.10787  0.33253  0.48543     N
N      0.10787  0.77533  0.48543     N
N      0.10867  0.33413  0.18123     N
N      0.10867  0.77453  0.18123     N
C      0.11877  0.14983  0.33363     C
C      0.11877  0.96893  0.33363     C
N      0.11952  0.23903  0.33313     N
N      0.11952  0.88048  0.33313     N
C      0.11973  0.05987  0.66617     C
C        0.124   0.5196   0.0002     C
C        0.124   0.6044   0.0002     C
H      0.13063  0.13947  0.66637     H
H      0.13063  0.99117  0.66637     H
H      0.13947  0.00883  0.33363     H
H      0.13947  0.13063  0.33363     H
H      0.14637  0.43723  0.33303     H
H      0.14637  0.70913  0.33303     H
C      0.14707  0.20933  0.33353     C
C      0.14707  0.93773  0.33353     C
C      0.14983  0.03107  0.66637     C
C      0.14983  0.11877  0.66637     C
Fe     0.16667  0.33333  0.33333    Fe
Fe     0.16667  0.83333  0.33333    Fe
C       0.1835   0.5479   0.0003     C
C       0.1835   0.6356   0.0003     C
C      0.18627  0.45733  0.33313     C
C      0.18627  0.72893  0.33313     C
H      0.18697  0.22943  0.33363     H
H      0.18697  0.95753  0.33363     H
H      0.19387  0.53603  0.33303     H
H      0.19387  0.65783  0.33303     H
H       0.2027   0.5272   0.0003     H
H       0.2027   0.6755   0.0003     H
C      0.20933  0.06227  0.66647     C
C      0.20933  0.14707  0.66647     C
C       0.2136   0.6068   0.0005     C
N      0.21382  0.42763  0.33353     N
N      0.21382  0.78618  0.33353     N
C      0.21457  0.51683  0.33303     C
C      0.21457  0.69773  0.33303     C
N      0.22467  0.33253  0.48543     N
N      0.22467  0.89213  0.48543     N
N      0.22547  0.33413  0.18123     N
N      0.22547  0.89133  0.18123     N
H      0.22943  0.04247  0.66637     H
H      0.22943  0.18697  0.66637     H
N      0.23903  0.11952  0.66687     N
C      0.25347  0.32303  0.11553     C
C      0.25347  0.93043  0.11553     C
C      0.26377  0.34363  0.55113     C
C      0.26377  0.92013  0.55113     C
C      0.27107  0.45733  0.33313     C
C      0.27107  0.81373  0.33313     C
C      0.27347  0.54693  0.33283     C
C      0.27347  0.72653  0.33283     C
N      0.27449  0.63724  0.33293     N
C       0.2772   0.6386   0.0015     C
H      0.29087  0.43723  0.33303     H
H      0.29087  0.85363  0.33303     H
Au     0.29342      0.0      0.0    Au
Au     0.29342  0.29342      0.0    Au
C      0.30227  0.51683  0.33303     C
C      0.30227  0.78543  0.33303     C
N      0.30391  0.60782   0.0004     N
N      0.30391  0.69609   0.0004     N
C      0.30527  0.61053  0.33183     C
C      0.30527  0.69473  0.33183     C
C      0.32303  0.06957  0.88447     C
C      0.32303  0.25347  0.88447     C
H       0.3245   0.5272   0.0003     H
H       0.3245   0.7973   0.0003     H
N      0.33253  0.10787  0.51457     N
N      0.33253  0.22467  0.51457     N
Fe     0.33333  0.16667  0.66667    Fe
Au     0.33333  0.37325  0.66667    Au
Au     0.33333  0.96009  0.66667    Au
N      0.33413  0.10867  0.81877     N
N      0.33413  0.22547  0.81877     N
H      0.34217  0.53603  0.33303     H
H      0.34217  0.80613  0.33303     H
C      0.34363  0.07987  0.44887     C
C      0.34363  0.26377  0.44887     C
C       0.3614   0.6386   0.0015     C
C       0.3614   0.7228   0.0015     C
N      0.36276  0.63724  0.33293     N
N      0.36276  0.72551  0.33293     N
C       0.3644   0.5479   0.0003     C
C       0.3644   0.8165   0.0003     C
Au     0.37325  0.03991  0.33333    Au
Au     0.37325  0.33333  0.33333    Au
H       0.3758   0.4797   0.0003     H
H       0.3758   0.8961   0.0003     H
C      0.38947  0.69473  0.33183     C
N      0.39218  0.69609   0.0004     N
C       0.3932   0.6068   0.0005     C
C       0.3932   0.7864   0.0005     C
C       0.3956   0.5196   0.0002     C
C       0.3956    0.876   0.0002     C
C       0.4029   0.4132   0.7822     C
C       0.4029   0.9897   0.7822     C
C       0.4132   0.0103   0.2178     C
C       0.4132   0.4029   0.2178     C
N      0.42763  0.21382  0.66647     N
H      0.43723  0.14637  0.66697     H
H      0.43723  0.29087  0.66697     H
N       0.4412    0.442   0.1521     N
N       0.4412   0.9992   0.1521     N
N        0.442   0.0008   0.8479     N
N        0.442   0.4412   0.8479     N
C       0.4521   0.6356   0.0003     C
C       0.4521   0.8165   0.0003     C
N      0.45285  0.54715   0.9998     N
N      0.45285   0.9057   0.9998     N
C      0.45307  0.72653  0.33283     C
C      0.45733  0.18627  0.66687     C
C      0.45733  0.27107  0.66687     C
H      0.46397  0.65783  0.33303     H
H      0.46397  0.80613  0.33303     H
H       0.4728   0.6755   0.0003     H
H       0.4728   0.7973   0.0003     H
H       0.4797   0.1039   0.9997     H
H       0.4797   0.3758   0.9997     H
C       0.4804   0.6044   0.0002     C
C       0.4804    0.876   0.0002     C
C      0.48317  0.69773  0.33303     C
C      0.48317  0.78543  0.33303     C
Fe         0.5      0.0      0.0    Fe
Fe         0.5      0.5      0.0    Fe
C      0.51683  0.21457  0.66697     C
C      0.51683  0.30227  0.66697     C
C       0.5196    0.124   0.9998     C
C       0.5196   0.3956   0.9998     C
H       0.5203   0.6242   0.0003     H
H       0.5203   0.8961   0.0003     H
H       0.5272   0.2027   0.9997     H
H       0.5272   0.3245   0.9997     H
H      0.53603  0.19387  0.66697     H
H      0.53603  0.34217  0.66697     H
C      0.54267  0.72893  0.33313     C
C      0.54267  0.81373  0.33313     C
C      0.54693  0.27347  0.66717     C
N      0.54715   0.0943   0.0002     N
N      0.54715  0.45285   0.0002     N
C       0.5479   0.1835   0.9997     C
C       0.5479   0.3644   0.9997     C
N        0.558   0.5588   0.1521     N
N        0.558   0.9992   0.1521     N
N       0.5588   0.0008   0.8479     N
N       0.5588    0.558   0.8479     N
H      0.56277  0.70913  0.33303     H
H      0.56277  0.85363  0.33303     H
N      0.57237  0.78618  0.33353     N
C       0.5868   0.5971   0.7822     C
C       0.5868   0.9897   0.7822     C
C       0.5971   0.0103   0.2178     C
C       0.5971   0.5868   0.2178     C
C       0.6044    0.124   0.9998     C
C       0.6044   0.4804   0.9998     C
C       0.6068   0.2136   0.9995     C
C       0.6068   0.3932   0.9995     C
N      0.60782  0.30391   0.9996     N
C      0.61053  0.30527  0.66817     C
H       0.6242   0.1039   0.9997     H
H       0.6242   0.5203   0.9997     H
Au     0.62675  0.66667  0.66667    Au
Au     0.62675  0.96009  0.66667    Au
C       0.6356   0.1835   0.9997     C
C       0.6356   0.4521   0.9997     C
N      0.63724  0.27449  0.66707     N
N      0.63724  0.36276  0.66707     N
C       0.6386   0.2772   0.9985     C
C       0.6386   0.3614   0.9985     C
C      0.65637  0.73623  0.55113     C
C      0.65637  0.92013  0.55113     C
H      0.65783  0.19387  0.66697     H
H      0.65783  0.46397  0.66697     H
N      0.66587  0.77453  0.18123     N
N      0.66587  0.89133  0.18123     N
Au     0.66667  0.03991  0.33333    Au
Au     0.66667  0.62675  0.33333    Au
Fe     0.66667  0.83333  0.33333    Fe
N      0.66747  0.77533  0.48543     N
N      0.66747  0.89213  0.48543     N
H       0.6755   0.2027   0.9997     H
H       0.6755   0.4728   0.9997     H
C      0.67697  0.74653  0.11553     C
C      0.67697  0.93043  0.11553     C
C      0.69473  0.30527  0.66817     C
C      0.69473  0.38947  0.66817     C
N      0.69609  0.30391   0.9996     N
N      0.69609  0.39218   0.9996     N
C      0.69773  0.21457  0.66697     C
C      0.69773  0.48317  0.66697     C
Au     0.70658      0.0      0.0    Au
Au     0.70658  0.70658      0.0    Au
H      0.70913  0.14637  0.66697     H
H      0.70913  0.56277  0.66697     H
C       0.7228   0.3614   0.9985     C
N      0.72551  0.36276  0.66707     N
C      0.72653  0.27347  0.66717     C
C      0.72653  0.45307  0.66717     C
C      0.72893  0.18627  0.66687     C
C      0.72893  0.54267  0.66687     C
C      0.73623  0.07987  0.44887     C
C      0.73623  0.65637  0.44887     C
C      0.74653  0.06957  0.88447     C
C      0.74653  0.67697  0.88447     C
N      0.76097  0.88048  0.33313     N
H      0.77057  0.81303  0.33363     H
H      0.77057  0.95753  0.33363     H
N      0.77453  0.10867  0.81877     N
N      0.77453  0.66587  0.81877     N
N      0.77533  0.10787  0.51457     N
N      0.77533  0.66747  0.51457     N
C      0.78543  0.30227  0.66697     C
C      0.78543  0.48317  0.66697     C
N      0.78618  0.21382  0.66647     N
N      0.78618  0.57237  0.66647     N
C       0.7864   0.3932   0.9995     C
C      0.79067  0.85293  0.33353     C
C      0.79067  0.93773  0.33353     C
H       0.7973   0.3245   0.9997     H
H       0.7973   0.4728   0.9997     H
H      0.80613  0.34217  0.66697     H
H      0.80613  0.46397  0.66697     H
H      0.81303  0.04247  0.66637     H
H      0.81303  0.77057  0.66637     H
C      0.81373  0.27107  0.66687     C
C      0.81373  0.54267  0.66687     C
C       0.8165   0.3644   0.9997     C
C       0.8165   0.4521   0.9997     C
Fe     0.83333  0.16667  0.66667    Fe
Fe     0.83333  0.66667  0.66667    Fe
C      0.85017  0.88123  0.33363     C
C      0.85017  0.96893  0.33363     C
C      0.85293  0.06227  0.66647     C
C      0.85293  0.79067  0.66647     C
H      0.85363  0.29087  0.66697     H
H      0.85363  0.56277  0.66697     H
H      0.86053  0.86937  0.66637     H
H      0.86053  0.99117  0.66637     H
H      0.86937  0.00883  0.33363     H
H      0.86937  0.86053  0.33363     H
C        0.876   0.3956   0.9998     C
C        0.876   0.4804   0.9998     C
C      0.88027  0.94013  0.33383     C
N      0.88048  0.11952  0.66687     N
N      0.88048  0.76097  0.66687     N
C      0.88123  0.03107  0.66637     C
C      0.88123  0.85017  0.66637     C
N      0.89133  0.22547  0.81877     N
N      0.89133  0.66587  0.81877     N
N      0.89213  0.22467  0.51457     N
N      0.89213  0.66747  0.51457     N
H       0.8961   0.3758   0.9997     H
H       0.8961   0.5203   0.9997     H
N       0.9057  0.45285   0.0002     N
C      0.92013  0.26377  0.44887     C
C      0.92013  0.65637  0.44887     C
C      0.93043  0.25347  0.88447     C
C      0.93043  0.67697  0.88447     C
C      0.93773  0.14707  0.66647     C
C      0.93773  0.79067  0.66647     C
C      0.94013  0.05987  0.66617     C
C      0.94013  0.88027  0.66617     C
N      0.94115  0.97058  0.66627     N
C      0.94387  0.97193  0.33483     C
H      0.95753  0.18697  0.66637     H
H      0.95753  0.77057  0.66637     H
Au     0.96009  0.33333  0.33333    Au
Au     0.96009  0.62675  0.33333    Au
C      0.96893  0.11877  0.66637     C
C      0.96893  0.85017  0.66637     C
N      0.97058  0.02942  0.33373     N
N      0.97058  0.94115  0.33373     N
C      0.97193  0.02807  0.66517     C
C      0.97193  0.94387  0.66517     C
C       0.9897   0.4029   0.2178     C
C       0.9897   0.5868   0.2178     C
H      0.99117  0.13063  0.33363     H
H      0.99117  0.86053  0.33363     H
N       0.9992   0.4412   0.8479     N
N       0.9992    0.558   0.8479     N
