data_I
_chemical_name_common  '/home/zhangsd/repos/MofS-CGCNN/ML/data/TSD/clean_cifs/YOYVOZ_clean'
_cell_length_a 26.40130
_cell_length_b 26.40130
_cell_length_c  9.66620
_cell_angle_alpha 90.00000
_cell_angle_beta  90.00000
_cell_angle_gamma 120.00000
_space_group_name_H-M_alt      'P 1'


loop_
_space_group_symop_operation_xyz
  'x, y, z' 

loop_
_atom_site_label
_atom_site_fract_x
_atom_site_fract_y
_atom_site_fract_z
_atom_site_type_symbol
Au         0.0  0.29228      0.0    Au
Fe         0.0      0.5      0.0    Fe
Au         0.0  0.70772      0.0    Au
N      0.00203  0.44507  0.85317     N
N      0.00203  0.55697  0.85317     N
H      0.00857  0.14293  0.66503     H
H      0.00857  0.86563  0.66503     H
C      0.01043  0.41547  0.78247     C
C      0.01043  0.59497  0.78247     C
C      0.02898  0.05797  0.33967     C
C      0.02898  0.97102  0.33967     C
N      0.03027  0.06053  0.66333     N
N      0.03027  0.96973  0.66333     N
C      0.03203  0.15357  0.33867     C
C      0.03203  0.87847  0.33867     C
Au     0.04105  0.37439  0.66667    Au
Au     0.04105  0.66667  0.66667    Au
H      0.04363  0.23347  0.34727     H
H      0.04363  0.81017  0.34727     H
C      0.05797  0.02898  0.66033     C
N      0.06053  0.03027  0.33667     N
C      0.06113  0.12227  0.34067     C
C      0.06113  0.93887  0.34067     C
C      0.06393  0.21317  0.34267     C
C      0.06393  0.85077  0.34267     C
C       0.0717   0.3229   0.1158     C
C       0.0717   0.7488   0.1158     C
C      0.08213  0.34377  0.55087     C
C      0.08213  0.73837  0.55087     C
N      0.08907  0.54453  0.00633     N
H      0.09987  0.47683  0.01393     H
H      0.09987  0.62303  0.01393     H
N       0.1097   0.3313   0.1865     N
N       0.1097   0.7784   0.1865     N
N      0.11173  0.33537  0.48017     N
N      0.11173  0.77637  0.48017     N
C      0.12017  0.51743  0.00933     C
C      0.12017  0.60273  0.00933     C
C      0.12153  0.15357  0.33867     C
C      0.12153  0.96797  0.33867     C
N      0.12213  0.24427  0.33967     N
N      0.12213  0.87787  0.33967     N
C      0.12227  0.06113  0.65933     C
H      0.13437  0.14293  0.66503     H
H      0.13437  0.99143  0.66503     H
H      0.14293  0.00857  0.33497     H
H      0.14293  0.13437  0.33497     H
H       0.1435   0.4332   0.3194     H
H       0.1435   0.7103   0.3194     H
C      0.14923  0.21317  0.34267     C
C      0.14923  0.93607  0.34267     C
C      0.15357  0.03203  0.66133     C
C      0.15357  0.12153  0.66133     C
Fe     0.16667  0.33333  0.33333    Fe
Fe     0.16667  0.83333  0.33333    Fe
C      0.17977  0.54513  0.00533     C
C      0.17977  0.63463  0.00533     C
C       0.1841   0.4535    0.324     C
C       0.1841   0.7306    0.324     C
H      0.18983  0.23347  0.34727     H
H      0.18983  0.95637  0.34727     H
H       0.1904   0.5323   0.3317     H
H       0.1904   0.6581   0.3317     H
H      0.19897  0.52373  0.00163     H
H      0.19897  0.67523  0.00163     H
C      0.21107  0.60553  0.00733     C
N       0.2112   0.4224    0.327     N
N       0.2112   0.7888    0.327     N
C       0.2118   0.5131    0.328     C
C       0.2118   0.6987    0.328     C
C      0.21317  0.06393  0.65733     C
C      0.21317  0.14923  0.65733     C
N       0.2216   0.3313   0.1865     N
N       0.2216   0.8903   0.1865     N
N      0.22363  0.33537  0.48017     N
N      0.22363  0.88827  0.48017     N
H      0.23347  0.04363  0.65273     H
H      0.23347  0.18983  0.65273     H
N      0.24427  0.12213  0.66033     N
C       0.2512   0.3229   0.1158     C
C       0.2512   0.9283   0.1158     C
C      0.26163  0.34377  0.55087     C
C      0.26163  0.91787  0.55087     C
C       0.2694   0.4535    0.324     C
C       0.2694   0.8159    0.324     C
C       0.2722   0.5444    0.326     C
C       0.2722   0.7278    0.326     C
N       0.2728   0.6364     0.33     N
C      0.27537  0.63768  0.00633     C
H       0.2897   0.4332   0.3194     H
H       0.2897   0.8565   0.3194     H
Au     0.29228      0.0      0.0    Au
Au     0.29228  0.29228      0.0    Au
C       0.3013   0.5131    0.328     C
C       0.3013   0.7882    0.328     C
N      0.30307  0.60613  0.00333     N
N      0.30307  0.69693  0.00333     N
C      0.30435   0.6087    0.327     C
C      0.30435  0.69565    0.327     C
C       0.3229   0.0717   0.8842     C
C       0.3229   0.2512   0.8842     C
H      0.32477  0.52373  0.00163     H
H      0.32477  0.80103  0.00163     H
N       0.3313   0.1097   0.8135     N
N       0.3313   0.2216   0.8135     N
Fe     0.33333  0.16667  0.66667    Fe
Au     0.33333  0.37439  0.66667    Au
Au     0.33333  0.95895  0.66667    Au
N      0.33537  0.11173  0.51983     N
N      0.33537  0.22363  0.51983     N
H       0.3419   0.5323   0.3317     H
H       0.3419   0.8096   0.3317     H
C      0.34377  0.08213  0.44913     C
C      0.34377  0.26163  0.44913     C
C      0.36232  0.63768  0.00633     C
C      0.36232  0.72463  0.00633     C
N       0.3636   0.6364     0.33     N
N       0.3636   0.7272     0.33     N
C      0.36537  0.54513  0.00533     C
C      0.36537  0.82023  0.00533     C
Au     0.37439  0.04105  0.33333    Au
Au     0.37439  0.33333  0.33333    Au
H      0.37697  0.47683  0.01393     H
H      0.37697  0.90013  0.01393     H
C       0.3913  0.69565    0.327     C
N      0.39387  0.69693  0.00333     N
C      0.39447  0.60553  0.00733     C
C      0.39447  0.78893  0.00733     C
C      0.39727  0.51743  0.00933     C
C      0.39727  0.87983  0.00933     C
C      0.40503  0.41547  0.78247     C
C      0.40503  0.98957  0.78247     C
C      0.41547  0.01043  0.21753     C
C      0.41547  0.40503  0.21753     C
N       0.4224   0.2112    0.673     N
H       0.4332   0.1435   0.6806     H
H       0.4332   0.2897   0.6806     H
N      0.44303  0.44507  0.85317     N
N      0.44303  0.99797  0.85317     N
N      0.44507  0.00203  0.14683     N
N      0.44507  0.44303  0.14683     N
C       0.4535   0.1841    0.676     C
C       0.4535   0.2694    0.676     C
C      0.45487  0.63463  0.00533     C
C      0.45487  0.82023  0.00533     C
N      0.45547  0.54453  0.00633     N
N      0.45547  0.91093  0.00633     N
C       0.4556   0.7278    0.326     C
H       0.4677   0.6581   0.3317     H
H       0.4677   0.8096   0.3317     H
H      0.47627  0.67523  0.00163     H
H      0.47627  0.80103  0.00163     H
H      0.47683  0.09987  0.98607     H
H      0.47683  0.37697  0.98607     H
C      0.48257  0.60273  0.00933     C
C      0.48257  0.87983  0.00933     C
C       0.4869   0.6987    0.328     C
C       0.4869   0.7882    0.328     C
Fe         0.5      0.0      0.0    Fe
Fe         0.5      0.5      0.0    Fe
C       0.5131   0.2118    0.672     C
C       0.5131   0.3013    0.672     C
C      0.51743  0.12017  0.99067     C
C      0.51743  0.39727  0.99067     C
H      0.52317  0.62303  0.01393     H
H      0.52317  0.90013  0.01393     H
H      0.52373  0.19897  0.99837     H
H      0.52373  0.32477  0.99837     H
H       0.5323   0.1904   0.6683     H
H       0.5323   0.3419   0.6683     H
C       0.5444   0.2722    0.674     C
N      0.54453  0.08907  0.99367     N
N      0.54453  0.45547  0.99367     N
C      0.54513  0.17977  0.99467     C
C      0.54513  0.36537  0.99467     C
C       0.5465   0.7306    0.324     C
C       0.5465   0.8159    0.324     C
N      0.55493  0.55697  0.85317     N
N      0.55493  0.99797  0.85317     N
N      0.55697  0.00203  0.14683     N
N      0.55697  0.55493  0.14683     N
H       0.5668   0.7103   0.3194     H
H       0.5668   0.8565   0.3194     H
N       0.5776   0.7888    0.327     N
C      0.58453  0.59497  0.78247     C
C      0.58453  0.98957  0.78247     C
C      0.59497  0.01043  0.21753     C
C      0.59497  0.58453  0.21753     C
C      0.60273  0.12017  0.99067     C
C      0.60273  0.48257  0.99067     C
C      0.60553  0.21107  0.99267     C
C      0.60553  0.39447  0.99267     C
N      0.60613  0.30307  0.99667     N
C       0.6087  0.30435    0.673     C
H      0.62303  0.09987  0.98607     H
H      0.62303  0.52317  0.98607     H
Au     0.62561  0.66667  0.66667    Au
Au     0.62561  0.95895  0.66667    Au
C      0.63463  0.17977  0.99467     C
C      0.63463  0.45487  0.99467     C
N       0.6364   0.2728     0.67     N
N       0.6364   0.3636     0.67     N
C      0.63768  0.27537  0.99367     C
C      0.63768  0.36232  0.99367     C
C      0.65623  0.73837  0.55087     C
C      0.65623  0.91787  0.55087     C
H       0.6581   0.1904   0.6683     H
H       0.6581   0.4677   0.6683     H
N      0.66463  0.77637  0.48017     N
N      0.66463  0.88827  0.48017     N
Au     0.66667  0.04105  0.33333    Au
Au     0.66667  0.62561  0.33333    Au
Fe     0.66667  0.83333  0.33333    Fe
N       0.6687   0.7784   0.1865     N
N       0.6687   0.8903   0.1865     N
H      0.67523  0.19897  0.99837     H
H      0.67523  0.47627  0.99837     H
C       0.6771   0.7488   0.1158     C
C       0.6771   0.9283   0.1158     C
C      0.69565  0.30435    0.673     C
C      0.69565   0.3913    0.673     C
N      0.69693  0.30307  0.99667     N
N      0.69693  0.39387  0.99667     N
C       0.6987   0.2118    0.672     C
C       0.6987   0.4869    0.672     C
Au     0.70772      0.0      0.0    Au
Au     0.70772  0.70772      0.0    Au
H       0.7103   0.1435   0.6806     H
H       0.7103   0.5668   0.6806     H
C      0.72463  0.36232  0.99367     C
N       0.7272   0.3636     0.67     N
C       0.7278   0.2722    0.674     C
C       0.7278   0.4556    0.674     C
C       0.7306   0.1841    0.676     C
C       0.7306   0.5465    0.676     C
C      0.73837  0.08213  0.44913     C
C      0.73837  0.65623  0.44913     C
C       0.7488   0.0717   0.8842     C
C       0.7488   0.6771   0.8842     C
N      0.75573  0.87787  0.33967     N
H      0.76653  0.81017  0.34727     H
H      0.76653  0.95637  0.34727     H
N      0.77637  0.11173  0.51983     N
N      0.77637  0.66463  0.51983     N
N       0.7784   0.1097   0.8135     N
N       0.7784   0.6687   0.8135     N
C      0.78683  0.85077  0.34267     C
C      0.78683  0.93607  0.34267     C
C       0.7882   0.3013    0.672     C
C       0.7882   0.4869    0.672     C
N       0.7888   0.2112    0.673     N
N       0.7888   0.5776    0.673     N
C      0.78893  0.39447  0.99267     C
H      0.80103  0.32477  0.99837     H
H      0.80103  0.47627  0.99837     H
H       0.8096   0.3419   0.6683     H
H       0.8096   0.4677   0.6683     H
H      0.81017  0.04363  0.65273     H
H      0.81017  0.76653  0.65273     H
C       0.8159   0.2694    0.676     C
C       0.8159   0.5465    0.676     C
C      0.82023  0.36537  0.99467     C
C      0.82023  0.45487  0.99467     C
Fe     0.83333  0.16667  0.66667    Fe
Fe     0.83333  0.66667  0.66667    Fe
C      0.84643  0.87847  0.33867     C
C      0.84643  0.96797  0.33867     C
C      0.85077  0.06393  0.65733     C
C      0.85077  0.78683  0.65733     C
H       0.8565   0.2897   0.6806     H
H       0.8565   0.5668   0.6806     H
H      0.85707  0.86563  0.66503     H
H      0.85707  0.99143  0.66503     H
H      0.86563  0.00857  0.33497     H
H      0.86563  0.85707  0.33497     H
C      0.87773  0.93887  0.34067     C
N      0.87787  0.12213  0.66033     N
N      0.87787  0.75573  0.66033     N
C      0.87847  0.03203  0.66133     C
C      0.87847  0.84643  0.66133     C
C      0.87983  0.39727  0.99067     C
C      0.87983  0.48257  0.99067     C
N      0.88827  0.22363  0.51983     N
N      0.88827  0.66463  0.51983     N
N       0.8903   0.2216   0.8135     N
N       0.8903   0.6687   0.8135     N
H      0.90013  0.37697  0.98607     H
H      0.90013  0.52317  0.98607     H
N      0.91093  0.45547  0.99367     N
C      0.91787  0.26163  0.44913     C
C      0.91787  0.65623  0.44913     C
C       0.9283   0.2512   0.8842     C
C       0.9283   0.6771   0.8842     C
C      0.93607  0.14923  0.65733     C
C      0.93607  0.78683  0.65733     C
C      0.93887  0.06113  0.65933     C
C      0.93887  0.87773  0.65933     C
N      0.93947  0.96973  0.66333     N
C      0.94203  0.97102  0.33967     C
H      0.95637  0.18983  0.65273     H
H      0.95637  0.76653  0.65273     H
Au     0.95895  0.33333  0.33333    Au
Au     0.95895  0.62561  0.33333    Au
C      0.96797  0.12153  0.66133     C
C      0.96797  0.84643  0.66133     C
N      0.96973  0.03027  0.33667     N
N      0.96973  0.93947  0.33667     N
C      0.97102  0.02898  0.66033     C
C      0.97102  0.94203  0.66033     C
C      0.98957  0.40503  0.21753     C
C      0.98957  0.58453  0.21753     C
H      0.99143  0.13437  0.33497     H
H      0.99143  0.85707  0.33497     H
N      0.99797  0.44303  0.14683     N
N      0.99797  0.55493  0.14683     N
