data_I
_chemical_name_common  '/home/zhangsd/repos/MofS-CGCNN/ML/data/TSD/clean_cifs/YUFLIW_clean'
_cell_length_a 11.99300
_cell_length_b 19.63200
_cell_length_c 18.14300
_cell_angle_alpha 90.00000
_cell_angle_beta  102.06000
_cell_angle_gamma 90.00000
_space_group_name_H-M_alt      'P 1'


loop_
_space_group_symop_operation_xyz
  'x, y, z' 

loop_
_atom_site_label
_atom_site_fract_x
_atom_site_fract_y
_atom_site_fract_z
_atom_site_type_symbol
O          0.0  0.20246     0.25     O
O          0.0  0.79754     0.75     O
C       0.0053  0.03395  0.43301     C
C       0.0053  0.96605  0.93301     C
H         0.01    0.227    0.212     H
H         0.01    0.773    0.712     H
C       0.0111  0.07152  0.36188     C
C       0.0111  0.92848  0.86188     C
H       0.0247   0.3059   0.0405     H
H       0.0247   0.6941   0.5405     H
O       0.0458  0.31423  0.00128     O
O       0.0458  0.68577  0.50128     O
O       0.0539  0.25952  0.12978     O
O       0.0539  0.74048  0.62978     O
O       0.0816  0.08209  0.18369     O
O       0.0816  0.91791  0.68369     O
C       0.0993  0.02682  0.04478     C
C       0.0993  0.97318  0.54478     C
C       0.1042  0.00745   0.4787     C
C       0.1042  0.99255   0.9787     C
O       0.1076  0.08926  0.35257     O
O       0.1076  0.91074  0.85257     O
C       0.1486  0.28356    0.003     C
C       0.1486  0.71644    0.503     C
C       0.1501  0.23288  0.13098     C
C       0.1501  0.76712  0.63098     C
Mg     0.15625  0.14529  0.26926    Mg
Mg     0.15625  0.85471  0.76926    Mg
O       0.1581   0.3379   0.8927     O
O       0.1581   0.6621   0.3927     O
H       0.1926   0.0663   0.1239     H
H       0.1926   0.9337   0.6239     H
C       0.1986  0.29193  0.94123     C
C       0.1986  0.70807  0.44123     C
H       0.2001   0.3423   0.8627     H
H       0.2001   0.6577   0.3627     H
C       0.2007  0.24174  0.06241     C
C       0.2007  0.75826  0.56241     C
O       0.2017   0.0464   0.0859     O
O       0.2017   0.9536   0.5859     O
H       0.2057   0.0325    0.423     H
H       0.2057   0.9675    0.923     H
O       0.2064  0.20021   0.1853     O
O       0.2064  0.79979   0.6853     O
O       0.2096   0.0116   0.4626     O
O       0.2096   0.9884   0.9626     O
O       0.2904   0.4884   0.5374     O
O       0.2904   0.5116   0.0374     O
O       0.2936  0.29979   0.8147     O
O       0.2936  0.70021   0.3147     O
H       0.2943   0.4675    0.577     H
H       0.2943   0.5325    0.077     H
O       0.2983   0.4536   0.9141     O
O       0.2983   0.5464   0.4141     O
C       0.2993  0.25826  0.93759     C
C       0.2993  0.74174  0.43759     C
H       0.2999   0.1577   0.1373     H
H       0.2999   0.8423   0.6373     H
C       0.3014  0.20807  0.05877     C
C       0.3014  0.79193  0.55877     C
H       0.3074   0.4337   0.8761     H
H       0.3074   0.5663   0.3761     H
O       0.3419   0.1621   0.1073     O
O       0.3419   0.8379   0.6073     O
Mg     0.34375  0.35471  0.73074    Mg
Mg     0.34375  0.64529  0.23074    Mg
C       0.3499  0.26712  0.86902     C
C       0.3499  0.73288  0.36902     C
C       0.3514  0.21644    0.997     C
C       0.3514  0.78356    0.497     C
O       0.3924  0.41074  0.64743     O
O       0.3924  0.58926  0.14743     O
C       0.3958  0.49255   0.5213     C
C       0.3958  0.50745   0.0213     C
C       0.4007  0.47318  0.95522     C
C       0.4007  0.52682  0.45522     C
O       0.4184  0.41791  0.81631     O
O       0.4184  0.58209  0.31631     O
O       0.4461  0.24048  0.87022     O
O       0.4461  0.75952  0.37022     O
O       0.4542  0.18577  0.99872     O
O       0.4542  0.81423  0.49872     O
H       0.4753   0.1941   0.9595     H
H       0.4753   0.8059   0.4595     H
C       0.4889  0.42848  0.63812     C
C       0.4889  0.57152  0.13812     C
H         0.49    0.273    0.788     H
H         0.49    0.727    0.288     H
C       0.4947  0.46605  0.56699     C
C       0.4947  0.53395  0.06699     C
O          0.5  0.29754     0.75     O
O          0.5  0.70246     0.25     O
C       0.5053  0.46605  0.93301     C
C       0.5053  0.53395  0.43301     C
H         0.51    0.273    0.712     H
H         0.51    0.727    0.212     H
C       0.5111  0.42848  0.86188     C
C       0.5111  0.57152  0.36188     C
H       0.5247   0.1941   0.5405     H
H       0.5247   0.8059   0.0405     H
O       0.5458  0.18577  0.50128     O
O       0.5458  0.81423  0.00128     O
O       0.5539  0.24048  0.62978     O
O       0.5539  0.75952  0.12978     O
O       0.5816  0.41791  0.68369     O
O       0.5816  0.58209  0.18369     O
C       0.5993  0.47318  0.54478     C
C       0.5993  0.52682  0.04478     C
C       0.6042  0.49255   0.9787     C
C       0.6042  0.50745   0.4787     C
O       0.6076  0.41074  0.85257     O
O       0.6076  0.58926  0.35257     O
C       0.6486  0.21644    0.503     C
C       0.6486  0.78356    0.003     C
C       0.6501  0.26712  0.63098     C
C       0.6501  0.73288  0.13098     C
Mg     0.65625  0.35471  0.76926    Mg
Mg     0.65625  0.64529  0.26926    Mg
O       0.6581   0.1621   0.3927     O
O       0.6581   0.8379   0.8927     O
H       0.6926   0.4337   0.6239     H
H       0.6926   0.5663   0.1239     H
C       0.6986  0.20807  0.44123     C
C       0.6986  0.79193  0.94123     C
H       0.7001   0.1577   0.3627     H
H       0.7001   0.8423   0.8627     H
C       0.7007  0.25826  0.56241     C
C       0.7007  0.74174  0.06241     C
O       0.7017   0.4536   0.5859     O
O       0.7017   0.5464   0.0859     O
H       0.7057   0.4675    0.923     H
H       0.7057   0.5325    0.423     H
O       0.7064  0.29979   0.6853     O
O       0.7064  0.70021   0.1853     O
O       0.7096   0.4884   0.9626     O
O       0.7096   0.5116   0.4626     O
O       0.7904   0.0116   0.0374     O
O       0.7904   0.9884   0.5374     O
O       0.7936  0.20021   0.3147     O
O       0.7936  0.79979   0.8147     O
H       0.7943   0.0325    0.077     H
H       0.7943   0.9675    0.577     H
O       0.7983   0.0464   0.4141     O
O       0.7983   0.9536   0.9141     O
C       0.7993  0.24174  0.43759     C
C       0.7993  0.75826  0.93759     C
H       0.7999   0.3423   0.6373     H
H       0.7999   0.6577   0.1373     H
C       0.8014  0.29193  0.55877     C
C       0.8014  0.70807  0.05877     C
H       0.8074   0.0663   0.3761     H
H       0.8074   0.9337   0.8761     H
O       0.8419   0.3379   0.6073     O
O       0.8419   0.6621   0.1073     O
Mg     0.84375  0.14529  0.23074    Mg
Mg     0.84375  0.85471  0.73074    Mg
C       0.8499  0.23288  0.36902     C
C       0.8499  0.76712  0.86902     C
C       0.8514  0.28356    0.497     C
C       0.8514  0.71644    0.997     C
O       0.8924  0.08926  0.14743     O
O       0.8924  0.91074  0.64743     O
C       0.8958  0.00745   0.0213     C
C       0.8958  0.99255   0.5213     C
C       0.9007  0.02682  0.45522     C
C       0.9007  0.97318  0.95522     C
O       0.9184  0.08209  0.31631     O
O       0.9184  0.91791  0.81631     O
O       0.9461  0.25952  0.37022     O
O       0.9461  0.74048  0.87022     O
O       0.9542  0.31423  0.49872     O
O       0.9542  0.68577  0.99872     O
H       0.9753   0.3059   0.4595     H
H       0.9753   0.6941   0.9595     H
C       0.9889  0.07152  0.13812     C
C       0.9889  0.92848  0.63812     C
H         0.99    0.227    0.288     H
H         0.99    0.773    0.788     H
C       0.9947  0.03395  0.06699     C
C       0.9947  0.96605  0.56699     C
