data_I
_chemical_name_common  '/home/zhangsd/repos/MofS-CGCNN/ML/data/TSD/clean_cifs/YUHHIU_clean'
_cell_length_a 18.65900
_cell_length_b 11.25100
_cell_length_c 10.01500
_cell_angle_alpha 90.00000
_cell_angle_beta  114.12000
_cell_angle_gamma 90.00000
_space_group_name_H-M_alt      'P 1'


loop_
_space_group_symop_operation_xyz
  'x, y, z' 

loop_
_atom_site_label
_atom_site_fract_x
_atom_site_fract_y
_atom_site_fract_z
_atom_site_type_symbol
Ca         0.0      0.5      0.0    Ca
Ca         0.0      0.5      0.5    Ca
O      0.09261  0.47046  0.40521     O
O      0.09261  0.52954  0.90521     O
O      0.10095    0.414  0.19997     O
O      0.10095    0.586  0.69997     O
C      0.12253  0.41083  0.33738     C
C      0.12253  0.58917  0.83738     C
H       0.1588      0.3    0.168     H
H       0.1588      0.7    0.668     H
C      0.18939  0.32822   0.4203     C
C      0.18939  0.67178   0.9203     C
O      0.19015  0.24307  0.19885     O
O      0.19015  0.75693  0.69885     O
H       0.2023   0.3823   0.6207     H
H       0.2023   0.6177   0.1207     H
C      0.21849  0.24807  0.34712     C
C      0.21849  0.75193  0.84712     C
C      0.22147  0.32906  0.57221     C
C      0.22147  0.67094  0.07221     C
C      0.27853  0.17094  0.42779     C
C      0.27853  0.82906  0.92779     C
C      0.28151  0.25193  0.65288     C
C      0.28151  0.74807  0.15288     C
H       0.2977   0.1177   0.3793     H
H       0.2977   0.8823   0.8793     H
O      0.30985  0.25693  0.80115     O
O      0.30985  0.74307  0.30115     O
C      0.31061  0.17178   0.5797     C
C      0.31061  0.82822   0.0797     C
H       0.3412      0.2    0.832     H
H       0.3412      0.8    0.332     H
C      0.37747  0.08917  0.66262     C
C      0.37747  0.91083  0.16262     C
O      0.39905    0.086  0.80003     O
O      0.39905    0.914  0.30003     O
O      0.40739  0.02954  0.59479     O
O      0.40739  0.97046  0.09479     O
Ca         0.5      0.0      0.0    Ca
Ca         0.5      0.0      0.5    Ca
O      0.59261  0.02954  0.90521     O
O      0.59261  0.97046  0.40521     O
O      0.60095    0.086  0.69997     O
O      0.60095    0.914  0.19997     O
C      0.62253  0.08917  0.83738     C
C      0.62253  0.91083  0.33738     C
H       0.6588      0.2    0.668     H
H       0.6588      0.8    0.168     H
C      0.68939  0.17178   0.9203     C
C      0.68939  0.82822   0.4203     C
O      0.69015  0.25693  0.69885     O
O      0.69015  0.74307  0.19885     O
H       0.7023   0.1177   0.1207     H
H       0.7023   0.8823   0.6207     H
C      0.71849  0.25193  0.84712     C
C      0.71849  0.74807  0.34712     C
C      0.72147  0.17094  0.07221     C
C      0.72147  0.82906  0.57221     C
C      0.77853  0.32906  0.92779     C
C      0.77853  0.67094  0.42779     C
C      0.78151  0.24807  0.15288     C
C      0.78151  0.75193  0.65288     C
H       0.7977   0.3823   0.8793     H
H       0.7977   0.6177   0.3793     H
O      0.80985  0.24307  0.30115     O
O      0.80985  0.75693  0.80115     O
C      0.81061  0.32822   0.0797     C
C      0.81061  0.67178   0.5797     C
H       0.8412      0.3    0.332     H
H       0.8412      0.7    0.832     H
C      0.87747  0.41083  0.16262     C
C      0.87747  0.58917  0.66262     C
O      0.89905    0.414  0.30003     O
O      0.89905    0.586  0.80003     O
O      0.90739  0.47046  0.09479     O
O      0.90739  0.52954  0.59479     O
