data_I
_chemical_name_common  '/home/zhangsd/repos/MofS-CGCNN/ML/data/TSD/clean_cifs/YUKVUW_clean'
_cell_length_a  8.34930
_cell_length_b 11.72760
_cell_length_c  8.90890
_cell_angle_alpha 90.00000
_cell_angle_beta  90.00000
_cell_angle_gamma 90.00000
_space_group_name_H-M_alt      'P 1'


loop_
_space_group_symop_operation_xyz
  'x, y, z' 

loop_
_atom_site_label
_atom_site_fract_x
_atom_site_fract_y
_atom_site_fract_z
_atom_site_type_symbol
C       0.0226  0.22178   0.5161     C
C       0.0226  0.27822   0.9839     C
O      0.06379  0.19234  0.38746     O
O      0.06379  0.30766  0.11254     O
H       0.0833   0.2222   0.9367     H
H       0.0833   0.2778   0.5633     H
O      0.09328  0.68209  0.08641     O
O      0.09328  0.81791  0.41359     O
O      0.24239  0.59416  0.36451     O
O      0.24239  0.90584  0.13549     O
Zn     0.24435     0.75     0.25    Zn
C         0.25      0.0   0.1981     C
H         0.25      0.0   0.3025     H
H         0.25      0.5   0.1975     H
C         0.25      0.5   0.3019     C
Zn     0.25565     0.25     0.25    Zn
O      0.25761  0.09416  0.13549     O
O      0.25761  0.40584  0.36451     O
O      0.40672  0.18209  0.41359     O
O      0.40672  0.31791  0.08641     O
H       0.4167   0.7222   0.5633     H
H       0.4167   0.7778   0.9367     H
O      0.43621  0.69234  0.11254     O
O      0.43621  0.80766  0.38746     O
C       0.4774  0.72178   0.9839     C
C       0.4774  0.77822   0.5161     C
C       0.5226  0.22178   0.4839     C
C       0.5226  0.27822   0.0161     C
O      0.56379  0.19234  0.61254     O
O      0.56379  0.30766  0.88746     O
H       0.5833   0.2222   0.0633     H
H       0.5833   0.2778   0.4367     H
O      0.59328  0.68209  0.91359     O
O      0.59328  0.81791  0.58641     O
O      0.74239  0.59416  0.63549     O
O      0.74239  0.90584  0.86451     O
Zn     0.74435     0.75     0.75    Zn
H         0.75      0.0   0.6975     H
C         0.75      0.0   0.8019     C
C         0.75      0.5   0.6981     C
H         0.75      0.5   0.8025     H
Zn     0.75565     0.25     0.75    Zn
O      0.75761  0.09416  0.86451     O
O      0.75761  0.40584  0.63549     O
O      0.90672  0.18209  0.58641     O
O      0.90672  0.31791  0.91359     O
H       0.9167   0.7222   0.4367     H
H       0.9167   0.7778   0.0633     H
O      0.93621  0.69234  0.88746     O
O      0.93621  0.80766  0.61254     O
C       0.9774  0.72178   0.0161     C
C       0.9774  0.77822   0.4839     C
