data_I
_chemical_name_common  '/home/zhangsd/repos/MofS-CGCNN/ML/data/TSD/clean_cifs/YUKVEG_clean'
_cell_length_a  8.33430
_cell_length_b 11.75300
_cell_length_c  8.91110
_cell_angle_alpha 90.00000
_cell_angle_beta  90.00000
_cell_angle_gamma 90.00000
_space_group_name_H-M_alt      'P 1'


loop_
_space_group_symop_operation_xyz
  'x, y, z' 

loop_
_atom_site_label
_atom_site_fract_x
_atom_site_fract_y
_atom_site_fract_z
_atom_site_type_symbol
C       0.0234  0.22225   0.5165     C
C       0.0234  0.27775   0.9835     C
O       0.0646  0.19227   0.3881     O
O       0.0646  0.30773   0.1119     O
H       0.0841   0.2217   0.9366     H
H       0.0841   0.2783   0.5634     H
O      0.09312  0.68273  0.08668     O
O      0.09312  0.81727  0.41332     O
O      0.24329  0.59434  0.36555     O
O      0.24329  0.90566  0.13445     O
Co     0.24629     0.75     0.25    Co
C         0.25      0.0    0.197     C
H         0.25      0.0   0.3014     H
H         0.25      0.5   0.1986     H
C         0.25      0.5    0.303     C
Co     0.25371     0.25     0.25    Co
O      0.25671  0.09434  0.13445     O
O      0.25671  0.40566  0.36555     O
O      0.40688  0.18273  0.41332     O
O      0.40688  0.31727  0.08668     O
H       0.4159   0.7217   0.5634     H
H       0.4159   0.7783   0.9366     H
O       0.4354  0.69227   0.1119     O
O       0.4354  0.80773   0.3881     O
C       0.4766  0.72225   0.9835     C
C       0.4766  0.77775   0.5165     C
C       0.5234  0.22225   0.4835     C
C       0.5234  0.27775   0.0165     C
O       0.5646  0.19227   0.6119     O
O       0.5646  0.30773   0.8881     O
H       0.5841   0.2217   0.0634     H
H       0.5841   0.2783   0.4366     H
O      0.59312  0.68273  0.91332     O
O      0.59312  0.81727  0.58668     O
O      0.74329  0.59434  0.63445     O
O      0.74329  0.90566  0.86555     O
Co     0.74629     0.75     0.75    Co
H         0.75      0.0   0.6986     H
C         0.75      0.0    0.803     C
C         0.75      0.5    0.697     C
H         0.75      0.5   0.8014     H
Co     0.75371     0.25     0.75    Co
O      0.75671  0.09434  0.86555     O
O      0.75671  0.40566  0.63445     O
O      0.90688  0.18273  0.58668     O
O      0.90688  0.31727  0.91332     O
H       0.9159   0.7217   0.4366     H
H       0.9159   0.7783   0.0634     H
O       0.9354  0.69227   0.8881     O
O       0.9354  0.80773   0.6119     O
C       0.9766  0.72225   0.0165     C
C       0.9766  0.77775   0.4835     C
