data_I
_chemical_name_common  '/home/zhangsd/repos/MofS-CGCNN/ML/data/TSD/clean_cifs/YUKVIK_clean'
_cell_length_a  8.26100
_cell_length_b 11.64140
_cell_length_c  8.83320
_cell_angle_alpha 90.00000
_cell_angle_beta  90.00000
_cell_angle_gamma 90.00000
_space_group_name_H-M_alt      'P 1'


loop_
_space_group_symop_operation_xyz
  'x, y, z' 

loop_
_atom_site_label
_atom_site_fract_x
_atom_site_fract_y
_atom_site_fract_z
_atom_site_type_symbol
C       0.0248  0.22462    0.517     C
C       0.0248  0.27538    0.983     C
O      0.06754  0.19269  0.38831     O
O      0.06754  0.30731  0.11169     O
H       0.0842   0.2172   0.9369     H
H       0.0842   0.2828   0.5631     H
O      0.09219  0.68375  0.08803     O
O      0.09219  0.81625  0.41197     O
O       0.2443    0.595  0.36248     O
O       0.2443    0.905  0.13752     O
Ni     0.24595     0.75     0.25    Ni
C         0.25      0.0   0.2007     C
H         0.25      0.0    0.306     H
H         0.25      0.5    0.194     H
C         0.25      0.5   0.2993     C
Ni     0.25405     0.25     0.25    Ni
O       0.2557    0.095  0.13752     O
O       0.2557    0.405  0.36248     O
O      0.40781  0.18375  0.41197     O
O      0.40781  0.31625  0.08803     O
H       0.4158   0.7172   0.5631     H
H       0.4158   0.7828   0.9369     H
O      0.43246  0.69269  0.11169     O
O      0.43246  0.80731  0.38831     O
C       0.4752  0.72462    0.983     C
C       0.4752  0.77538    0.517     C
C       0.5248  0.22462    0.483     C
C       0.5248  0.27538    0.017     C
O      0.56754  0.19269  0.61169     O
O      0.56754  0.30731  0.88831     O
H       0.5842   0.2172   0.0631     H
H       0.5842   0.2828   0.4369     H
O      0.59219  0.68375  0.91197     O
O      0.59219  0.81625  0.58803     O
O       0.7443    0.595  0.63752     O
O       0.7443    0.905  0.86248     O
Ni     0.74595     0.75     0.75    Ni
H         0.75      0.0    0.694     H
C         0.75      0.0   0.7993     C
C         0.75      0.5   0.7007     C
H         0.75      0.5    0.806     H
Ni     0.75405     0.25     0.75    Ni
O       0.7557    0.095  0.86248     O
O       0.7557    0.405  0.63752     O
O      0.90781  0.18375  0.58803     O
O      0.90781  0.31625  0.91197     O
H       0.9158   0.7172   0.4369     H
H       0.9158   0.7828   0.0631     H
O      0.93246  0.69269  0.88831     O
O      0.93246  0.80731  0.61169     O
C       0.9752  0.72462    0.017     C
C       0.9752  0.77538    0.483     C
