data_I
_chemical_name_common  '/home/zhangsd/repos/MofS-CGCNN/ML/data/TSD/clean_cifs/YUKVAC_clean'
_cell_length_a  8.41560
_cell_length_b 11.85040
_cell_length_c  8.94740
_cell_angle_alpha 90.00000
_cell_angle_beta  90.00000
_cell_angle_gamma 90.00000
_space_group_name_H-M_alt      'P 1'


loop_
_space_group_symop_operation_xyz
  'x, y, z' 

loop_
_atom_site_label
_atom_site_fract_x
_atom_site_fract_y
_atom_site_fract_z
_atom_site_type_symbol
C       0.0217  0.22121   0.5169     C
C       0.0217  0.27879   0.9831     C
O        0.062  0.19299  0.38838     O
O        0.062  0.30701  0.11162     O
H       0.0831   0.2243   0.9355     H
H       0.0831   0.2757   0.5645     H
O      0.09336  0.68276  0.08689     O
O      0.09336  0.81724  0.41311     O
O      0.24369  0.59377  0.36867     O
O      0.24369  0.90623  0.13133     O
Fe     0.24757     0.75     0.25    Fe
C         0.25      0.0   0.1935     C
H         0.25      0.0   0.2974     H
H         0.25      0.5   0.2026     H
C         0.25      0.5   0.3065     C
Fe     0.25243     0.25     0.25    Fe
O      0.25631  0.09377  0.13133     O
O      0.25631  0.40623  0.36867     O
O      0.40664  0.18276  0.41311     O
O      0.40664  0.31724  0.08689     O
H       0.4169   0.7243   0.5645     H
H       0.4169   0.7757   0.9355     H
O        0.438  0.69299  0.11162     O
O        0.438  0.80701  0.38838     O
C       0.4783  0.72121   0.9831     C
C       0.4783  0.77879   0.5169     C
C       0.5217  0.22121   0.4831     C
C       0.5217  0.27879   0.0169     C
O        0.562  0.19299  0.61162     O
O        0.562  0.30701  0.88838     O
H       0.5831   0.2243   0.0645     H
H       0.5831   0.2757   0.4355     H
O      0.59336  0.68276  0.91311     O
O      0.59336  0.81724  0.58689     O
O      0.74369  0.59377  0.63133     O
O      0.74369  0.90623  0.86867     O
Fe     0.74757     0.75     0.75    Fe
H         0.75      0.0   0.7026     H
C         0.75      0.0   0.8065     C
C         0.75      0.5   0.6935     C
H         0.75      0.5   0.7974     H
Fe     0.75243     0.25     0.75    Fe
O      0.75631  0.09377  0.86867     O
O      0.75631  0.40623  0.63133     O
O      0.90664  0.18276  0.58689     O
O      0.90664  0.31724  0.91311     O
H       0.9169   0.7243   0.4355     H
H       0.9169   0.7757   0.0645     H
O        0.938  0.69299  0.88838     O
O        0.938  0.80701  0.61162     O
C       0.9783  0.72121   0.0169     C
C       0.9783  0.77879   0.4831     C
