data_I
_chemical_name_common  '/home/zhangsd/repos/MofS-CGCNN/ML/data/TSD/clean_cifs/YUNJEX_clean'
_cell_length_a  6.74180
_cell_length_b 12.14300
_cell_length_c 13.04000
_cell_angle_alpha 90.00000
_cell_angle_beta  90.00000
_cell_angle_gamma 90.00000
_space_group_name_H-M_alt      'P 1'


loop_
_space_group_symop_operation_xyz
  'x, y, z' 

loop_
_atom_site_label
_atom_site_fract_x
_atom_site_fract_y
_atom_site_fract_z
_atom_site_type_symbol
N       0.0209    0.277     0.13     N
H       0.0397   0.8297   0.8807     H
H       0.0434   0.7427   0.0409     H
C       0.0579   0.8186   0.0351     C
C       0.0591   0.8701   0.9405     C
H        0.071     0.81    0.609     H
N       0.0782   0.8364   0.2218     N
C       0.0789   0.8844   0.1204     C
C       0.0806   0.3121   0.2192     C
O       0.0812   0.7521   0.5738     O
C       0.0893   0.9816   0.9365     C
H       0.0937   0.0148   0.8723     H
C       0.1059   0.9956   0.1099     C
N        0.113   0.0455   0.0189     N
H       0.1198   0.0382   0.1688     H
H       0.1325   0.1761   0.7589     H
Cu     0.16735  0.23858   0.0012    Cu
N       0.1817   0.7786   0.3692     N
H       0.2128   0.3192   0.2394     H
C       0.2374   0.8147   0.2798     C
C       0.2626   0.1853   0.7798     C
H       0.2872   0.6808   0.7394     H
N       0.3183   0.2214   0.8692     N
Cu     0.33265  0.76142   0.5012    Cu
H       0.3675   0.8239   0.2589     H
H       0.3802   0.9618   0.6688     H
N        0.387   0.9545   0.5189     N
C       0.3941   0.0044   0.6099     C
H       0.4063   0.9852   0.3723     H
C       0.4107   0.0184   0.4365     C
O       0.4188   0.2479   0.0738     O
C       0.4194   0.6879   0.7192     C
C       0.4211   0.1156   0.6204     C
N       0.4218   0.1636   0.7218     N
H        0.429     0.19    0.109     H
C       0.4409   0.1299   0.4405     C
C       0.4421   0.1814   0.5351     C
H       0.4566   0.2573   0.5409     H
H       0.4603   0.1703   0.3807     H
N       0.4791    0.723     0.63     N
N       0.5209    0.223     0.87     N
H       0.5397   0.6703   0.1193     H
H       0.5434   0.7573   0.9591     H
C       0.5579   0.6814   0.9649     C
C       0.5591   0.6299   0.0595     C
H        0.571     0.69    0.391     H
N       0.5782   0.6636   0.7782     N
C       0.5789   0.6156   0.8796     C
C       0.5806   0.1879   0.7808     C
O       0.5812   0.7479   0.4262     O
C       0.5893   0.5184   0.0635     C
H       0.5937   0.4852   0.1277     H
C       0.6059   0.5044   0.8901     C
N        0.613   0.4545   0.9811     N
H       0.6198   0.4618   0.8312     H
H       0.6325   0.3239   0.2411     H
Cu     0.66735  0.26142   0.9988    Cu
N       0.6817   0.7214   0.6308     N
H       0.7128   0.1808   0.7606     H
C       0.7374   0.6853   0.7202     C
C       0.7626   0.3147   0.2202     C
H       0.7872   0.8192   0.2606     H
N       0.8183   0.2786   0.1308     N
Cu     0.83265  0.73858   0.4988    Cu
H       0.8675   0.6761   0.7411     H
H       0.8802   0.5382   0.3312     H
N        0.887   0.5455   0.4811     N
C       0.8941   0.4956   0.3901     C
H       0.9063   0.5148   0.6277     H
C       0.9107   0.4816   0.5635     C
O       0.9188   0.2521   0.9262     O
C       0.9194   0.8121   0.2808     C
C       0.9211   0.3844   0.3796     C
N       0.9218   0.3364   0.2782     N
H        0.929     0.31    0.891     H
C       0.9409   0.3701   0.5595     C
C       0.9421   0.3186   0.4649     C
H       0.9566   0.2427   0.4591     H
H       0.9603   0.3297   0.6193     H
N       0.9791    0.777     0.37     N
