data_I
_chemical_name_common  '/home/zhangsd/repos/MofS-CGCNN/ML/data/TSD/clean_cifs/YUNJIB_clean'
_cell_length_a  6.59100
_cell_length_b 11.07800
_cell_length_c 15.40800
_cell_angle_alpha 90.00000
_cell_angle_beta  90.00000
_cell_angle_gamma 90.00000
_space_group_name_H-M_alt      'P 1'


loop_
_space_group_symop_operation_xyz
  'x, y, z' 

loop_
_atom_site_label
_atom_site_fract_x
_atom_site_fract_y
_atom_site_fract_z
_atom_site_type_symbol
N       0.0037   0.1211    0.271     N
H       0.0047   0.9946   0.9558     H
O       0.0092    0.752   0.9388     O
C       0.0095   0.0898   0.1793     C
C        0.011   0.0203   0.0132     C
H       0.0183   0.7541   0.8786     H
N       0.0993   0.1669   0.4017     N
C          0.1    0.623   0.4631     C
C        0.104   0.6564    0.378     C
N       0.1053   0.6881   0.1052     N
C       0.1181   0.9926   0.1516     C
N       0.1222   0.9583   0.0681     N
C        0.159   0.1267   0.3266     C
C       0.1598   0.6622   0.1843     C
H       0.1689   0.6678   0.5047     H
H       0.1814   0.7217   0.3594     H
H       0.1921   0.9485    0.192     H
H       0.2084   0.8951   0.8134     H
H       0.2099   0.3295   0.7066     H
Cu        0.25  0.22601  0.50736    Cu
Cu        0.25  0.77399  0.00736    Cu
H       0.2901   0.6705   0.2066     H
H       0.2916   0.1049   0.3134     H
H       0.3079   0.0515    0.692     H
H       0.3186   0.2783   0.8594     H
H       0.3311   0.3322   0.0047     H
C       0.3402   0.3378   0.6843     C
C        0.341   0.8733   0.8266     C
N       0.3778   0.0417   0.5681     N
C       0.3819   0.0074   0.6516     C
N       0.3947   0.3119   0.6052     N
C        0.396   0.3436    0.878     C
C          0.4    0.377   0.9631     C
N       0.4007   0.8331   0.9017     N
H       0.4817   0.2459   0.3786     H
C        0.489   0.9797   0.5132     C
C       0.4905   0.9102   0.6793     C
O       0.4908    0.248   0.4388     O
H       0.4953   0.0054   0.4558     H
N       0.4963   0.8789    0.771     N
N       0.5037   0.3789    0.729     N
H       0.5047   0.5054   0.0442     H
O       0.5092    0.748   0.0612     O
C       0.5095   0.4102   0.8207     C
C        0.511   0.4797   0.9868     C
H       0.5183   0.7459   0.1214     H
N       0.5993   0.3331   0.5983     N
C          0.6    0.877   0.5369     C
C        0.604   0.8436    0.622     C
N       0.6053   0.8119   0.8948     N
C       0.6181   0.5074   0.8484     C
N       0.6222   0.5417   0.9319     N
C        0.659   0.3733   0.6734     C
C       0.6598   0.8378   0.8157     C
H       0.6689   0.8322   0.4953     H
H       0.6814   0.7783   0.6406     H
H       0.6921   0.5515    0.808     H
H       0.7084   0.6049   0.1866     H
H       0.7099   0.1705   0.2934     H
Cu        0.75  0.27399  0.49264    Cu
Cu        0.75  0.72601  0.99264    Cu
H       0.7901   0.8295   0.7934     H
H       0.7916   0.3951   0.6866     H
H       0.8079   0.4485    0.308     H
H       0.8186   0.2217   0.1406     H
H       0.8311   0.1678   0.9953     H
C       0.8402   0.1622   0.3157     C
C        0.841   0.6267   0.1734     C
N       0.8778   0.4583   0.4319     N
C       0.8819   0.4926   0.3484     C
N       0.8947   0.1881   0.3948     N
C        0.896   0.1564    0.122     C
C          0.9    0.123   0.0369     C
N       0.9007   0.6669   0.0983     N
H       0.9817   0.2541   0.6214     H
C        0.989   0.5203   0.4868     C
C       0.9905   0.5898   0.3207     C
O       0.9908    0.252   0.5612     O
H       0.9953   0.4946   0.5442     H
N       0.9963   0.6211    0.229     N
