data_I
_chemical_name_common  '/home/zhangsd/repos/MofS-CGCNN/ML/data/TSD/clean_cifs/YUSWEQ_clean'
_cell_length_a 18.30850
_cell_length_b  9.07880
_cell_length_c 19.64640
_cell_angle_alpha 90.00000
_cell_angle_beta  97.06800
_cell_angle_gamma 90.00000
_space_group_name_H-M_alt      'P 1'


loop_
_space_group_symop_operation_xyz
  'x, y, z' 

loop_
_atom_site_label
_atom_site_fract_x
_atom_site_fract_y
_atom_site_fract_z
_atom_site_type_symbol
O          0.0   0.0656     0.25     O
O          0.0   0.9344     0.75     O
C      0.00269   0.1671  0.78681     C
C      0.00269   0.8329  0.28681     C
H       0.0045   0.2495   0.8151     H
H       0.0045   0.7505   0.3151     H
C      0.00461   0.0251  0.80723     C
C      0.00461   0.9749  0.30723     C
O      0.00679   0.0411   0.9252     O
O      0.00679   0.9589   0.4252     O
C      0.01327   0.0415   0.3741     C
C      0.01327   0.9585   0.8741     C
O      0.02753   0.1764  0.38059     O
O      0.02753   0.8236  0.88059     O
Dy     0.02846  0.21224   0.5022    Dy
Dy     0.02846  0.78776   0.0022    Dy
O      0.03425    0.381  0.93884     O
O      0.03425    0.619  0.43884     O
C      0.09056   0.4621  0.94686     C
C      0.09056   0.5379  0.44686     C
O      0.09341   0.4061  0.46614     O
O      0.09341   0.5939  0.96614     O
O      0.09343   0.1701  0.04058     O
O      0.09343   0.8299  0.54058     O
O      0.13252   0.0537  0.50953     O
O      0.13252   0.9463  0.00953     O
C      0.14229   0.0729  0.03344     C
C      0.14229   0.9271  0.53344     C
H       0.1439   0.1944   0.8833     H
H       0.1439   0.8056   0.3833     H
C      0.16066    0.394  0.93176     C
C      0.16066    0.606  0.43176     C
C      0.17733   0.2644  0.90267     C
C      0.17733   0.7356  0.40267     C
H       0.2181   0.3193   0.1094     H
H       0.2181   0.6807   0.6094     H
C      0.21894   0.1205   0.0589     C
C      0.21894   0.8795   0.5589     C
O        0.225   0.4697  0.95546     O
O        0.225   0.5303  0.45546     O
C      0.24557   0.2442   0.0927     C
C      0.24557   0.7558   0.5927     C
C      0.25443   0.2558   0.9073     C
C      0.25443   0.7442   0.4073     C
O        0.275   0.0303  0.04454     O
O        0.275   0.9697  0.54454     O
C      0.28106   0.3795   0.9411     C
C      0.28106   0.6205   0.4411     C
H       0.2819   0.1807   0.8906     H
H       0.2819   0.8193   0.3906     H
C      0.32267   0.2356  0.09733     C
C      0.32267   0.7644  0.59733     C
C      0.33934    0.106  0.06824     C
C      0.33934    0.894  0.56824     C
H       0.3561   0.3056   0.1167     H
H       0.3561   0.6944   0.6167     H
C      0.35771   0.4271  0.96656     C
C      0.35771   0.5729  0.46656     C
O      0.36748   0.4463  0.49047     O
O      0.36748   0.5537  0.99047     O
O      0.40657   0.3299  0.95942     O
O      0.40657   0.6701  0.45942     O
O      0.40659   0.0939  0.53386     O
O      0.40659   0.9061  0.03386     O
C      0.40944   0.0379  0.05314     C
C      0.40944   0.9621  0.55314     C
O      0.46575    0.119  0.06116     O
O      0.46575    0.881  0.56116     O
Dy     0.47154  0.28776   0.4978    Dy
Dy     0.47154  0.71224   0.9978    Dy
O      0.47247   0.3236  0.61941     O
O      0.47247   0.6764  0.11941     O
C      0.48673   0.4585   0.6259     C
C      0.48673   0.5415   0.1259     C
O      0.49321   0.4589   0.0748     O
O      0.49321   0.5411   0.5748     O
C      0.49539   0.4749  0.19277     C
C      0.49539   0.5251  0.69277     C
H       0.4955   0.2505   0.1849     H
H       0.4955   0.7495   0.6849     H
C      0.49731   0.3329  0.21319     C
C      0.49731   0.6671  0.71319     C
O          0.5   0.4344     0.75     O
O          0.5   0.5656     0.25     O
C      0.50269   0.3329  0.28681     C
C      0.50269   0.6671  0.78681     C
H       0.5045   0.2505   0.3151     H
H       0.5045   0.7495   0.8151     H
C      0.50461   0.4749  0.30723     C
C      0.50461   0.5251  0.80723     C
O      0.50679   0.4589   0.4252     O
O      0.50679   0.5411   0.9252     O
C      0.51327   0.4585   0.8741     C
C      0.51327   0.5415   0.3741     C
O      0.52753   0.3236  0.88059     O
O      0.52753   0.6764  0.38059     O
Dy     0.52846  0.28776   0.0022    Dy
Dy     0.52846  0.71224   0.5022    Dy
O      0.53425    0.119  0.43884     O
O      0.53425    0.881  0.93884     O
C      0.59056   0.0379  0.44686     C
C      0.59056   0.9621  0.94686     C
O      0.59341   0.0939  0.96614     O
O      0.59341   0.9061  0.46614     O
O      0.59343   0.3299  0.54058     O
O      0.59343   0.6701  0.04058     O
O      0.63252   0.4463  0.00953     O
O      0.63252   0.5537  0.50953     O
C      0.64229   0.4271  0.53344     C
C      0.64229   0.5729  0.03344     C
H       0.6439   0.3056   0.3833     H
H       0.6439   0.6944   0.8833     H
C      0.66066    0.106  0.43176     C
C      0.66066    0.894  0.93176     C
C      0.67733   0.2356  0.40267     C
C      0.67733   0.7644  0.90267     C
H       0.7181   0.1807   0.6094     H
H       0.7181   0.8193   0.1094     H
C      0.71894   0.3795   0.5589     C
C      0.71894   0.6205   0.0589     C
O        0.725   0.0303  0.45546     O
O        0.725   0.9697  0.95546     O
C      0.74557   0.2558   0.5927     C
C      0.74557   0.7442   0.0927     C
C      0.75443   0.2442   0.4073     C
C      0.75443   0.7558   0.9073     C
O        0.775   0.4697  0.54454     O
O        0.775   0.5303  0.04454     O
C      0.78106   0.1205   0.4411     C
C      0.78106   0.8795   0.9411     C
H       0.7819   0.3193   0.3906     H
H       0.7819   0.6807   0.8906     H
C      0.82267   0.2644  0.59733     C
C      0.82267   0.7356  0.09733     C
C      0.83934    0.394  0.56824     C
C      0.83934    0.606  0.06824     C
H       0.8561   0.1944   0.6167     H
H       0.8561   0.8056   0.1167     H
C      0.85771   0.0729  0.46656     C
C      0.85771   0.9271  0.96656     C
O      0.86748   0.0537  0.99047     O
O      0.86748   0.9463  0.49047     O
O      0.90657   0.1701  0.45942     O
O      0.90657   0.8299  0.95942     O
O      0.90659   0.4061  0.03386     O
O      0.90659   0.5939  0.53386     O
C      0.90944   0.4621  0.55314     C
C      0.90944   0.5379  0.05314     C
O      0.96575    0.381  0.56116     O
O      0.96575    0.619  0.06116     O
Dy     0.97154  0.21224   0.9978    Dy
Dy     0.97154  0.78776   0.4978    Dy
O      0.97247   0.1764  0.11941     O
O      0.97247   0.8236  0.61941     O
C      0.98673   0.0415   0.1259     C
C      0.98673   0.9585   0.6259     C
O      0.99321   0.0411   0.5748     O
O      0.99321   0.9589   0.0748     O
C      0.99539   0.0251  0.69277     C
C      0.99539   0.9749  0.19277     C
H       0.9955   0.2495   0.6849     H
H       0.9955   0.7505   0.1849     H
C      0.99731   0.1671  0.71319     C
C      0.99731   0.8329  0.21319     C
