data_I
_chemical_name_common  '/home/zhangsd/repos/MofS-CGCNN/ML/data/TSD/clean_cifs/YUYLIP_clean'
_cell_length_a 14.51960
_cell_length_b 23.36700
_cell_length_c 15.60420
_cell_angle_alpha 90.00000
_cell_angle_beta  107.47500
_cell_angle_gamma 90.00000
_space_group_name_H-M_alt      'P 1'


loop_
_space_group_symop_operation_xyz
  'x, y, z' 

loop_
_atom_site_label
_atom_site_fract_x
_atom_site_fract_y
_atom_site_fract_z
_atom_site_type_symbol
C       0.0046   0.1518   0.1269     C
C       0.0046   0.3482   0.6269     C
C       0.0104   0.2108   0.1154     C
C       0.0104   0.2892   0.6154     C
H       0.0457   0.7325   0.4047     H
H       0.0457   0.7675   0.9047     H
H       0.0871   0.0812   0.1637     H
H       0.0871   0.4188   0.6637     H
C       0.0902   0.1207   0.1575     C
C       0.0902   0.3793   0.6575     C
C       0.0907   0.6221   0.3917     C
C       0.0907   0.8779   0.8917     C
O       0.0941  0.56962   0.3939     O
O       0.0941  0.93038   0.8939     O
C       0.0997   0.2369    0.134     C
C       0.0997   0.2631    0.634     C
H       0.1032   0.2241   0.6233     H
H       0.1032   0.2759   0.1233     H
O       0.1669  0.65293   0.4058     O
O       0.1669  0.84707   0.9058     O
C       0.1782   0.1466   0.1785     C
C       0.1782   0.3534   0.6785     C
C       0.1827   0.2062   0.1678     C
C       0.1827   0.2938   0.6678     C
O       0.1834   0.5825   0.2393     O
O       0.1834   0.9175   0.7393     O
H       0.1889   0.2244   0.8027     H
H       0.1889   0.2756   0.3027     H
H          0.2   0.1356   0.8636     H
H          0.2   0.3644   0.3636     H
H       0.2081    0.527   0.6972     H
H       0.2081    0.973   0.1972     H
H       0.2127   0.0106   0.6718     H
H       0.2127   0.4894   0.1718     H
H       0.2152   0.0015   0.3389     H
H       0.2152   0.4985   0.8389     H
C       0.2252   0.6021   0.1852     C
C       0.2252   0.8979   0.6852     C
C       0.2321   0.1981   0.7918     C
C       0.2321   0.3019   0.2918     C
Cd      0.2335  0.69378  0.30511    Cd
Cd      0.2335  0.80622  0.80511    Cd
H       0.2345   0.1252   0.1996     H
H       0.2345   0.3748   0.6996     H
O       0.2376  0.03158   0.8764     O
O       0.2376  0.46842   0.3764     O
C       0.2399   0.1455   0.8293     C
C       0.2399   0.3545   0.3293     C
C       0.2416   0.5033   0.1303     C
C       0.2416   0.9967   0.6303     C
O       0.2476   0.6537   0.1804     O
O       0.2476   0.8463   0.6804     O
C       0.2545   0.5617    0.123     C
C       0.2545   0.9383    0.623     C
Cd     0.25657  0.55809  0.41613    Cd
Cd     0.25657  0.94191  0.91613    Cd
C       0.2619   0.5071   0.7319     C
C       0.2619   0.9929   0.2319     C
H       0.2628   0.0737   0.5796     H
H       0.2628   0.4263   0.0796     H
C       0.2666   0.0097   0.3169     C
C       0.2666   0.4903   0.8169     C
H       0.2713   0.1926   0.0368     H
H       0.2713   0.3074   0.5368     H
C       0.2722   0.0346   0.5751     C
C       0.2722   0.4654   0.0751     C
N       0.2749   0.2331   0.1921     N
N       0.2749   0.2669   0.6921     N
O       0.2762  0.55031    0.564     O
O       0.2762  0.94969    0.064     O
C       0.2886   0.2132    0.737     C
C       0.2886   0.2868    0.237     C
C       0.2981   0.5817    0.061     C
C       0.2981   0.9183    0.561     C
C       0.3064    0.106   0.8174     C
C       0.3064    0.394   0.3174     C
H       0.3072   0.6208   0.0558     H
H       0.3072   0.8792   0.5558     H
C        0.311   0.0477   0.8558     C
C        0.311   0.4523   0.3558     C
C       0.3165   0.0143   0.5135     C
C       0.3165   0.4857   0.0135     C
O       0.3203   0.7194   0.7913     O
O       0.3203   0.7806   0.2913     O
C       0.3285   0.5435   0.0064     C
C       0.3285   0.9565   0.5064     C
C       0.3321   0.1876   0.0778     C
C       0.3321   0.3124   0.5778     C
C       0.3346   0.5116   0.6031     C
C       0.3346   0.9884   0.1031     C
C        0.337   0.0053   0.1969     C
C        0.337   0.4947   0.6969     C
O       0.3402   0.7444   0.4232     O
O       0.3402   0.7556   0.9232     O
C       0.3465   0.0386   0.3712     C
C       0.3465   0.4614   0.8712     C
O       0.3476  0.62135     0.37     O
O       0.3476  0.87865     0.87     O
C       0.3498   0.2079   0.1655     C
C       0.3498   0.2921   0.6655     C
N       0.3511   0.0543   0.4611     N
N       0.3511   0.4457   0.9611     N
C       0.3565   0.1749    0.726     C
C       0.3565   0.3251    0.226     C
H       0.3571   0.5575   0.9647     H
H       0.3571   0.9425   0.4647     H
C       0.3632   0.7203   0.8729     C
C       0.3632   0.7797   0.3729     C
C       0.3654    0.122    0.767     C
C       0.3654    0.378    0.267     C
H       0.3762   0.1574   0.4103     H
H       0.3762   0.3426   0.9103     H
O       0.3839  0.01655   0.8654     O
O       0.3839  0.48345   0.3654     O
H       0.3883   0.1474   0.9923     H
H       0.3883   0.3526   0.4923     H
O       0.3891  0.01472   0.0693     O
O       0.3891  0.48528   0.5693     O
H       0.3961   0.1847   0.6912     H
H       0.3961   0.3153   0.1912     H
C       0.4022   0.1606    0.051     C
C       0.4022   0.3394    0.551     C
H       0.4068    0.621   0.8126     H
H       0.4068    0.879   0.3126     H
H       0.4122   0.0967   0.7604     H
H       0.4122   0.4033   0.2604     H
C       0.4161   0.0349   0.2501     C
C       0.4161   0.4651   0.7501     C
C       0.4168   0.0974   0.5056     C
C       0.4168   0.4026   0.0056     C
C       0.4205   0.0508   0.3363     C
C       0.4205   0.4492   0.8363     C
C       0.4212   0.1491   0.4653     C
C       0.4212   0.3509   0.9653     C
H       0.4259   0.6687   0.2611     H
H       0.4259   0.8313   0.7611     H
C       0.4352    0.621   0.4192     C
C       0.4352    0.879   0.9192     C
C       0.4419   0.2007   0.2245     C
C       0.4419   0.2993   0.7245     C
C       0.4422   0.6783   0.9135     C
C       0.4422   0.8217   0.4135     C
C       0.4492    0.628   0.8695     C
C       0.4492    0.872   0.3695     C
H       0.4559   0.2145   0.2829     H
H       0.4559   0.2855   0.7829     H
O       0.4612  0.59382   0.4913     O
O       0.4612  0.90618   0.9913     O
H       0.4667   0.0442   0.2275     H
H       0.4667   0.4558   0.7275     H
H       0.4746   0.0702   0.3716     H
H       0.4746   0.4298   0.8716     H
H       0.4767    0.054   0.6205     H
H       0.4767    0.446   0.1205     H
C       0.4808   0.0877   0.5904     C
C       0.4808   0.4123   0.0904     C
C        0.487   0.6735   0.3018     C
C        0.487   0.8265   0.8018     C
C       0.4904   0.1887   0.5044     C
C       0.4904   0.3113   0.0044     C
H       0.4921   0.2232   0.4752     H
H       0.4921   0.2768   0.9752     H
C       0.4933   0.1529   0.1101     C
C       0.4933   0.3471   0.6101     C
Cd         0.5      0.0      0.0    Cd
Cd         0.5      0.5      0.5    Cd
C       0.5067   0.6529   0.3899     C
C       0.5067   0.8471   0.8899     C
H       0.5079   0.7232   0.0248     H
H       0.5079   0.7768   0.5248     H
C       0.5096   0.6887   0.9956     C
C       0.5096   0.8113   0.4956     C
C        0.513   0.1735   0.1982     C
C        0.513   0.3265   0.6982     C
C       0.5192   0.5877   0.9096     C
C       0.5192   0.9123   0.4096     C
H       0.5233    0.554   0.8795     H
H       0.5233    0.946   0.3795     H
H       0.5254   0.5702   0.1284     H
H       0.5254   0.9298   0.6284     H
H       0.5333   0.5442   0.2725     H
H       0.5333   0.9558   0.7725     H
O       0.5388  0.09382   0.0087     O
O       0.5388  0.40618   0.5087     O
H       0.5441   0.7145   0.2171     H
H       0.5441   0.7855   0.7171     H
C       0.5508    0.128   0.6305     C
C       0.5508    0.372   0.1305     C
C       0.5578   0.1783   0.5865     C
C       0.5578   0.3217   0.0865     C
C       0.5581   0.7007   0.2755     C
C       0.5581   0.7993   0.7755     C
C       0.5648    0.121   0.0808     C
C       0.5648    0.379   0.5808     C
H       0.5741   0.1687   0.2389     H
H       0.5741   0.3313   0.7389     H
C       0.5788   0.6491   0.0347     C
C       0.5788   0.8509   0.5347     C
C       0.5795   0.5508   0.1637     C
C       0.5795   0.9492   0.6637     C
C       0.5832   0.5974   0.9944     C
C       0.5832   0.9026   0.4944     C
C       0.5839   0.5349   0.2499     C
C       0.5839   0.9651   0.7499     C
H       0.5878   0.5967   0.7396     H
H       0.5878   0.9033   0.2396     H
H       0.5932    0.121   0.6874     H
H       0.5932    0.379   0.1874     H
C       0.5978   0.6606    0.449     C
C       0.5978   0.8394    0.949     C
H       0.6039   0.6847   0.8088     H
H       0.6039   0.8153   0.3088     H
O       0.6109  0.51472   0.4307     O
O       0.6109  0.98528   0.9307     O
H       0.6117   0.6474   0.5077     H
H       0.6117   0.8526   0.0077     H
O       0.6161  0.51655   0.6346     O
O       0.6161  0.98345   0.1346     O
H       0.6238   0.6574   0.0897     H
H       0.6238   0.8426   0.5897     H
C       0.6346    0.622    0.733     C
C       0.6346    0.878    0.233     C
C       0.6368   0.2203   0.6271     C
C       0.6368   0.2797   0.1271     C
H       0.6429   0.0575   0.5353     H
H       0.6429   0.4425   0.0353     H
C       0.6435   0.6749    0.774     C
C       0.6435   0.8251    0.274     C
N       0.6489   0.5543   0.0389     N
N       0.6489   0.9457   0.5389     N
C       0.6502   0.7079   0.3345     C
C       0.6502   0.7921   0.8345     C
O       0.6524  0.12135     0.13     O
O       0.6524  0.37865     0.63     O
C       0.6535   0.5386   0.1288     C
C       0.6535   0.9614   0.6288     C
O       0.6598   0.2444   0.0768     O
O       0.6598   0.2556   0.5768     O
C        0.663   0.5053   0.3031     C
C        0.663   0.9947   0.8031     C
C       0.6654   0.0116   0.8969     C
C       0.6654   0.4884   0.3969     C
C       0.6679   0.6876   0.4222     C
C       0.6679   0.8124   0.9222     C
C       0.6715   0.0435   0.4936     C
C       0.6715   0.4565   0.9936     C
O       0.6797   0.2194   0.7087     O
O       0.6797   0.2806   0.2087     O
C       0.6835   0.5143   0.9865     C
C       0.6835   0.9857   0.4865     C
C        0.689   0.5477   0.6442     C
C        0.689   0.9523   0.1442     C
H       0.6928   0.1208   0.4442     H
H       0.6928   0.3792   0.9442     H
C       0.6936    0.606   0.6826     C
C       0.6936    0.894   0.1826     C
C       0.7019   0.0817    0.439     C
C       0.7019   0.4183    0.939     C
C       0.7114   0.7132    0.763     C
C       0.7114   0.7868    0.263     C
O       0.7238  0.05031    0.936     O
O       0.7238  0.44969    0.436     O
N       0.7251   0.7331   0.3079     N
N       0.7251   0.7669   0.8079     N
C       0.7278   0.5346   0.9249     C
C       0.7278   0.9654   0.4249     C
H       0.7287   0.6926   0.4632     H
H       0.7287   0.8074   0.9632     H
C       0.7334   0.5097   0.1831     C
C       0.7334   0.9903   0.6831     C
H       0.7372   0.5737   0.9204     H
H       0.7372   0.9263   0.4204     H
C       0.7381   0.0071   0.7681     C
C       0.7381   0.4929   0.2681     C
Cd     0.74343  0.05809  0.08387    Cd
Cd     0.74343  0.44191  0.58387    Cd
C       0.7455   0.0617    0.377     C
C       0.7455   0.4383    0.877     C
O       0.7524   0.1537   0.3196     O
O       0.7524   0.3463   0.8196     O
C       0.7584   0.0033   0.3697     C
C       0.7584   0.4967   0.8697     C
C       0.7601   0.6455   0.6707     C
C       0.7601   0.8545   0.1707     C
O       0.7624  0.53158   0.6236     O
O       0.7624  0.96842   0.1236     O
H       0.7655   0.6252   0.3004     H
H       0.7655   0.8748   0.8004     H
Cd      0.7665  0.19378  0.19489    Cd
Cd      0.7665  0.30622  0.69489    Cd
C       0.7679   0.6981   0.7082     C
C       0.7679   0.8019   0.2082     C
C       0.7748   0.1021   0.3148     C
C       0.7748   0.3979   0.8148     C
H       0.7848   0.5015   0.1611     H
H       0.7848   0.9985   0.6611     H
H       0.7873   0.5106   0.8282     H
H       0.7873   0.9894   0.3282     H
H       0.7919    0.027   0.8028     H
H       0.7919    0.473   0.3028     H
H          0.8   0.6356   0.6364     H
H          0.8   0.8644   0.1364     H
H       0.8111   0.7244   0.6973     H
H       0.8111   0.7756   0.1973     H
O       0.8166   0.0825   0.2607     O
O       0.8166   0.4175   0.7607     O
C       0.8173   0.7062   0.3322     C
C       0.8173   0.7938   0.8322     C
C       0.8218   0.6466   0.3215     C
C       0.8218   0.8534   0.8215     C
O       0.8331  0.15293   0.0942     O
O       0.8331  0.34707   0.5942     O
H       0.8968   0.7241   0.8767     H
H       0.8968   0.7759   0.3767     H
C       0.9003   0.7369    0.366     C
C       0.9003   0.7631    0.866     C
O       0.9059  0.06962   0.1061     O
O       0.9059  0.43038   0.6061     O
C       0.9093   0.1221   0.1083     C
C       0.9093   0.3779   0.6083     C
C       0.9098   0.6207   0.3425     C
C       0.9098   0.8793   0.8425     C
H       0.9129   0.5812   0.3363     H
H       0.9129   0.9188   0.8363     H
H       0.9543   0.2325   0.0953     H
H       0.9543   0.2675   0.5953     H
C       0.9896   0.7108   0.3846     C
C       0.9896   0.7892   0.8846     C
C       0.9954   0.6518   0.3731     C
C       0.9954   0.8482   0.8731     C
