data_I
_chemical_name_common  '/home/zhangsd/repos/MofS-CGCNN/ML/data/TSD/clean_cifs/ZALDUO_clean'
_cell_length_a 11.67520
_cell_length_b 11.67520
_cell_length_c 12.89540
_cell_angle_alpha 90.00000
_cell_angle_beta  90.00000
_cell_angle_gamma 90.00000
_space_group_name_H-M_alt      'P 1'


loop_
_space_group_symop_operation_xyz
  'x, y, z' 

loop_
_atom_site_label
_atom_site_fract_x
_atom_site_fract_y
_atom_site_fract_z
_atom_site_type_symbol
W          0.0      0.0  0.25101     W
W          0.0      0.0  0.74899     W
C        0.051   0.1465   0.1589     C
C        0.051   0.1465   0.8411     C
C       0.0814   0.8668    0.342     C
C       0.0814   0.8668    0.658     C
N       0.0881    0.221  0.11089     N
N       0.0881    0.221  0.88911     N
N       0.1316  0.79914  0.38789     N
N       0.1316  0.79914  0.61211     N
C       0.1332   0.0814    0.342     C
C       0.1332   0.0814    0.658     C
C       0.1465    0.949   0.1589     C
C       0.1465    0.949   0.8411     C
Ni     0.19411  0.29819      0.0    Ni
N      0.20086   0.1316  0.38789     N
N      0.20086   0.1316  0.61211     N
Ni     0.20181  0.69411      0.5    Ni
N        0.221   0.9119  0.11089     N
N        0.221   0.9119  0.88911     N
N        0.279   0.5881  0.38911     N
N        0.279   0.5881  0.61089     N
Ni     0.29819  0.80589      0.0    Ni
N      0.29914   0.3684  0.11211     N
N      0.29914   0.3684  0.88789     N
Ni     0.30589  0.20181      0.5    Ni
C       0.3535    0.551   0.3411     C
C       0.3535    0.551   0.6589     C
C       0.3668   0.4186    0.158     C
C       0.3668   0.4186    0.842     C
N       0.3684  0.70086  0.11211     N
N       0.3684  0.70086  0.88789     N
N       0.4119    0.279  0.38911     N
N       0.4119    0.279  0.61089     N
C       0.4186   0.6332    0.158     C
C       0.4186   0.6332    0.842     C
C        0.449   0.3535   0.3411     C
C        0.449   0.3535   0.6589     C
W          0.5      0.5  0.24899     W
W          0.5      0.5  0.75101     W
C        0.551   0.6465   0.3411     C
C        0.551   0.6465   0.6589     C
C       0.5814   0.3668    0.158     C
C       0.5814   0.3668    0.842     C
N       0.5881    0.721  0.38911     N
N       0.5881    0.721  0.61089     N
N       0.6316  0.29914  0.11211     N
N       0.6316  0.29914  0.88789     N
C       0.6332   0.5814    0.158     C
C       0.6332   0.5814    0.842     C
C       0.6465    0.449   0.3411     C
C       0.6465    0.449   0.6589     C
Ni     0.69411  0.79819      0.5    Ni
N      0.70086   0.6316  0.11211     N
N      0.70086   0.6316  0.88789     N
Ni     0.70181  0.19411      0.0    Ni
N        0.721   0.4119  0.38911     N
N        0.721   0.4119  0.61089     N
N        0.779   0.0881  0.11089     N
N        0.779   0.0881  0.88911     N
Ni     0.79819  0.30589      0.5    Ni
N      0.79914   0.8684  0.38789     N
N      0.79914   0.8684  0.61211     N
Ni     0.80589  0.70181      0.0    Ni
C       0.8535    0.051   0.1589     C
C       0.8535    0.051   0.8411     C
C       0.8668   0.9186    0.342     C
C       0.8668   0.9186    0.658     C
N       0.8684  0.20086  0.38789     N
N       0.8684  0.20086  0.61211     N
N       0.9119    0.779  0.11089     N
N       0.9119    0.779  0.88911     N
C       0.9186   0.1332    0.342     C
C       0.9186   0.1332    0.658     C
C        0.949   0.8535   0.1589     C
C        0.949   0.8535   0.8411     C
