data_I
_chemical_name_common  '/home/zhangsd/repos/MofS-CGCNN/ML/data/TSD/clean_cifs/ZALGEB_clean'
_cell_length_a 12.93200
_cell_length_b 14.33800
_cell_length_c 14.51000
_cell_angle_alpha 104.74300
_cell_angle_beta  108.98100
_cell_angle_gamma 108.11900
_space_group_name_H-M_alt      'P 1'


loop_
_space_group_symop_operation_xyz
  'x, y, z' 

loop_
_atom_site_label
_atom_site_fract_x
_atom_site_fract_y
_atom_site_fract_z
_atom_site_type_symbol
Al         0.0      0.5      0.5    Al
H       0.0168   0.1205   0.6727     H
O       0.0233   0.3822   0.5209     O
Mo     0.04148  0.73566  0.64918    Mo
O       0.0577   0.5834   0.6468     O
O       0.0651    0.598   0.3308     O
C       0.0714   0.1021   0.6498     C
N       0.0983   0.1327   0.5769     N
Mo     0.10426   0.4787  0.31954    Mo
O       0.1075   0.3624   0.3579     O
H       0.1086   0.0194   0.7416     H
C       0.1261   0.0426   0.6904     C
Mo     0.14214  0.71242  0.46809    Mo
O       0.1486   0.5629   0.4946     O
H       0.1746    0.755   0.2521     H
C       0.1783   0.1124   0.5443     C
O       0.1789   0.7638   0.6175     O
H        0.198   0.1388   0.4955     H
C       0.2046   0.0175   0.6572     C
C       0.2295   0.0536   0.5829     C
H       0.2369   0.7408   0.1737     H
H       0.2417   0.9763   0.6841     H
C       0.2508   0.7625   0.2481     C
H       0.2809   0.7171   0.2782     H
O       0.2912   0.7603   0.4866     O
C       0.3241   0.0319   0.5504     C
O       0.3301   0.2862   0.7731     O
C       0.3428    0.877   0.3096     C
O       0.3469   0.0709   0.4881     O
O       0.3497   0.4772    0.896     O
O       0.3517   0.9436   0.2672     O
Mo     0.35948  0.40858  0.74064    Mo
O       0.3693   0.9788   0.5899     O
O       0.3734   0.9724    0.904     O
O       0.3801   0.6781   0.0236     O
Mo     0.38727  0.64102  0.88939    Mo
O       0.4086   0.9088   0.4063     O
O       0.4296   0.5628   0.7891     O
O       0.4372    0.849   0.7064     O
O       0.4481   0.3588    0.993     O
Na      0.4532   0.0574   0.0933    Na
O       0.4594   0.7654   0.8952     O
Mo     0.46854  0.26825  0.85139    Mo
O       0.4699   0.5553   0.1158     O
Eu     0.49806  0.89729  0.56945    Eu
Al         0.5      0.5      0.0    Al
Eu     0.50194  0.10271  0.43055    Eu
O       0.5301   0.4447   0.8842     O
Mo     0.53146  0.73175  0.14861    Mo
O       0.5406   0.2346   0.1048     O
Na      0.5468   0.9426   0.9067    Na
O       0.5519   0.6412    0.007     O
O       0.5628    0.151   0.2936     O
O       0.5704   0.4372   0.2109     O
O       0.5914   0.0912   0.5937     O
Mo     0.61273  0.35898  0.11061    Mo
O       0.6199   0.3219   0.9764     O
O       0.6266   0.0276    0.096     O
O       0.6307   0.0212   0.4101     O
Mo     0.64052  0.59142  0.25936    Mo
O       0.6483   0.0564   0.7328     O
O       0.6503   0.5228    0.104     O
O       0.6531   0.9291   0.5119     O
C       0.6572    0.123   0.6904     C
O       0.6699   0.7138   0.2269     O
C       0.6759   0.9681   0.4496     C
O       0.7088   0.2397   0.5134     O
H       0.7191   0.2829   0.7218     H
C       0.7492   0.2375   0.7519     C
H       0.7583   0.0237   0.3159     H
H       0.7631   0.2592   0.8263     H
C       0.7705   0.9464   0.4171     C
C       0.7954   0.9825   0.3428     C
H        0.802   0.8612   0.5045     H
O       0.8211   0.2362   0.3825     O
C       0.8217   0.8876   0.4557     C
H       0.8254    0.245   0.7479     H
O       0.8514   0.4371   0.5054     O
Mo     0.85786  0.28758  0.53191    Mo
C       0.8739   0.9574   0.3096     C
H       0.8914   0.9806   0.2584     H
O       0.8925   0.6376   0.6421     O
Mo     0.89574   0.5213  0.68046    Mo
N       0.9017   0.8673   0.4231     N
C       0.9286   0.8979   0.3502     C
O       0.9349    0.402   0.6692     O
O       0.9423   0.4166   0.3532     O
Mo     0.95852  0.26434  0.35082    Mo
O       0.9767   0.6178   0.4791     O
H       0.9832   0.8795   0.3273     H
