data_I
_chemical_name_common  '/home/zhangsd/repos/MofS-CGCNN/ML/data/TSD/clean_cifs/ZARVIZ_clean'
_cell_length_a 20.03760
_cell_length_b 20.87400
_cell_length_c 20.98070
_cell_angle_alpha 90.00000
_cell_angle_beta  90.00000
_cell_angle_gamma 90.00000
_space_group_name_H-M_alt      'P 1'


loop_
_space_group_symop_operation_xyz
  'x, y, z' 

loop_
_atom_site_label
_atom_site_fract_x
_atom_site_fract_y
_atom_site_fract_z
_atom_site_type_symbol
O       0.0024  0.31623   0.2634     O
H       0.0036   0.6684   0.1764     H
O       0.0064   0.1696   0.2018     O
C       0.0077   0.6241   0.2658     C
O        0.009  0.56561   0.2853     O
O        0.011  0.57515   0.1591     O
O        0.014  0.96865   0.3916     O
O       0.0187   0.2951   0.9031     O
H       0.0227   0.4265   0.9069     H
C       0.0275   0.6318   0.1946     C
Sb     0.02845   0.9967  0.29759    Sb
O       0.0286   0.4416   0.9984     O
Sb     0.02875  0.87179  0.41304    Sb
O       0.0305   0.9169    0.172     O
O       0.0438   0.7691   0.3709     O
Sb     0.04934  0.52147  0.05086    Sb
Mn     0.05363  0.26478  0.19489    Mn
C        0.054   0.3119    0.948     C
O       0.0568   0.4529  0.22431     O
O       0.0576   0.2826   0.0011     O
C       0.0578   0.4305   0.9392     C
Fe     0.05902  0.38593  0.29641    Fe
O       0.0621  0.35617    0.119     O
C       0.0682   0.8243   0.2287     C
O       0.0727   0.8831   0.3265     O
C        0.083   0.8815   0.1876     C
H       0.0863   0.7859   0.2079     H
O       0.0917   0.3347   0.3713     O
C       0.0933   0.7688    0.332     C
H       0.0952   0.5312   0.6024     H
O       0.0983   0.7104    0.097     O
C       0.0989   0.3688   0.9406     C
C       0.1012   0.8318   0.2938     C
C       0.1014   0.6439   0.1901     C
C       0.1049   0.4871   0.9209     C
O        0.107   0.4532    0.344     O
O       0.1087   0.5621    0.485     O
O         0.11   0.4141   0.6558     O
H       0.1128   0.6801   0.2177     H
O       0.1162   0.2372   0.1209     O
O       0.1182   0.4975   0.8648     O
C       0.1205   0.6606   0.1211     C
H       0.1228   0.3648      0.9     H
Mn     0.12383  0.53112  0.28602    Mn
O       0.1263   0.2142   0.2659     O
O       0.1265  0.48588  0.10014     O
Fe     0.12762  0.41391  0.16673    Fe
C       0.1288   0.3643   0.4131     C
O       0.1291  0.34644  0.23771     O
O       0.1295   0.5166     0.97     O
O       0.1298   0.7239   0.3212     O
Fe     0.13066  0.30999  0.06163    Fe
H        0.133   0.4596   0.4344     H
O       0.1389   0.8937   0.1707     O
O       0.1393   0.5905   0.2089     O
O       0.1403   0.1095   0.2448     O
H       0.1419   0.1475   0.1145     H
C       0.1423   0.5381   0.5916     C
C       0.1454    0.433   0.3977     C
O       0.1459   0.3703   0.9901     O
C       0.1465   0.5746   0.5292     C
H       0.1489   0.8403   0.2877     H
O       0.1517   0.3379   0.4609     O
C       0.1525   0.1674   0.2361     C
H       0.1577   0.4514   0.5478     H
O        0.158   0.6216   0.0925     O
C       0.1647   0.1886   0.1205     C
C        0.166   0.4326   0.6432     C
O       0.1736   0.5728   0.6421     O
C       0.1767   0.4737   0.5847     C
Fe     0.19278  0.54639  0.14318    Fe
O       0.1943  0.36931  0.10906     O
O       0.1944   0.6167   0.5266     O
O       0.1952  0.47373  0.20859     O
C       0.2021   0.1861   0.1833     C
Mn     0.20493  0.44681  0.02131    Mn
Sb     0.20604   0.2983  0.27388    Sb
O       0.2062   0.2534   0.0362     O
C       0.2107   0.1987   0.0651     C
Sb     0.21244  0.66031  0.62702    Sb
O       0.2199   0.4206   0.6758     O
Sb     0.22003   0.5479  0.75387    Sb
C       0.2202   0.4409   0.3861     C
O       0.2314   0.2466   0.1956     O
O       0.2314  0.64124  0.72413     O
O       0.2355   0.5338   0.3228     O
H       0.2372   0.1535   0.1807     H
C       0.2372   0.5125     0.38     C
O       0.2375   0.4078   0.3295     O
H       0.2449   0.4226   0.4221     H
O       0.2464   0.8427   0.5501     O
O       0.2472   0.4832   0.5736     O
O       0.2481   0.5449   0.4271     O
O       0.2519   0.4551   0.9271     O
O       0.2528   0.5168   0.0736     O
O       0.2536   0.1573   0.0501     O
H       0.2551   0.5774   0.9221     H
O       0.2625   0.5922   0.8295     O
C       0.2628   0.4875     0.88     C
H       0.2628   0.8465   0.6807     H
O       0.2645   0.4662   0.8228     O
O       0.2686  0.35876  0.22413     O
O       0.2686   0.7534   0.6956     O
C       0.2798   0.5591   0.8861     C
Sb     0.27997   0.4521  0.25387    Sb
O       0.2801   0.5794   0.1758     O
Sb     0.28756  0.33969  0.12702    Sb
C       0.2893   0.8013   0.5651     C
O       0.2938   0.7466   0.5362     O
Sb     0.29396   0.7017  0.77388    Sb
Mn     0.29507  0.55319  0.52131    Mn
C       0.2979   0.8139   0.6833     C
O       0.3048  0.52627  0.70859     O
O       0.3056   0.3833   0.0266     O
O       0.3057  0.63069  0.60906     O
Fe     0.30722  0.45361  0.64318    Fe
C       0.3233   0.5263   0.0847     C
O       0.3264   0.4272   0.1421     O
C        0.334   0.5674   0.1432     C
C       0.3353   0.8114   0.6205     C
O        0.342   0.3784   0.5925     O
H       0.3423   0.5486   0.0478     H
C       0.3475   0.8326   0.7361     C
O       0.3483   0.6621   0.9609     O
H       0.3511   0.1597   0.7877     H
C       0.3535   0.4254   0.0292     C
O       0.3541   0.6297   0.4901     O
C       0.3546    0.567   0.8977     C
C       0.3577   0.4619   0.0916     C
H       0.3581   0.8525   0.6145     H
O       0.3597   0.8905   0.7448     O
O       0.3607   0.4095   0.7089     O
O       0.3611   0.1063   0.6707     O
H        0.367   0.5404   0.9344     H
Fe     0.36934  0.69001  0.56163    Fe
O       0.3702   0.2761   0.8212     O
O       0.3705   0.4834     0.47     O
O       0.3709  0.65356  0.73771     O
C       0.3712   0.6357   0.9131     C
Fe     0.37238  0.58609  0.66673    Fe
O       0.3735  0.51412  0.60014     O
O       0.3737   0.7858   0.7659     O
Mn     0.37617  0.46888  0.78602    Mn
H       0.3772   0.6352      0.4     H
C       0.3795   0.3394   0.6211     C
O       0.3818   0.5025   0.3648     O
O       0.3838   0.7628   0.6209     O
H       0.3872   0.3199   0.7177     H
O         0.39   0.5859   0.1558     O
O       0.3913   0.4379    0.985     O
O        0.393   0.5468    0.844     O
C       0.3951   0.5129   0.4209     C
C       0.3986   0.3561   0.6901     C
C       0.3988   0.1682   0.7938     C
C       0.4011   0.6312   0.4406     C
O       0.4017   0.2896    0.597     O
H       0.4048   0.4688   0.1024     H
C       0.4067   0.2312    0.832     C
O       0.4083   0.6653   0.8713     O
H       0.4137   0.2141   0.7079     H
C        0.417   0.1185   0.6876     C
O       0.4273   0.1169   0.8265     O
C       0.4318   0.1757   0.7287     C
O       0.4379  0.64383    0.619     O
Fe     0.44098  0.61407  0.79641    Fe
C       0.4422   0.5695   0.4392     C
O       0.4424   0.7174   0.5011     O
O       0.4432   0.5471  0.72431     O
C        0.446   0.6881    0.448     C
Mn     0.44637  0.73522  0.69489    Mn
Sb     0.45066  0.47853  0.55086    Sb
O       0.4562   0.2309   0.8709     O
O       0.4695   0.0831    0.672     O
Sb     0.47125  0.12821  0.91304    Sb
O       0.4714   0.5584   0.4984     O
Sb     0.47155   0.0033  0.79759    Sb
C       0.4725   0.3682   0.6946     C
H       0.4773   0.5735   0.4069     H
O       0.4813   0.7049   0.4031     O
O        0.486  0.03135   0.8916     O
O        0.489  0.42485   0.6591     O
O        0.491  0.43439   0.7853     O
C       0.4923   0.3759   0.7658     C
O       0.4936   0.8304   0.7018     O
H       0.4964   0.3316   0.6764     H
O       0.4976  0.68377   0.7634     O
O       0.5024  0.18377   0.7366     O
H       0.5036   0.8316   0.8236     H
O       0.5064   0.3304   0.7982     O
C       0.5077   0.8759   0.7342     C
O        0.509  0.93439   0.7147     O
O        0.511  0.92485   0.8409     O
O        0.514  0.53135   0.6084     O
O       0.5187   0.2049   0.0969     O
H       0.5227   0.0735   0.0931     H
C       0.5275   0.8682   0.8054     C
Sb     0.52845   0.5033  0.70241    Sb
O       0.5286   0.0584   0.0016     O
Sb     0.52875  0.62821  0.58696    Sb
O       0.5305   0.5831    0.828     O
O       0.5438   0.7309   0.6291     O
Sb     0.54934  0.97853  0.94914    Sb
Mn     0.55363  0.23522  0.80511    Mn
C        0.554   0.1881    0.052     C
O       0.5568   0.0471  0.77569     O
O       0.5576   0.2174   0.9989     O
C       0.5578   0.0695   0.0608     C
Fe     0.55902  0.11407  0.70359    Fe
O       0.5621  0.14383    0.881     O
C       0.5682   0.6757   0.7713     C
O       0.5727   0.6169   0.6735     O
C        0.583   0.6185   0.8124     C
H       0.5863   0.7141   0.7921     H
O       0.5917   0.1653   0.6287     O
C       0.5933   0.7312    0.668     C
H       0.5952   0.9688   0.3976     H
O       0.5983   0.7896    0.903     O
C       0.5989   0.1312   0.0594     C
C       0.6012   0.6682   0.7062     C
C       0.6014   0.8561   0.8099     C
C       0.6049   0.0129   0.0791     C
O        0.607   0.0468    0.656     O
O       0.6087   0.9379    0.515     O
O         0.61   0.0859   0.3442     O
H       0.6128   0.8199   0.7823     H
O       0.6162   0.2628   0.8791     O
O       0.6182   0.0025   0.1352     O
C       0.6205   0.8394   0.8789     C
H       0.6228   0.1352      0.1     H
Mn     0.62383  0.96888  0.71398    Mn
O       0.6263   0.2858   0.7341     O
O       0.6265  0.01412  0.89986     O
Fe     0.62762  0.08609  0.83327    Fe
C       0.6288   0.1357   0.5869     C
O       0.6291  0.15356  0.76229     O
O       0.6295   0.9834     0.03     O
O       0.6298   0.7761   0.6788     O
Fe     0.63066  0.19001  0.93837    Fe
H        0.633   0.0404   0.5656     H
O       0.6389   0.6063   0.8293     O
O       0.6393   0.9095   0.7911     O
O       0.6403   0.3905   0.7552     O
H       0.6419   0.3525   0.8855     H
C       0.6423   0.9619   0.4084     C
C       0.6454    0.067   0.6023     C
O       0.6459   0.1297   0.0099     O
C       0.6465   0.9254   0.4708     C
H       0.6489   0.6597   0.7123     H
O       0.6517   0.1621   0.5391     O
C       0.6525   0.3326   0.7639     C
H       0.6577   0.0486   0.4522     H
O        0.658   0.8784   0.9075     O
C       0.6647   0.3114   0.8795     C
C        0.666   0.0674   0.3568     C
O       0.6736   0.9272   0.3579     O
C       0.6767   0.0263   0.4153     C
Fe     0.69278  0.95361  0.85682    Fe
O       0.6943  0.13069  0.89094     O
O       0.6944   0.8833   0.4734     O
O       0.6952  0.02627  0.79141     O
C       0.7021   0.3139   0.8167     C
Mn     0.70493  0.05319  0.97869    Mn
Sb     0.70604   0.2017  0.72612    Sb
O       0.7062   0.2466   0.9638     O
C       0.7107   0.3013   0.9349     C
Sb     0.71244  0.83969  0.37298    Sb
O       0.7199   0.0794   0.3242     O
Sb     0.72003   0.9521  0.24613    Sb
C       0.7202   0.0591   0.6139     C
O       0.7314   0.2534   0.8044     O
O       0.7314  0.85876  0.27587     O
O       0.7355   0.9662   0.6772     O
H       0.7372   0.3465   0.8193     H
C       0.7372   0.9875     0.62     C
O       0.7375   0.0922   0.6705     O
H       0.7449   0.0774   0.5779     H
O       0.7464   0.6573   0.4499     O
O       0.7472   0.0168   0.4264     O
O       0.7481   0.9551   0.5729     O
O       0.7519   0.0449   0.0729     O
O       0.7528   0.9832   0.9264     O
O       0.7536   0.3427   0.9499     O
H       0.7551   0.9226   0.0779     H
O       0.7625   0.9078   0.1705     O
C       0.7628   0.0125     0.12     C
H       0.7628   0.6535   0.3193     H
O       0.7645   0.0338   0.1772     O
O       0.7686  0.14124  0.77587     O
O       0.7686   0.7466   0.3044     O
C       0.7798   0.9409   0.1139     C
Sb     0.77997   0.0479  0.74613    Sb
O       0.7801   0.9206   0.8242     O
Sb     0.78756  0.16031  0.87298    Sb
C       0.7893   0.6987   0.4349     C
O       0.7938   0.7534   0.4638     O
Sb     0.79396   0.7983  0.22612    Sb
Mn     0.79507  0.94681  0.47869    Mn
C       0.7979   0.6861   0.3167     C
O       0.8048  0.97373  0.29141     O
O       0.8056   0.1167   0.9734     O
O       0.8057  0.86931  0.39094     O
Fe     0.80722  0.04639  0.35682    Fe
C       0.8233   0.9737   0.9153     C
O       0.8264   0.0728   0.8579     O
C        0.834   0.9326   0.8568     C
C       0.8353   0.6886   0.3795     C
O        0.842   0.1216   0.4075     O
H       0.8423   0.9514   0.9522     H
C       0.8475   0.6674   0.2639     C
O       0.8483   0.8379   0.0391     O
H       0.8511   0.3403   0.2123     H
C       0.8535   0.0746   0.9708     C
O       0.8541   0.8703   0.5099     O
C       0.8546    0.933   0.1023     C
C       0.8577   0.0381   0.9084     C
H       0.8581   0.6475   0.3855     H
O       0.8597   0.6095   0.2552     O
O       0.8607   0.0905   0.2911     O
O       0.8611   0.3937   0.3293     O
H        0.867   0.9596   0.0656     H
Fe     0.86934  0.80999  0.43837    Fe
O       0.8702   0.2239   0.1788     O
O       0.8705   0.0166     0.53     O
O       0.8709  0.84644  0.26229     O
C       0.8712   0.8643   0.0869     C
Fe     0.87238  0.91391  0.33327    Fe
O       0.8735  0.98588  0.39986     O
O       0.8737   0.7142   0.2341     O
Mn     0.87617  0.03112  0.21398    Mn
H       0.8772   0.8648      0.6     H
C       0.8795   0.1606   0.3789     C
O       0.8818   0.9975   0.6352     O
O       0.8838   0.7372   0.3791     O
H       0.8872   0.1801   0.2823     H
O         0.89   0.9141   0.8442     O
O       0.8913   0.0621    0.015     O
O        0.893   0.9532    0.156     O
C       0.8951   0.9871   0.5791     C
C       0.8986   0.1439   0.3099     C
C       0.8988   0.3318   0.2062     C
C       0.9011   0.8688   0.5594     C
O       0.9017   0.2104    0.403     O
H       0.9048   0.0312   0.8976     H
C       0.9067   0.2688    0.168     C
O       0.9083   0.8347   0.1287     O
H       0.9137   0.2859   0.2921     H
C        0.917   0.3815   0.3124     C
O       0.9273   0.3831   0.1735     O
C       0.9318   0.3243   0.2713     C
O       0.9379  0.85617    0.381     O
Fe     0.94098  0.88593  0.20359    Fe
C       0.9422   0.9305   0.5608     C
O       0.9424   0.7826   0.4989     O
O       0.9432   0.9529  0.27569     O
C        0.946   0.8119    0.552     C
Mn     0.94637  0.76478  0.30511    Mn
Sb     0.95066  0.02147  0.44914    Sb
O       0.9562   0.2691   0.1291     O
O       0.9695   0.4169    0.328     O
Sb     0.97125  0.37179  0.08696    Sb
O       0.9714   0.9416   0.5016     O
Sb     0.97155   0.4967  0.20241    Sb
C       0.9725   0.1318   0.3054     C
H       0.9773   0.9265   0.5931     H
O       0.9813   0.7951   0.5969     O
O        0.986  0.46865   0.1084     O
O        0.989  0.07515   0.3409     O
O        0.991  0.06561   0.2147     O
C       0.9923   0.1241   0.2342     C
O       0.9936   0.6696   0.2982     O
H       0.9964   0.1684   0.3236     H
O       0.9976  0.81623   0.2366     O
