data_I
_chemical_name_common  '/home/zhangsd/repos/MofS-CGCNN/ML/data/TSD/clean_cifs/ZECKID_clean'
_cell_length_a 14.05710
_cell_length_b 14.05710
_cell_length_c 14.05710
_cell_angle_alpha 108.35300
_cell_angle_beta  110.03300
_cell_angle_gamma 110.03300
_space_group_name_H-M_alt      'P 1'


loop_
_space_group_symop_operation_xyz
  'x, y, z' 

loop_
_atom_site_label
_atom_site_fract_x
_atom_site_fract_y
_atom_site_fract_z
_atom_site_type_symbol
C       0.0132   0.5329   0.8655     C
H       0.0345   0.8235   0.4992     H
H       0.0373   0.9296   0.5867     H
N        0.048   0.7022    0.834     N
H       0.0639   0.5187   0.9192     H
C       0.0865   0.6345   0.8594     C
H       0.0995   0.2048   0.7687     H
Cu     0.10143   0.9017  0.80027    Cu
O        0.123   0.0465   0.7897     O
N       0.1318    0.786    0.834     N
H       0.1571   0.3367   0.7994     H
C       0.1674   0.2697   0.7829     C
H       0.1757   0.2492   0.7147     H
C       0.2008    0.677   0.8778     C
C       0.2248   0.1042   0.8794     C
C       0.2249   0.7729   0.8594     C
O       0.2432   0.5397   0.9167     O
O       0.2568   0.0465   0.9235     O
C       0.2751    0.298   0.8845     C
C       0.2752   0.6294   0.9046     C
C       0.2992   0.2262    0.927     C
H       0.3243   0.8235    0.789     H
C       0.3326   0.8523   0.8655     C
H       0.3429   0.9296   0.8923     H
N       0.3682   0.4042   0.9522     N
O        0.377   0.6735   0.9167     O
Cu     0.39857  0.55027  0.94884    Cu
H       0.4005   0.8553   0.9192     H
C       0.4135    0.298   0.0229     C
H       0.4361   0.2048   0.1053     H
N        0.452   0.4042    0.036     N
H       0.4627   0.6423   0.7994     H
H       0.4655    0.539   0.7147     H
C       0.4868   0.2697   0.1023     C
C       0.5132   0.6155   0.7829     C
H       0.5345   0.2492   0.0735     H
H       0.5373   0.3367   0.1796     H
N        0.548    0.584   0.9522     N
H       0.5639   0.6692   0.7687     H
C       0.5865   0.6094   0.8845     C
H       0.5995   0.5187   0.4548     H
Cu     0.60143  0.55027   0.1517    Cu
O        0.623   0.5397   0.2965     O
N       0.6318    0.584    0.036     N
H       0.6571   0.5494   0.5867     H
C       0.6674   0.5329   0.5197     C
H       0.6757   0.4647   0.4992     H
C       0.7008   0.6278    0.927     C
C       0.7248   0.6294   0.3542     C
C       0.7249   0.6094   0.0229     C
O       0.7432   0.6667   0.7897     O
O       0.7568   0.6735   0.2965     O
C       0.7751   0.6345    0.548     C
C       0.7752   0.6546   0.8794     C
C       0.7992    0.677   0.4762     C
H       0.8243    0.539   0.0735     H
C       0.8326   0.6155   0.1023     C
H       0.8429   0.6423   0.1796     H
N       0.8682   0.7022   0.6542     N
O        0.877   0.6667   0.9235     O
Cu     0.89857  0.69884  0.80027    Cu
H       0.9005   0.6692   0.1053     H
C       0.9135   0.7729    0.548     C
H       0.9361   0.8553   0.4548     H
N        0.952    0.786   0.6542     N
H       0.9627   0.5494   0.8923     H
H       0.9655   0.4647    0.789     H
C       0.9868   0.8523   0.5197     C
