data_I
_chemical_name_common  '/home/zhangsd/repos/MofS-CGCNN/ML/data/TSD/clean_cifs/ZECKOJ_clean'
_cell_length_a 13.81510
_cell_length_b 13.81510
_cell_length_c 13.81510
_cell_angle_alpha 105.33500
_cell_angle_beta  105.33500
_cell_angle_gamma 118.10400
_space_group_name_H-M_alt      'P 1'


loop_
_space_group_symop_operation_xyz
  'x, y, z' 

loop_
_atom_site_label
_atom_site_fract_x
_atom_site_fract_y
_atom_site_fract_z
_atom_site_type_symbol
O       0.0194   0.2694   0.6198     O
O       0.0194   0.3996     0.75     O
C       0.0761   0.3553   0.7208     C
H       0.1833   0.1793   0.6674     H
H       0.1833   0.5159    0.004     H
C       0.1953   0.3998   0.7955     C
H       0.2007   0.2662   0.6085     H
H       0.2007   0.5922   0.9345     H
C       0.2393   0.2596   0.6737     C
C       0.2393   0.5656   0.9797     C
C        0.269   0.3577   0.7779     C
C        0.269   0.4911   0.9113     C
H       0.3147   0.2693   0.6774     H
H       0.3147   0.6373   0.0454     H
N       0.3745   0.4211   0.8722     N
N       0.3745   0.5023   0.9534     N
H       0.4293   0.2619    0.496     H
H       0.4293   0.9333   0.1674     H
C       0.5096   0.3359   0.5203     C
C       0.5096   0.9893   0.1737     C
H       0.5119   0.1793    0.996     H
H       0.5119   0.5159   0.3326     H
H       0.5162   0.4077   0.5655     H
H       0.5162   0.9507   0.1085     H
H       0.5193   0.0647   0.1774     H
H       0.5193   0.3419   0.4546     H
O       0.5194   0.3996     0.75     O
O       0.5194   0.7694   0.1198     O
Cu     0.52117  0.42209  0.90092    Cu
Cu     0.52117  0.62025  0.09908    Cu
N       0.5489   0.4211   0.0466     N
N       0.5489   0.5023   0.1278     N
C       0.5798   0.3577   0.0887     C
C       0.5798   0.4911   0.2221     C
C       0.5859   0.2596   0.0203     C
C       0.5859   0.5656   0.3263     C
H       0.5919   0.2693   0.9546     H
H       0.5919   0.6373   0.3226     H
C       0.6043   0.3998   0.2045     C
C       0.6053   0.3845   0.7792     C
C       0.6053   0.8261   0.2208     C
C       0.6077    0.019   0.2779     C
C       0.6077   0.3298   0.5887     C
C       0.6345   0.3553   0.2792     C
O       0.6496   0.2694     0.25     O
O       0.6496   0.3996   0.3802     O
O       0.6496   0.3996   0.8802     O
O       0.6496   0.7694     0.25     O
C       0.6498   0.3543   0.7045     C
C       0.6498   0.9453   0.2955     C
H       0.6577   0.2662   0.0655     H
H       0.6577   0.5922   0.3915     H
N       0.6711   0.1245   0.3722     N
N       0.6711   0.2989   0.5466     N
Cu     0.67209  0.27117  0.40092    Cu
C       0.7411    0.019   0.4113     C
C       0.7411   0.3298   0.7221     C
N       0.7523   0.1245   0.4534     N
N       0.7523   0.2989   0.6278     N
H       0.7659   0.2619   0.8326     H
H       0.7659   0.9333    0.504     H
C       0.8156   0.3359   0.8263     C
C       0.8156   0.9893   0.4797     C
H       0.8422   0.4077   0.8915     H
H       0.8422   0.9507   0.4345     H
Cu     0.87025  0.27117  0.59908    Cu
H       0.8873   0.0647   0.5454     H
H       0.8873   0.3419   0.8226     H
