data_I
_chemical_name_common  '/home/zhangsd/repos/MofS-CGCNN/ML/data/TSD/clean_cifs/ZEDZAL01_clean'
_cell_length_a 16.43930
_cell_length_b 16.43930
_cell_length_c 23.77700
_cell_angle_alpha 90.00000
_cell_angle_beta  90.00000
_cell_angle_gamma 120.00000
_space_group_name_H-M_alt      'P 1'


loop_
_space_group_symop_operation_xyz
  'x, y, z' 

loop_
_atom_site_label
_atom_site_fract_x
_atom_site_fract_y
_atom_site_fract_z
_atom_site_type_symbol
Pr         0.0  0.08433  0.83333    Pr
Pr         0.0  0.91567  0.33333    Pr
O       0.0063   0.0705   0.4549     O
O       0.0063   0.9358  0.71177     O
H       0.0171   0.3419    0.009     H
H       0.0171   0.6752  0.15767     H
C       0.0245   0.1987   0.9626     C
C       0.0245   0.8258  0.20407     C
O        0.033   0.1416   0.9312     O
O        0.033   0.8914  0.23547     O
H       0.0387   0.2271  0.18297     H
H       0.0387   0.8116   0.9837     H
O       0.0405     0.21  0.66827     O
O       0.0405   0.8305   0.4984     O
C      0.05205   0.1041     0.25     C
C      0.05205  0.94795  0.91667     C
O       0.0642   0.0705   0.0451     O
O       0.0642   0.9937  0.12157     O
C       0.0699   0.3651   0.9859     C
C       0.0699   0.7048  0.18077     C
O       0.0705   0.0063  0.87843     O
O       0.0705   0.0642  0.28823     O
Pr     0.08433      0.0      0.5    Pr
Pr     0.08433  0.08433  0.66667    Pr
C       0.0853   0.2594  0.20967     C
C       0.0853   0.8259    0.957     C
C       0.0916   0.3033    0.958     C
C       0.0916   0.7883  0.20867     C
C       0.1041  0.05205  0.08333     C
C      0.10475   0.2095     0.25     C
C      0.10475  0.89525  0.91667     C
O       0.1086   0.1416   0.5688     O
O       0.1086    0.967  0.59787     O
H       0.1104   0.2977   0.5916     H
H       0.1104   0.8127  0.57507     H
H       0.1147   0.5029   0.9982     H
H       0.1147   0.6118  0.16847     H
H       0.1231   0.3889  0.18147     H
H       0.1231   0.7342   0.9852     H
C       0.1282    0.462   0.9787     C
C       0.1282   0.6662  0.18797     C
C        0.135   0.3563  0.20927     C
C        0.135   0.7787   0.9574     C
O       0.1416    0.033  0.40213     O
O       0.1416   0.1086  0.76453     O
H        0.149   0.5285  0.22477     H
H        0.149   0.6205   0.9419     H
C       0.1676   0.3386   0.5748     C
C       0.1676    0.829  0.59187     C
O       0.1695     0.21  0.83173     O
O       0.1695   0.9595  0.33493     O
C        0.171   0.3386   0.9252     C
C        0.171   0.8324  0.24147     C
C       0.1741   0.2594  0.29033     C
C       0.1741   0.9147  0.87633     C
C       0.1742   0.1987   0.5374     C
C       0.1742   0.9755  0.62927     C
H       0.1771   0.4561   0.6059     H
H       0.1771    0.721  0.56077     H
H       0.1873   0.2977   0.9084     H
H       0.1873   0.8896  0.25827     H
H       0.1884   0.2271  0.31703     H
H       0.1884   0.9613  0.84963     H
C       0.1987   0.0245  0.37073     C
C       0.1987   0.1742  0.79593     C
C      0.20275   0.4055     0.25     C
C      0.20275  0.79725  0.91667     C
C       0.2051   0.4985   0.9434     C
C       0.2051   0.7066  0.22327     C
C       0.2072   0.4337   0.5828     C
C       0.2072   0.7735  0.58387     C
C       0.2095  0.10475  0.08333     C
O         0.21   0.0405  0.66507     O
O         0.21   0.1695   0.5016     O
C       0.2116   0.5613  0.23577     C
C       0.2116   0.6503   0.9309     C
C       0.2117   0.3033    0.542     C
C       0.2117   0.9084  0.62467     C
C       0.2213   0.3563  0.29073     C
C       0.2213    0.865  0.87593     C
C       0.2265   0.4337   0.9172     C
C       0.2265   0.7928  0.24947     C
H       0.2271   0.0387  0.15037     H
H       0.2271   0.1884   0.0163     H
H        0.228    0.614  0.58333     H
C       0.2554   0.5108     0.25     C
C       0.2554   0.7446  0.91667     C
C       0.2565   0.5991   0.9296     C
C       0.2565   0.6574  0.23707     C
C       0.2594   0.0853  0.12367     C
C       0.2594   0.1741    0.043     C
H       0.2658   0.3889  0.31853     H
H       0.2658   0.8769  0.84813     H
H        0.279   0.4561   0.8941     H
H        0.279   0.8229  0.27257     H
C       0.2933  0.64665  0.58333     C
C       0.2934   0.4985   0.5566     C
C       0.2934   0.7949  0.61007     C
C       0.2952   0.3651   0.5141     C
C       0.2952   0.9301  0.65257     C
H       0.2977   0.1104  0.74173     H
H       0.2977   0.1873  0.42493     H
C       0.3033   0.0916  0.37533     C
C       0.3033   0.2117  0.79133     C
H       0.3248   0.3419    0.491     H
H       0.3248   0.9829  0.67567     H
C       0.3338    0.462   0.5213     C
C       0.3338   0.8718  0.64537     C
C       0.3386   0.1676  0.75853     C
C       0.3386    0.171  0.40813     C
H       0.3419   0.0171  0.32433     H
H       0.3419   0.3248  0.84233     H
C       0.3426   0.5991   0.5704     C
C       0.3426   0.7435  0.59627     C
C       0.3497   0.5613  0.26423     C
C       0.3497   0.7884  0.90243     C
C      0.35335  0.64665  0.91667     C
C      0.35335   0.7067     0.25     C
C       0.3563    0.135  0.12407     C
C       0.3563   0.2213   0.0426     C
C       0.3651   0.0699  0.34743     C
C       0.3651   0.2952  0.81923     C
H       0.3795   0.5285  0.27523     H
H       0.3795    0.851  0.89143     H
H        0.386    0.614  0.91667     H
H        0.386    0.772     0.25     H
H       0.3882   0.5029   0.5018     H
H       0.3882   0.8853  0.66487     H
H       0.3889   0.1231  0.15187     H
H       0.3889   0.2658   0.0148     H
C       0.4009   0.6574  0.26293     C
C       0.4009   0.7435  0.90373     C
C       0.4055  0.20275  0.08333     C
C       0.4337   0.2072  0.75053     C
C       0.4337   0.2265  0.41613     C
C       0.4387   0.6503   0.5691     C
C       0.4387   0.7884  0.59757     C
H       0.4561   0.1771  0.72743     H
H       0.4561    0.279  0.43923     H
C        0.462   0.1282  0.35463     C
C        0.462   0.3338  0.81203     C
H       0.4715   0.6205   0.5581     H
H       0.4715    0.851  0.60857     H
C       0.4892   0.7446  0.58333     C
H       0.4971   0.6118  0.33153     H
H       0.4971   0.8853  0.83513     H
C       0.4985   0.2051  0.38993     C
C       0.4985   0.2934  0.77673     C
C       0.5015   0.7066  0.27673     C
C       0.5015   0.7949  0.88993     C
H       0.5029   0.1147  0.33513     H
H       0.5029   0.3882  0.83153     H
C       0.5108   0.2554  0.08333     C
H       0.5285    0.149  0.10857     H
H       0.5285   0.3795   0.0581     H
C        0.538   0.6662  0.31203     C
C        0.538   0.8718  0.85463     C
H       0.5439    0.721  0.93923     H
H       0.5439   0.8229  0.22743     H
C       0.5613   0.2116  0.09757     C
C       0.5613   0.3497   0.0691     C
C       0.5663   0.7735  0.91613     C
C       0.5663   0.7928  0.25053     C
C       0.5945  0.79725  0.58333     C
C       0.5991   0.2565  0.40373     C
C       0.5991   0.3426  0.76293     C
H       0.6111   0.7342   0.5148     H
H       0.6111   0.8769  0.65187     H
H       0.6118   0.1147  0.16487     H
H       0.6118   0.4971   0.0018     H
H        0.614    0.228     0.75     H
H        0.614    0.386  0.41667     H
H       0.6205    0.149  0.39143     H
H       0.6205   0.4715  0.77523     H
C       0.6349   0.7048  0.31923     C
C       0.6349   0.9301  0.84743     C
C       0.6437   0.7787   0.5426     C
C       0.6437    0.865  0.62407     C
C      0.64665   0.2933     0.75     C
C      0.64665  0.35335  0.41667     C
C       0.6503   0.2116  0.40243     C
C       0.6503   0.4387  0.76423     C
C       0.6574   0.2565  0.09627     C
C       0.6574   0.4009   0.0704     C
H       0.6581   0.6752  0.34233     H
H       0.6581   0.9829  0.82433     H
C       0.6614    0.829  0.90813     C
C       0.6614   0.8324  0.25853     C
C       0.6662   0.1282  0.14537     C
C       0.6662    0.538   0.0213     C
H       0.6752   0.0171  0.17567     H
H       0.6752   0.6581    0.991     H
C       0.6967   0.7883  0.29133     C
C       0.6967   0.9084  0.87533     C
H       0.7023   0.8127  0.92493     H
H       0.7023   0.8896  0.24173     H
C       0.7048   0.0699  0.15257     C
C       0.7048   0.6349   0.0141     C
C       0.7066   0.2051  0.11007     C
C       0.7066   0.5015   0.0566     C
C       0.7067  0.35335  0.08333     C
H        0.721   0.1771  0.77257     H
H        0.721   0.5439   0.3941     H
H       0.7342   0.1231  0.34813     H
H       0.7342   0.6111  0.81853     H
C       0.7406   0.8259    0.543     C
C       0.7406   0.9147  0.62367     C
C       0.7435   0.3426  0.73707     C
C       0.7435   0.4009   0.4296     C
C       0.7446   0.2554  0.41667     C
C       0.7446   0.4892     0.75     C
H        0.772    0.386  0.08333     H
H       0.7729   0.8116   0.5163     H
H       0.7729   0.9613  0.65037     H
C       0.7735   0.2072  0.74947     C
C       0.7735   0.5663   0.4172     C
C       0.7787    0.135  0.37593     C
C       0.7787   0.6437  0.79073     C
C       0.7883   0.0916  0.12467     C
C       0.7883   0.6967    0.042     C
C       0.7884   0.3497   0.4309     C
C       0.7884   0.4387  0.73577     C
O         0.79   0.8305   0.0016     O
O         0.79   0.9595  0.16507     O
C       0.7905  0.89525  0.58333     C
C       0.7928   0.2265  0.08387     C
C       0.7928   0.5663   0.0828     C
C       0.7949   0.2934  0.72327     C
C       0.7949   0.5015   0.4434     C
C      0.79725  0.20275  0.41667     C
C      0.79725   0.5945     0.75     C
C       0.8013   0.8258  0.29593     C
C       0.8013   0.9755  0.87073     C
H       0.8116   0.0387  0.34963     H
H       0.8116   0.7729  0.81703     H
H       0.8127   0.1104  0.75827     H
H       0.8127   0.7023   0.4084     H
H       0.8229    0.279  0.06077     H
H       0.8229   0.5439   0.1059     H
C       0.8258   0.0245  0.12927     C
C       0.8258   0.8013   0.0374     C
C       0.8259   0.0853  0.37633     C
C       0.8259   0.7406  0.79033     C
C        0.829   0.1676  0.74147     C
C        0.829   0.6614   0.4252     C
O       0.8305   0.0405  0.83493     O
O       0.8305     0.79  0.33173     O
C       0.8324    0.171  0.09187     C
C       0.8324   0.6614   0.0748     C
H        0.851   0.3795   0.4419     H
H        0.851   0.4715  0.72477     H
O       0.8584   0.8914  0.26453     O
O       0.8584    0.967  0.90213     O
C        0.865   0.2213   0.4574     C
C        0.865   0.6437  0.70927     C
C       0.8718   0.3338  0.68797     C
C       0.8718    0.538   0.4787     C
H       0.8769   0.2658   0.4852     H
H       0.8769   0.6111  0.68147     H
H       0.8853   0.3882  0.66847     H
H       0.8853   0.4971   0.4982     H
H       0.8896   0.1873  0.07507     H
H       0.8896   0.7023   0.0916     H
O       0.8914    0.033  0.09787     O
O       0.8914   0.8584   0.0688     O
C      0.89525  0.10475  0.41667     C
C      0.89525   0.7905     0.75     C
C       0.8959  0.94795  0.58333     C
C       0.9084   0.2117  0.70867     C
C       0.9084   0.6967    0.458     C
C       0.9147   0.1741    0.457     C
C       0.9147   0.7406  0.70967     C
Pr     0.91567      0.0      0.0    Pr
Pr     0.91567  0.91567  0.16667    Pr
O       0.9295   0.9358  0.78823     O
O       0.9295   0.9937  0.37843     O
C       0.9301   0.2952  0.68077     C
C       0.9301   0.6349   0.4859     C
O       0.9358   0.0063  0.62157     O
O       0.9358   0.9295   0.5451     O
C      0.94795  0.05205  0.41667     C
C      0.94795   0.8959     0.75     C
O       0.9595   0.1695   0.9984     O
O       0.9595     0.79  0.16827     O
H       0.9613   0.1884   0.4837     H
H       0.9613   0.7729  0.68297     H
O        0.967   0.1086  0.73547     O
O        0.967   0.8584   0.4312     O
C       0.9755   0.1742  0.70407     C
C       0.9755   0.8013   0.4626     C
H       0.9829   0.3248  0.65767     H
H       0.9829   0.6581    0.509     H
O       0.9937   0.0642  0.21177     O
O       0.9937   0.9295   0.9549     O
