data_I
_chemical_name_common  '/home/zhangsd/repos/MofS-CGCNN/ML/data/TSD/clean_cifs/ZEJCUO_clean'
_cell_length_a  4.96800
_cell_length_b 11.62100
_cell_length_c 19.66900
_cell_angle_alpha 107.16000
_cell_angle_beta  90.00000
_cell_angle_gamma 90.00000
_space_group_name_H-M_alt      'P 1'


loop_
_space_group_symop_operation_xyz
  'x, y, z' 

loop_
_atom_site_label
_atom_site_fract_x
_atom_site_fract_y
_atom_site_fract_z
_atom_site_type_symbol
S       0.1143   0.2557  0.00319     S
S       0.1143   0.7443  0.99681     S
Mn     0.22395  0.12132  0.24223    Mn
Mn     0.22395  0.87868  0.75777    Mn
Mn      0.2259   0.3814    0.766    Mn
Mn      0.2259   0.6186    0.234    Mn
P       0.2833   0.1678  0.84465     P
P       0.2833   0.8322  0.15535     P
P       0.2882   0.3268  0.16375     P
P       0.2882   0.6732  0.83625     P
C        0.347   0.2671   0.0697     C
C        0.347   0.7329   0.9303     C
C       0.3607   0.2062   0.9367     C
C       0.3607   0.7938   0.0633     C
O        0.429   0.2667   0.8153     O
O        0.429   0.7333   0.1847     O
O         0.43   0.0459   0.8097     O
O         0.43   0.9541   0.1903     O
O        0.432   0.2506    0.201     O
O        0.432   0.7494    0.799     O
O        0.435   0.4515    0.193     O
O        0.435   0.5485    0.807     O
O        0.484   0.3339   0.6746     O
O        0.484   0.6661   0.3254     O
O        0.487   0.1667   0.3314     O
O        0.487   0.8333   0.6686     O
C       0.5982   0.2389   0.0403     C
C       0.5982   0.7611   0.9597     C
C       0.5995   0.2096   0.9638     C
C       0.5995   0.7904   0.0362     C
Mn     0.72065  0.12153  0.74303    Mn
Mn     0.72065  0.87847  0.25697    Mn
Mn     0.72526   0.3827  0.26878    Mn
Mn     0.72526   0.6173  0.73122    Mn
H      0.75726  0.23878  0.06798     H
H      0.75726  0.76122  0.93202     H
H      0.76093  0.19412  0.93579     H
H      0.76093  0.80588  0.06421     H
P       0.7845   0.3267   0.6626     P
P       0.7845   0.6733   0.3374     P
P       0.7869   0.1675   0.3425     P
P       0.7869   0.8325   0.6575     P
S       0.8067   0.3277   0.5028     S
S       0.8067   0.6723   0.4972     S
C        0.833   0.1878   0.4357     C
C        0.833   0.8122   0.5643     C
C        0.847   0.2663   0.5685     C
C        0.847   0.7337   0.4315     C
H      0.84766  0.07616   0.5649     H
H      0.84766  0.92384   0.4351     H
C       0.8607   0.1329   0.5381     C
C       0.8607   0.8671   0.4619     C
C       0.8961   0.1029    0.463     C
C       0.8961   0.8971    0.537     C
O         0.92   0.0452   0.3033     O
O         0.92   0.9548   0.6967     O
O        0.923   0.2583   0.3146     O
O        0.923   0.7417   0.6854     O
O        0.928   0.2399   0.6992     O
O        0.928   0.7601   0.3008     O
O        0.932   0.4506   0.6863     O
O        0.932   0.5494   0.3137     O
H      0.96171  0.02587  0.43491     H
H      0.96171  0.97413  0.56509     H
O       0.9805   0.1642   0.8328     O
O       0.9805   0.8358   0.1672     O
O       0.9922   0.3344   0.1782     O
O       0.9922   0.6656   0.8218     O
