data_I
_chemical_name_common  '/home/zhangsd/repos/MofS-CGCNN/ML/data/TSD/clean_cifs/ZERNIV_clean'
_cell_length_a 12.78800
_cell_length_b 13.67000
_cell_length_c 14.21100
_cell_angle_alpha 66.16900
_cell_angle_beta  66.94700
_cell_angle_gamma 77.01900
_space_group_name_H-M_alt      'P 1'


loop_
_space_group_symop_operation_xyz
  'x, y, z' 

loop_
_atom_site_label
_atom_site_fract_x
_atom_site_fract_y
_atom_site_fract_z
_atom_site_type_symbol
C       0.0065   0.0771   0.6165     C
H       0.0071   0.3563   0.9193     H
H       0.0159   0.4898   0.7544     H
H       0.0193   0.2616   0.6972     H
H       0.0249   0.7643   0.7628     H
C       0.0306   0.8415   0.3419     C
C       0.0416   0.8699   0.0368     C
H       0.0455    0.956   0.3896     H
C       0.0457   0.2076   0.6675     C
C       0.0467   0.2039   0.2401     C
H       0.0473   0.2634   0.3489     H
C       0.0547   0.1313    0.104     C
C       0.0562   0.4101   0.8902     C
C       0.0614   0.4893   0.7921     C
C        0.063   0.8691   0.8627     C
N       0.0716   0.1297   0.9293     N
H       0.0744   0.8711   0.0842     H
C       0.0897   0.2206   0.3076     C
C       0.1069   0.1413   0.1768     C
H       0.1078   0.8194     0.32     H
H       0.1083   0.8701   0.7928     H
C        0.113   0.8678   0.9347     C
C       0.1162   0.1311   0.9994     C
H       0.1178   0.3546   0.0131     H
C       0.1217   0.0445   0.5838     C
C       0.1228   0.4091   0.9462     C
C       0.1348   0.5687   0.7493     C
H        0.138   0.6232   0.6828     H
H       0.1468   0.9881   0.5576     H
C       0.1623   0.1775   0.6332     C
C        0.194   0.1743   0.3135     C
H       0.1949    0.132    0.976     H
C       0.1976   0.4878   0.9054     C
C       0.1997   0.0956   0.5898     C
C       0.2041   0.5682   0.8046     C
H       0.2049   0.3803   0.5774     H
C       0.2154   0.0959   0.1823     C
H       0.2228   0.1846   0.3593     H
H       0.2229   0.6325   0.9722     H
C       0.2393   0.8627   0.9031     C
C       0.2394   0.2246   0.6568     C
C       0.2474   0.3346    0.621     C
C       0.2567   0.1121   0.2512     C
O       0.2567    0.939    0.135     O
O       0.2582   0.7459   0.6886     O
C       0.2621   0.5686   0.0022     C
C       0.2626   0.4826   0.9755     C
O       0.2777   0.8599   0.9723     O
C       0.2851   0.6549   0.7505     C
C       0.2896   0.0231   0.1227     C
H       0.2992   0.0842   0.7501     H
O       0.2994   0.8596   0.8103     O
C       0.3023   0.1582   0.7234     C
N       0.3124   0.3787   0.6454     N
N       0.3141   0.5672   0.0685     N
C       0.3224   0.3874   0.0205     C
C       0.3238   0.0662   0.5375     C
H       0.3272   0.3274   0.0031     H
H       0.3279   0.0805   0.2553     H
H        0.347   0.6746   0.1066     H
O       0.3555   0.9684   0.5508     O
O       0.3684    0.708   0.1345     O
C       0.3692   0.4743   0.1121     C
C       0.3697   0.2028   0.7496     C
C        0.372   0.3136   0.7091     C
C       0.3744   0.3832   0.0911     C
O       0.3785   0.6367   0.7655     O
O       0.3873   0.1408    0.478     O
O       0.3902   0.0473   0.0607     O
H       0.4055   0.4713   0.1586     H
H       0.4108   0.7435   0.1402     H
H       0.4168   0.3435   0.7271     H
Tb     0.42851  0.88135  0.01143    Tb
Tb     0.43172  0.82022  0.66484    Tb
O       0.4324   0.0322   0.8511     O
C       0.4373   0.1323    0.821     C
C       0.4391   0.2825   0.1425     C
H        0.446   0.6943   0.5228     H
O       0.4514   0.2726   0.2295     O
O       0.4741   0.2152   0.0967     O
O       0.4755   0.7398   0.5294     O
H       0.4796   0.2212    0.473     H
O       0.4935   0.1754   0.8472     O
O       0.5065   0.8246   0.1528     O
H       0.5204   0.7788    0.527     H
O       0.5245   0.2602   0.4706     O
O       0.5259   0.7848   0.9033     O
O       0.5486   0.7274   0.7705     O
H        0.554   0.3057   0.4772     H
C       0.5609   0.7175   0.8575     C
C       0.5627   0.8677    0.179     C
O       0.5676   0.9678   0.1489     O
Tb     0.56828  0.17978  0.33516    Tb
Tb     0.57149  0.11865  0.98857    Tb
H       0.5832   0.6565   0.2729     H
H       0.5892   0.2565   0.8598     H
H       0.5945   0.5287   0.8414     H
O       0.6098   0.9527   0.9393     O
O       0.6127   0.8592    0.522     O
O       0.6215   0.3633   0.2345     O
C       0.6256   0.6168   0.9089     C
C        0.628   0.6864   0.2909     C
C       0.6303   0.7972   0.2504     C
C       0.6308   0.5257   0.8879     C
O       0.6316    0.292   0.8655     O
O       0.6445   0.0316   0.4492     O
H        0.653   0.3254   0.8934     H
H       0.6721   0.9195   0.7447     H
H       0.6728   0.6726   0.9969     H
C       0.6762   0.9338   0.4625     C
C       0.6776   0.6126   0.9795     C
N       0.6859   0.4328   0.9315     N
N       0.6876   0.6213   0.3546     N
C       0.6977   0.8418   0.2766     C
O       0.7006   0.1404   0.1897     O
H       0.7008   0.9158   0.2499     H
C       0.7104   0.9769   0.8773     C
C       0.7149   0.3451   0.2495     C
O       0.7223   0.1401   0.0277     O
C       0.7374   0.5174   0.0245     C
C       0.7379   0.4314   0.9978     C
O       0.7418   0.2541   0.3114     O
O       0.7433    0.061    0.865     O
C       0.7433   0.8879   0.7488     C
C       0.7526   0.6654    0.379     C
C       0.7606   0.7754   0.3432     C
C       0.7607   0.1373   0.0969     C
H       0.7771   0.3675   0.0278     H
H       0.7772   0.8154   0.6407     H
C       0.7846   0.9041   0.8177     C
H       0.7951   0.6197   0.4226     H
C       0.7959   0.4318   0.1954     C
C       0.8003   0.9044   0.4102     C
C       0.8024   0.5122   0.0946     C
H       0.8051    0.868    0.024     H
C        0.806   0.8257   0.6865     C
C       0.8377   0.8225   0.3668     C
H       0.8532   0.0119   0.4424     H
H        0.862   0.3768   0.3172     H
C       0.8652   0.4313   0.2507     C
C       0.8772   0.5909   0.0538     C
C       0.8783   0.9555   0.4162     C
H       0.8822   0.6454   0.9869     H
C       0.8838   0.8689   0.0006     C
C        0.887   0.1322   0.0653     C
H       0.8917   0.1299   0.2072     H
H       0.8922   0.1806     0.68     H
C       0.8931   0.8587   0.8232     C
C       0.9103   0.7794   0.6924     C
H       0.9256   0.1289   0.9158     H
N       0.9284   0.8703   0.0707     N
C        0.937   0.1309   0.1373     C
C       0.9386   0.5107   0.2079     C
C       0.9438   0.5899   0.1098     C
C       0.9453   0.8687    0.896     C
H       0.9527   0.7366   0.6511     H
C       0.9533   0.7961   0.7599     C
C       0.9543   0.7924   0.3325     C
H       0.9545    0.044   0.6104     H
C       0.9584   0.1301   0.9632     C
C       0.9694   0.1585   0.6581     C
H       0.9751   0.2357   0.2372     H
H       0.9807   0.7384   0.3028     H
H       0.9841   0.5102   0.2456     H
H       0.9929   0.6437   0.0807     H
C       0.9935   0.9229   0.3835     C
