data_I
_chemical_name_common  '/home/zhangsd/repos/MofS-CGCNN/ML/data/TSD/clean_cifs/ZIJSAO_clean'
_cell_length_a 33.00010
_cell_length_b 33.00010
_cell_length_c 33.00010
_cell_angle_alpha 90.00000
_cell_angle_beta  90.00000
_cell_angle_gamma 90.00000
_space_group_name_H-M_alt      'P 1'


loop_
_space_group_symop_operation_xyz
  'x, y, z' 

loop_
_atom_site_label
_atom_site_fract_x
_atom_site_fract_y
_atom_site_fract_z
_atom_site_type_symbol
Tb         0.0      0.0  0.39398    Tb
Tb         0.0      0.0  0.60602    Tb
Tb         0.0  0.39398      0.0    Tb
Tb         0.0  0.60602      0.0    Tb
O       0.0327   0.0463   0.6503     O
O       0.0327   0.3497   0.0463     O
O       0.0327   0.6503   0.9537     O
O       0.0327   0.9537   0.3497     O
O       0.0404   0.0565   0.4116     O
O       0.0404   0.4116   0.9435     O
O       0.0404   0.5884   0.0565     O
O       0.0404   0.9435   0.5884     O
O       0.0463   0.0327   0.3497     O
O       0.0463   0.3497   0.9673     O
O       0.0463   0.6503   0.0327     O
O       0.0463   0.9673   0.6503     O
C       0.0479   0.0634   0.6135     C
C       0.0479   0.3865   0.0634     C
C       0.0479   0.6135   0.9366     C
C       0.0479   0.9366   0.3865     C
O       0.0565   0.0404   0.5884     O
O       0.0565   0.4116   0.0404     O
O       0.0565   0.5884   0.9596     O
O       0.0565   0.9596   0.4116     O
C       0.0634   0.0479   0.3865     C
C       0.0634   0.3865   0.9521     C
C       0.0634   0.6135   0.0479     C
C       0.0634   0.9521   0.6135     C
H       0.0637   0.3773   0.5737     H
H       0.0637   0.4263   0.3773     H
H       0.0637   0.5737   0.6227     H
H       0.0637   0.6227   0.4263     H
H       0.0737   0.1227   0.5637     H
H       0.0737   0.4363   0.1227     H
H       0.0737   0.5637   0.8773     H
H       0.0737   0.8773   0.4363     H
H       0.0753   0.3183   0.6101     H
H       0.0753   0.3899   0.3183     H
H       0.0753   0.6101   0.6817     H
H       0.0753   0.6817   0.3899     H
C       0.0758   0.1018   0.6212     C
C       0.0758   0.3788   0.1018     C
C       0.0758   0.6212   0.8982     C
C       0.0758   0.8982   0.3788     C
C       0.0833   0.1285   0.5895     C
C       0.0833   0.4105   0.1285     C
C       0.0833   0.5895   0.8715     C
C       0.0833   0.8715   0.4105     C
H        0.085   0.0926   0.6811     H
H        0.085   0.3189   0.0926     H
H        0.085   0.6811   0.9074     H
H        0.085   0.9074   0.3189     H
O       0.0884   0.4435   0.4596     O
O       0.0884   0.4596   0.5565     O
O       0.0884   0.5404   0.4435     O
O       0.0884   0.5565   0.5404     O
C       0.0895   0.3715   0.5833     C
C       0.0895   0.4167   0.3715     C
C       0.0895   0.5833   0.6285     C
C       0.0895   0.6285   0.4167     C
C         0.09   0.1105   0.6599     C
C         0.09   0.3401   0.1105     C
C         0.09   0.6599   0.8895     C
C         0.09   0.8895   0.3401     C
H       0.0926    0.085   0.3189     H
H       0.0926   0.3189    0.915     H
H       0.0926   0.6811    0.085     H
H       0.0926    0.915   0.6811     H
C       0.0965   0.3361    0.605     C
C       0.0965    0.395   0.3361     C
C       0.0965    0.605   0.6639     C
C       0.0965   0.6639    0.395     C
C       0.1018   0.0758   0.3788     C
C       0.1018   0.3788   0.9242     C
C       0.1018   0.6212   0.0758     C
C       0.1018   0.9242   0.6212     C
C        0.105   0.1639   0.5965     C
C        0.105   0.4035   0.1639     C
C        0.105   0.5965   0.8361     C
C        0.105   0.8361   0.4035     C
Tb     0.10602      0.5      0.5    Tb
H       0.1101   0.1817   0.5753     H
H       0.1101   0.4247   0.1817     H
H       0.1101   0.5753   0.8183     H
H       0.1101   0.8183   0.4247     H
C       0.1105     0.09   0.3401     C
C       0.1105   0.3401     0.91     C
C       0.1105   0.6599     0.09     C
C       0.1105     0.91   0.6599     C
H       0.1113     0.25   0.6113     H
H       0.1113   0.3887     0.25     H
H       0.1113   0.6113     0.75     H
H       0.1113     0.75   0.3887     H
C       0.1118   0.1459   0.6669     C
C       0.1118   0.3331   0.1459     C
C       0.1118   0.6669   0.8541     C
C       0.1118   0.8541   0.3331     C
C       0.1135   0.4366   0.5479     C
C       0.1135   0.4521   0.4366     C
C       0.1135   0.5479   0.5634     C
C       0.1135   0.5634   0.4521     C
C       0.1193   0.1726   0.6351     C
C       0.1193   0.3649   0.1726     C
C       0.1193   0.6351   0.8274     C
C       0.1193   0.8274   0.3649     C
C       0.1212   0.3982   0.5758     C
C       0.1212   0.4242   0.3982     C
C       0.1212   0.5758   0.6018     C
C       0.1212   0.6018   0.4242     C
H       0.1213   0.1517   0.6927     H
H       0.1213   0.3073   0.1517     H
H       0.1213   0.6927   0.8483     H
H       0.1213   0.8483   0.3073     H
H       0.1227   0.0737   0.4363     H
H       0.1227   0.4363   0.9263     H
H       0.1227   0.5637   0.0737     H
H       0.1227   0.9263   0.5637     H
C       0.1285   0.0833   0.4105     C
C       0.1285   0.4105   0.9167     C
C       0.1285   0.5895   0.0833     C
C       0.1285   0.9167   0.5895     C
C       0.1312     0.25   0.6312     C
C       0.1312   0.3688     0.25     C
C       0.1312   0.6312     0.75     C
C       0.1312     0.75   0.3688     C
C       0.1351   0.3274   0.6193     C
C       0.1351   0.3807   0.3274     C
C       0.1351   0.6193   0.6726     C
C       0.1351   0.6726   0.3807     C
C       0.1407   0.2139   0.6464     C
C       0.1407   0.3536   0.2139     C
C       0.1407   0.6464   0.7861     C
C       0.1407   0.7861   0.3536     C
C       0.1459   0.1118   0.3331     C
C       0.1459   0.3331   0.8882     C
C       0.1459   0.6669   0.1118     C
C       0.1459   0.8882   0.6669     C
C       0.1464   0.2861   0.6407     C
C       0.1464   0.3593   0.2861     C
C       0.1464   0.6407   0.7139     C
C       0.1464   0.7139   0.3593     C
O       0.1503   0.4537   0.5327     O
O       0.1503   0.4673   0.4537     O
O       0.1503   0.5327   0.5463     O
O       0.1503   0.5463   0.4673     O
H       0.1517   0.1213   0.3073     H
H       0.1517   0.3073   0.8787     H
H       0.1517   0.6927   0.1213     H
H       0.1517   0.8787   0.6927     H
C       0.1599   0.3895     0.59     C
C       0.1599     0.41   0.3895     C
C       0.1599     0.59   0.6105     C
C       0.1599   0.6105     0.41     C
C       0.1639    0.105   0.4035     C
C       0.1639   0.4035    0.895     C
C       0.1639   0.5965    0.105     C
C       0.1639    0.895   0.5965     C
C       0.1669   0.3541   0.6118     C
C       0.1669   0.3882   0.3541     C
C       0.1669   0.6118   0.6459     C
C       0.1669   0.6459   0.3882     C
C       0.1717   0.2152   0.6743     C
C       0.1717   0.3257   0.2152     C
C       0.1717   0.6743   0.7848     C
C       0.1717   0.7848   0.3257     C
C       0.1726   0.1193   0.3649     C
C       0.1726   0.3649   0.8807     C
C       0.1726   0.6351   0.1193     C
C       0.1726   0.8807   0.6351     C
C       0.1743   0.2848   0.6717     C
C       0.1743   0.3283   0.2848     C
C       0.1743   0.6717   0.7152     C
C       0.1743   0.7152   0.3283     C
H       0.1811   0.4074    0.585     H
H       0.1811    0.415   0.4074     H
H       0.1811    0.585   0.5926     H
H       0.1811   0.5926    0.415     H
H       0.1817   0.1101   0.4247     H
H       0.1817   0.4247   0.8899     H
H       0.1817   0.5753   0.1101     H
H       0.1817   0.8899   0.5753     H
H       0.1819   0.1909   0.6843     H
H       0.1819   0.3157   0.1909     H
H       0.1819   0.6843   0.8091     H
H       0.1819   0.8091   0.3157     H
H       0.1843   0.3091   0.6819     H
H       0.1843   0.3181   0.3091     H
H       0.1843   0.6819   0.6909     H
H       0.1843   0.6909   0.3181     H
C       0.1876     0.25   0.6876     C
C       0.1876   0.3124     0.25     C
C       0.1876   0.6876     0.75     C
C       0.1876     0.75   0.3124     C
H       0.1909   0.1819   0.3157     H
H       0.1909   0.3157   0.8181     H
H       0.1909   0.6843   0.1819     H
H       0.1909   0.8181   0.6843     H
H       0.1927   0.3483   0.6213     H
H       0.1927   0.3787   0.3483     H
H       0.1927   0.6213   0.6517     H
H       0.1927   0.6517   0.3787     H
H       0.1999     0.25   0.3001     H
H       0.1999   0.3001     0.75     H
H       0.1999   0.6999     0.25     H
H       0.1999     0.75   0.6999     H
C       0.2139   0.1407   0.3536     C
C       0.2139   0.3536   0.8593     C
C       0.2139   0.6464   0.1407     C
C       0.2139   0.8593   0.6464     C
C       0.2152   0.1717   0.3257     C
C       0.2152   0.3257   0.8283     C
C       0.2152   0.6743   0.1717     C
C       0.2152   0.8283   0.6743     C
C       0.2195     0.25   0.7195     C
C       0.2195   0.2805     0.25     C
C       0.2195   0.7195     0.75     C
C       0.2195     0.75   0.2805     C
C       0.2198     0.25   0.2802     C
C       0.2198   0.2802     0.75     C
C       0.2198   0.7198     0.25     C
C       0.2198     0.75   0.7198     C
H         0.25   0.1113   0.3887     H
C         0.25   0.1312   0.3688     C
C         0.25   0.1876   0.3124     C
H         0.25   0.1999   0.6999     H
C         0.25   0.2195   0.2805     C
C         0.25   0.2198   0.7198     C
C         0.25   0.2802   0.2198     C
C         0.25   0.2805   0.7805     C
H         0.25   0.3001   0.1999     H
C         0.25   0.3124   0.8124     C
C         0.25   0.3688   0.8688     C
H         0.25   0.3887   0.8887     H
H         0.25   0.6113   0.1113     H
C         0.25   0.6312   0.1312     C
C         0.25   0.6876   0.1876     C
H         0.25   0.6999   0.8001     H
C         0.25   0.7195   0.2195     C
C         0.25   0.7198   0.7802     C
C         0.25   0.7802   0.2802     C
C         0.25   0.7805   0.7195     C
H         0.25   0.8001   0.3001     H
C         0.25   0.8124   0.6876     C
C         0.25   0.8688   0.6312     C
H         0.25   0.8887   0.6113     H
C       0.2802   0.2198     0.25     C
C       0.2802     0.25   0.7802     C
C       0.2802     0.75   0.2198     C
C       0.2802   0.7802     0.75     C
C       0.2805   0.2195     0.75     C
C       0.2805     0.25   0.2195     C
C       0.2805     0.75   0.7805     C
C       0.2805   0.7805     0.25     C
C       0.2848   0.1743   0.3283     C
C       0.2848   0.3283   0.8257     C
C       0.2848   0.6717   0.1743     C
C       0.2848   0.8257   0.6717     C
C       0.2861   0.1464   0.3593     C
C       0.2861   0.3593   0.8536     C
C       0.2861   0.6407   0.1464     C
C       0.2861   0.8536   0.6407     C
H       0.3001   0.1999     0.25     H
H       0.3001     0.25   0.8001     H
H       0.3001     0.75   0.1999     H
H       0.3001   0.8001     0.75     H
H       0.3073   0.1213   0.8483     H
H       0.3073   0.1517   0.1213     H
H       0.3073   0.8483   0.8787     H
H       0.3073   0.8787   0.1517     H
H       0.3091   0.1843   0.3181     H
H       0.3091   0.3181   0.8157     H
H       0.3091   0.6819   0.1843     H
H       0.3091   0.8157   0.6819     H
C       0.3124   0.1876     0.75     C
C       0.3124     0.25   0.1876     C
C       0.3124     0.75   0.8124     C
C       0.3124   0.8124     0.25     C
H       0.3157   0.1819   0.8091     H
H       0.3157   0.1909   0.1819     H
H       0.3157   0.8091   0.8181     H
H       0.3157   0.8181   0.1909     H
H       0.3181   0.1843   0.6909     H
H       0.3181   0.3091   0.1843     H
H       0.3181   0.6909   0.8157     H
H       0.3181   0.8157   0.3091     H
H       0.3183   0.0753   0.3899     H
H       0.3183   0.3899   0.9247     H
H       0.3183   0.6101   0.0753     H
H       0.3183   0.9247   0.6101     H
H       0.3189    0.085   0.9074     H
H       0.3189   0.0926    0.085     H
H       0.3189   0.9074    0.915     H
H       0.3189    0.915   0.0926     H
C       0.3257   0.1717   0.7848     C
C       0.3257   0.2152   0.1717     C
C       0.3257   0.7848   0.8283     C
C       0.3257   0.8283   0.2152     C
C       0.3274   0.1351   0.3807     C
C       0.3274   0.3807   0.8649     C
C       0.3274   0.6193   0.1351     C
C       0.3274   0.8649   0.6193     C
C       0.3283   0.1743   0.7152     C
C       0.3283   0.2848   0.1743     C
C       0.3283   0.7152   0.8257     C
C       0.3283   0.8257   0.2848     C
C       0.3331   0.1118   0.8541     C
C       0.3331   0.1459   0.1118     C
C       0.3331   0.8541   0.8882     C
C       0.3331   0.8882   0.1459     C
C       0.3361   0.0965    0.395     C
C       0.3361    0.395   0.9035     C
C       0.3361    0.605   0.0965     C
C       0.3361   0.9035    0.605     C
C       0.3401     0.09   0.8895     C
C       0.3401   0.1105     0.09     C
C       0.3401   0.8895     0.91     C
C       0.3401     0.91   0.1105     C
H       0.3483   0.1927   0.3787     H
H       0.3483   0.3787   0.8073     H
H       0.3483   0.6213   0.1927     H
H       0.3483   0.8073   0.6213     H
O       0.3497   0.0327   0.9537     O
O       0.3497   0.0463   0.0327     O
O       0.3497   0.9537   0.9673     O
O       0.3497   0.9673   0.0463     O
C       0.3536   0.1407   0.7861     C
C       0.3536   0.2139   0.1407     C
C       0.3536   0.7861   0.8593     C
C       0.3536   0.8593   0.2139     C
C       0.3541   0.1669   0.3882     C
C       0.3541   0.3882   0.8331     C
C       0.3541   0.6118   0.1669     C
C       0.3541   0.8331   0.6118     C
C       0.3593   0.1464   0.7139     C
C       0.3593   0.2861   0.1464     C
C       0.3593   0.7139   0.8536     C
C       0.3593   0.8536   0.2861     C
C       0.3649   0.1193   0.8274     C
C       0.3649   0.1726   0.1193     C
C       0.3649   0.8274   0.8807     C
C       0.3649   0.8807   0.1726     C
C       0.3688   0.1312     0.75     C
C       0.3688     0.25   0.1312     C
C       0.3688     0.75   0.8688     C
C       0.3688   0.8688     0.25     C
C       0.3715   0.0895   0.4167     C
C       0.3715   0.4167   0.9105     C
C       0.3715   0.5833   0.0895     C
C       0.3715   0.9105   0.5833     C
H       0.3773   0.0637   0.4263     H
H       0.3773   0.4263   0.9363     H
H       0.3773   0.5737   0.0637     H
H       0.3773   0.9363   0.5737     H
H       0.3787   0.1927   0.6517     H
H       0.3787   0.3483   0.1927     H
H       0.3787   0.6517   0.8073     H
H       0.3787   0.8073   0.3483     H
C       0.3788   0.0758   0.8982     C
C       0.3788   0.1018   0.0758     C
C       0.3788   0.8982   0.9242     C
C       0.3788   0.9242   0.1018     C
C       0.3807   0.1351   0.6726     C
C       0.3807   0.3274   0.1351     C
C       0.3807   0.6726   0.8649     C
C       0.3807   0.8649   0.3274     C
C       0.3865   0.0479   0.9366     C
C       0.3865   0.0634   0.0479     C
C       0.3865   0.9366   0.9521     C
C       0.3865   0.9521   0.0634     C
C       0.3882   0.1669   0.6459     C
C       0.3882   0.3541   0.1669     C
C       0.3882   0.6459   0.8331     C
C       0.3882   0.8331   0.3541     C
H       0.3887   0.1113     0.75     H
H       0.3887     0.25   0.1113     H
H       0.3887     0.75   0.8887     H
H       0.3887   0.8887     0.25     H
C       0.3895   0.1599     0.41     C
C       0.3895     0.41   0.8401     C
C       0.3895     0.59   0.1599     C
C       0.3895   0.8401     0.59     C
H       0.3899   0.0753   0.6817     H
H       0.3899   0.3183   0.0753     H
H       0.3899   0.6817   0.9247     H
H       0.3899   0.9247   0.3183     H
Tb     0.39398      0.0      0.0    Tb
C        0.395   0.0965   0.6639     C
C        0.395   0.3361   0.0965     C
C        0.395   0.6639   0.9035     C
C        0.395   0.9035   0.3361     C
C       0.3982   0.1212   0.4242     C
C       0.3982   0.4242   0.8788     C
C       0.3982   0.5758   0.1212     C
C       0.3982   0.8788   0.5758     C
C       0.4035    0.105   0.8361     C
C       0.4035   0.1639    0.105     C
C       0.4035   0.8361    0.895     C
C       0.4035    0.895   0.1639     C
H       0.4074   0.1811    0.415     H
H       0.4074    0.415   0.8189     H
H       0.4074    0.585   0.1811     H
H       0.4074   0.8189    0.585     H
C         0.41   0.1599   0.6105     C
C         0.41   0.3895   0.1599     C
C         0.41   0.6105   0.8401     C
C         0.41   0.8401   0.3895     C
C       0.4105   0.0833   0.8715     C
C       0.4105   0.1285   0.0833     C
C       0.4105   0.8715   0.9167     C
C       0.4105   0.9167   0.1285     C
O       0.4116   0.0404   0.0565     O
O       0.4116   0.0565   0.9596     O
O       0.4116   0.9435   0.0404     O
O       0.4116   0.9596   0.9435     O
H        0.415   0.1811   0.5926     H
H        0.415   0.4074   0.1811     H
H        0.415   0.5926   0.8189     H
H        0.415   0.8189   0.4074     H
C       0.4167   0.0895   0.6285     C
C       0.4167   0.3715   0.0895     C
C       0.4167   0.6285   0.9105     C
C       0.4167   0.9105   0.3715     C
C       0.4242   0.1212   0.6018     C
C       0.4242   0.3982   0.1212     C
C       0.4242   0.6018   0.8788     C
C       0.4242   0.8788   0.3982     C
H       0.4247   0.1101   0.8183     H
H       0.4247   0.1817   0.1101     H
H       0.4247   0.8183   0.8899     H
H       0.4247   0.8899   0.1817     H
H       0.4263   0.0637   0.6227     H
H       0.4263   0.3773   0.0637     H
H       0.4263   0.6227   0.9363     H
H       0.4263   0.9363   0.3773     H
H       0.4363   0.0737   0.8773     H
H       0.4363   0.1227   0.0737     H
H       0.4363   0.8773   0.9263     H
H       0.4363   0.9263   0.1227     H
C       0.4366   0.1135   0.4521     C
C       0.4366   0.4521   0.8865     C
C       0.4366   0.5479   0.1135     C
C       0.4366   0.8865   0.5479     C
O       0.4435   0.0884   0.5404     O
O       0.4435   0.4596   0.0884     O
O       0.4435   0.5404   0.9116     O
O       0.4435   0.9116   0.4596     O
C       0.4521   0.1135   0.5634     C
C       0.4521   0.4366   0.1135     C
C       0.4521   0.5634   0.8865     C
C       0.4521   0.8865   0.4366     C
O       0.4537   0.1503   0.4673     O
O       0.4537   0.4673   0.8497     O
O       0.4537   0.5327   0.1503     O
O       0.4537   0.8497   0.5327     O
O       0.4596   0.0884   0.4435     O
O       0.4596   0.4435   0.9116     O
O       0.4596   0.5565   0.0884     O
O       0.4596   0.9116   0.5565     O
O       0.4673   0.1503   0.5463     O
O       0.4673   0.4537   0.1503     O
O       0.4673   0.5463   0.8497     O
O       0.4673   0.8497   0.4537     O
Tb         0.5  0.10602      0.5    Tb
Tb         0.5      0.5  0.10602    Tb
Tb         0.5      0.5  0.89398    Tb
Tb         0.5  0.89398      0.5    Tb
O       0.5327   0.1503   0.4537     O
O       0.5327   0.4537   0.8497     O
O       0.5327   0.5463   0.1503     O
O       0.5327   0.8497   0.5463     O
O       0.5404   0.0884   0.5565     O
O       0.5404   0.4435   0.0884     O
O       0.5404   0.5565   0.9116     O
O       0.5404   0.9116   0.4435     O
O       0.5463   0.1503   0.5327     O
O       0.5463   0.4673   0.1503     O
O       0.5463   0.5327   0.8497     O
O       0.5463   0.8497   0.4673     O
C       0.5479   0.1135   0.4366     C
C       0.5479   0.4366   0.8865     C
C       0.5479   0.5634   0.1135     C
C       0.5479   0.8865   0.5634     C
O       0.5565   0.0884   0.4596     O
O       0.5565   0.4596   0.9116     O
O       0.5565   0.5404   0.0884     O
O       0.5565   0.9116   0.5404     O
C       0.5634   0.1135   0.5479     C
C       0.5634   0.4521   0.1135     C
C       0.5634   0.5479   0.8865     C
C       0.5634   0.8865   0.4521     C
H       0.5637   0.0737   0.1227     H
H       0.5637   0.1227   0.9263     H
H       0.5637   0.8773   0.0737     H
H       0.5637   0.9263   0.8773     H
H       0.5737   0.0637   0.3773     H
H       0.5737   0.3773   0.9363     H
H       0.5737   0.6227   0.0637     H
H       0.5737   0.9363   0.6227     H
H       0.5753   0.1101   0.1817     H
H       0.5753   0.1817   0.8899     H
H       0.5753   0.8183   0.1101     H
H       0.5753   0.8899   0.8183     H
C       0.5758   0.1212   0.3982     C
C       0.5758   0.3982   0.8788     C
C       0.5758   0.6018   0.1212     C
C       0.5758   0.8788   0.6018     C
C       0.5833   0.0895   0.3715     C
C       0.5833   0.3715   0.9105     C
C       0.5833   0.6285   0.0895     C
C       0.5833   0.9105   0.6285     C
H        0.585   0.1811   0.4074     H
H        0.585   0.4074   0.8189     H
H        0.585   0.5926   0.1811     H
H        0.585   0.8189   0.5926     H
O       0.5884   0.0404   0.9435     O
O       0.5884   0.0565   0.0404     O
O       0.5884   0.9435   0.9596     O
O       0.5884   0.9596   0.0565     O
C       0.5895   0.0833   0.1285     C
C       0.5895   0.1285   0.9167     C
C       0.5895   0.8715   0.0833     C
C       0.5895   0.9167   0.8715     C
C         0.59   0.1599   0.3895     C
C         0.59   0.3895   0.8401     C
C         0.59   0.6105   0.1599     C
C         0.59   0.8401   0.6105     C
H       0.5926   0.1811    0.585     H
H       0.5926    0.415   0.1811     H
H       0.5926    0.585   0.8189     H
H       0.5926   0.8189    0.415     H
C       0.5965    0.105   0.1639     C
C       0.5965   0.1639    0.895     C
C       0.5965   0.8361    0.105     C
C       0.5965    0.895   0.8361     C
C       0.6018   0.1212   0.5758     C
C       0.6018   0.4242   0.1212     C
C       0.6018   0.5758   0.8788     C
C       0.6018   0.8788   0.4242     C
C        0.605   0.0965   0.3361     C
C        0.605   0.3361   0.9035     C
C        0.605   0.6639   0.0965     C
C        0.605   0.9035   0.6639     C
Tb     0.60602      0.0      0.0    Tb
H       0.6101   0.0753   0.3183     H
H       0.6101   0.3183   0.9247     H
H       0.6101   0.6817   0.0753     H
H       0.6101   0.9247   0.6817     H
C       0.6105   0.1599     0.59     C
C       0.6105     0.41   0.1599     C
C       0.6105     0.59   0.8401     C
C       0.6105   0.8401     0.41     C
H       0.6113   0.1113     0.25     H
H       0.6113     0.25   0.8887     H
H       0.6113     0.75   0.1113     H
H       0.6113   0.8887     0.75     H
C       0.6118   0.1669   0.3541     C
C       0.6118   0.3541   0.8331     C
C       0.6118   0.6459   0.1669     C
C       0.6118   0.8331   0.6459     C
C       0.6135   0.0479   0.0634     C
C       0.6135   0.0634   0.9521     C
C       0.6135   0.9366   0.0479     C
C       0.6135   0.9521   0.9366     C
C       0.6193   0.1351   0.3274     C
C       0.6193   0.3274   0.8649     C
C       0.6193   0.6726   0.1351     C
C       0.6193   0.8649   0.6726     C
C       0.6212   0.0758   0.1018     C
C       0.6212   0.1018   0.9242     C
C       0.6212   0.8982   0.0758     C
C       0.6212   0.9242   0.8982     C
H       0.6213   0.1927   0.3483     H
H       0.6213   0.3483   0.8073     H
H       0.6213   0.6517   0.1927     H
H       0.6213   0.8073   0.6517     H
H       0.6227   0.0637   0.5737     H
H       0.6227   0.4263   0.0637     H
H       0.6227   0.5737   0.9363     H
H       0.6227   0.9363   0.4263     H
C       0.6285   0.0895   0.5833     C
C       0.6285   0.4167   0.0895     C
C       0.6285   0.5833   0.9105     C
C       0.6285   0.9105   0.4167     C
C       0.6312   0.1312     0.25     C
C       0.6312     0.25   0.8688     C
C       0.6312     0.75   0.1312     C
C       0.6312   0.8688     0.75     C
C       0.6351   0.1193   0.1726     C
C       0.6351   0.1726   0.8807     C
C       0.6351   0.8274   0.1193     C
C       0.6351   0.8807   0.8274     C
C       0.6407   0.1464   0.2861     C
C       0.6407   0.2861   0.8536     C
C       0.6407   0.7139   0.1464     C
C       0.6407   0.8536   0.7139     C
C       0.6459   0.1669   0.6118     C
C       0.6459   0.3882   0.1669     C
C       0.6459   0.6118   0.8331     C
C       0.6459   0.8331   0.3882     C
C       0.6464   0.1407   0.2139     C
C       0.6464   0.2139   0.8593     C
C       0.6464   0.7861   0.1407     C
C       0.6464   0.8593   0.7861     C
O       0.6503   0.0327   0.0463     O
O       0.6503   0.0463   0.9673     O
O       0.6503   0.9537   0.0327     O
O       0.6503   0.9673   0.9537     O
H       0.6517   0.1927   0.6213     H
H       0.6517   0.3787   0.1927     H
H       0.6517   0.6213   0.8073     H
H       0.6517   0.8073   0.3787     H
C       0.6599     0.09   0.1105     C
C       0.6599   0.1105     0.91     C
C       0.6599   0.8895     0.09     C
C       0.6599     0.91   0.8895     C
C       0.6639   0.0965    0.605     C
C       0.6639    0.395   0.0965     C
C       0.6639    0.605   0.9035     C
C       0.6639   0.9035    0.395     C
C       0.6669   0.1118   0.1459     C
C       0.6669   0.1459   0.8882     C
C       0.6669   0.8541   0.1118     C
C       0.6669   0.8882   0.8541     C
C       0.6717   0.1743   0.2848     C
C       0.6717   0.2848   0.8257     C
C       0.6717   0.7152   0.1743     C
C       0.6717   0.8257   0.7152     C
C       0.6726   0.1351   0.6193     C
C       0.6726   0.3807   0.1351     C
C       0.6726   0.6193   0.8649     C
C       0.6726   0.8649   0.3807     C
C       0.6743   0.1717   0.2152     C
C       0.6743   0.2152   0.8283     C
C       0.6743   0.7848   0.1717     C
C       0.6743   0.8283   0.7848     C
H       0.6811    0.085   0.0926     H
H       0.6811   0.0926    0.915     H
H       0.6811   0.9074    0.085     H
H       0.6811    0.915   0.9074     H
H       0.6817   0.0753   0.6101     H
H       0.6817   0.3899   0.0753     H
H       0.6817   0.6101   0.9247     H
H       0.6817   0.9247   0.3899     H
H       0.6819   0.1843   0.3091     H
H       0.6819   0.3091   0.8157     H
H       0.6819   0.6909   0.1843     H
H       0.6819   0.8157   0.6909     H
H       0.6843   0.1819   0.1909     H
H       0.6843   0.1909   0.8181     H
H       0.6843   0.8091   0.1819     H
H       0.6843   0.8181   0.8091     H
C       0.6876   0.1876     0.25     C
C       0.6876     0.25   0.8124     C
C       0.6876     0.75   0.1876     C
C       0.6876   0.8124     0.75     C
H       0.6909   0.1843   0.6819     H
H       0.6909   0.3181   0.1843     H
H       0.6909   0.6819   0.8157     H
H       0.6909   0.8157   0.3181     H
H       0.6927   0.1213   0.1517     H
H       0.6927   0.1517   0.8787     H
H       0.6927   0.8483   0.1213     H
H       0.6927   0.8787   0.8483     H
H       0.6999   0.1999     0.75     H
H       0.6999     0.25   0.1999     H
H       0.6999     0.75   0.8001     H
H       0.6999   0.8001     0.25     H
C       0.7139   0.1464   0.6407     C
C       0.7139   0.3593   0.1464     C
C       0.7139   0.6407   0.8536     C
C       0.7139   0.8536   0.3593     C
C       0.7152   0.1743   0.6717     C
C       0.7152   0.3283   0.1743     C
C       0.7152   0.6717   0.8257     C
C       0.7152   0.8257   0.3283     C
C       0.7195   0.2195     0.25     C
C       0.7195     0.25   0.7805     C
C       0.7195     0.75   0.2195     C
C       0.7195   0.7805     0.75     C
C       0.7198   0.2198     0.75     C
C       0.7198     0.25   0.2198     C
C       0.7198     0.75   0.7802     C
C       0.7198   0.7802     0.25     C
H         0.75   0.1113   0.6113     H
C         0.75   0.1312   0.6312     C
C         0.75   0.1876   0.6876     C
H         0.75   0.1999   0.3001     H
C         0.75   0.2195   0.7195     C
C         0.75   0.2198   0.2802     C
C         0.75   0.2802   0.7802     C
C         0.75   0.2805   0.2195     C
H         0.75   0.3001   0.8001     H
C         0.75   0.3124   0.1876     C
C         0.75   0.3688   0.1312     C
H         0.75   0.3887   0.1113     H
H         0.75   0.6113   0.8887     H
C         0.75   0.6312   0.8688     C
C         0.75   0.6876   0.8124     C
H         0.75   0.6999   0.1999     H
C         0.75   0.7195   0.7805     C
C         0.75   0.7198   0.2198     C
C         0.75   0.7802   0.7198     C
C         0.75   0.7805   0.2805     C
H         0.75   0.8001   0.6999     H
C         0.75   0.8124   0.3124     C
C         0.75   0.8688   0.3688     C
H         0.75   0.8887   0.3887     H
C       0.7802     0.25   0.7198     C
C       0.7802   0.2802     0.25     C
C       0.7802   0.7198     0.75     C
C       0.7802     0.75   0.2802     C
C       0.7805     0.25   0.2805     C
C       0.7805   0.2805     0.75     C
C       0.7805   0.7195     0.25     C
C       0.7805     0.75   0.7195     C
C       0.7848   0.1717   0.6743     C
C       0.7848   0.3257   0.1717     C
C       0.7848   0.6743   0.8283     C
C       0.7848   0.8283   0.3257     C
C       0.7861   0.1407   0.6464     C
C       0.7861   0.3536   0.1407     C
C       0.7861   0.6464   0.8593     C
C       0.7861   0.8593   0.3536     C
H       0.8001     0.25   0.6999     H
H       0.8001   0.3001     0.25     H
H       0.8001   0.6999     0.75     H
H       0.8001     0.75   0.3001     H
H       0.8073   0.3483   0.3787     H
H       0.8073   0.3787   0.6517     H
H       0.8073   0.6213   0.3483     H
H       0.8073   0.6517   0.6213     H
H       0.8091   0.1819   0.6843     H
H       0.8091   0.3157   0.1819     H
H       0.8091   0.6843   0.8181     H
H       0.8091   0.8181   0.3157     H
C       0.8124     0.25   0.3124     C
C       0.8124   0.3124     0.75     C
C       0.8124   0.6876     0.25     C
C       0.8124     0.75   0.6876     C
H       0.8157   0.3091   0.3181     H
H       0.8157   0.3181   0.6909     H
H       0.8157   0.6819   0.3091     H
H       0.8157   0.6909   0.6819     H
H       0.8181   0.1909   0.3157     H
H       0.8181   0.3157   0.8091     H
H       0.8181   0.6843   0.1909     H
H       0.8181   0.8091   0.6843     H
H       0.8183   0.1101   0.5753     H
H       0.8183   0.4247   0.1101     H
H       0.8183   0.5753   0.8899     H
H       0.8183   0.8899   0.4247     H
H       0.8189   0.4074    0.415     H
H       0.8189    0.415   0.5926     H
H       0.8189    0.585   0.4074     H
H       0.8189   0.5926    0.585     H
C       0.8257   0.2848   0.3283     C
C       0.8257   0.3283   0.7152     C
C       0.8257   0.6717   0.2848     C
C       0.8257   0.7152   0.6717     C
C       0.8274   0.1193   0.6351     C
C       0.8274   0.3649   0.1193     C
C       0.8274   0.6351   0.8807     C
C       0.8274   0.8807   0.3649     C
C       0.8283   0.2152   0.3257     C
C       0.8283   0.3257   0.7848     C
C       0.8283   0.6743   0.2152     C
C       0.8283   0.7848   0.6743     C
C       0.8331   0.3541   0.3882     C
C       0.8331   0.3882   0.6459     C
C       0.8331   0.6118   0.3541     C
C       0.8331   0.6459   0.6118     C
C       0.8361    0.105   0.5965     C
C       0.8361   0.4035    0.105     C
C       0.8361   0.5965    0.895     C
C       0.8361    0.895   0.4035     C
C       0.8401   0.3895     0.41     C
C       0.8401     0.41   0.6105     C
C       0.8401     0.59   0.3895     C
C       0.8401   0.6105     0.59     C
H       0.8483   0.1213   0.6927     H
H       0.8483   0.3073   0.1213     H
H       0.8483   0.6927   0.8787     H
H       0.8483   0.8787   0.3073     H
O       0.8497   0.4537   0.4673     O
O       0.8497   0.4673   0.5463     O
O       0.8497   0.5327   0.4537     O
O       0.8497   0.5463   0.5327     O
C       0.8536   0.2861   0.3593     C
C       0.8536   0.3593   0.7139     C
C       0.8536   0.6407   0.2861     C
C       0.8536   0.7139   0.6407     C
C       0.8541   0.1118   0.6669     C
C       0.8541   0.3331   0.1118     C
C       0.8541   0.6669   0.8882     C
C       0.8541   0.8882   0.3331     C
C       0.8593   0.2139   0.3536     C
C       0.8593   0.3536   0.7861     C
C       0.8593   0.6464   0.2139     C
C       0.8593   0.7861   0.6464     C
C       0.8649   0.3274   0.3807     C
C       0.8649   0.3807   0.6726     C
C       0.8649   0.6193   0.3274     C
C       0.8649   0.6726   0.6193     C
C       0.8688     0.25   0.3688     C
C       0.8688   0.3688     0.75     C
C       0.8688   0.6312     0.25     C
C       0.8688     0.75   0.6312     C
C       0.8715   0.0833   0.5895     C
C       0.8715   0.4105   0.0833     C
C       0.8715   0.5895   0.9167     C
C       0.8715   0.9167   0.4105     C
H       0.8773   0.0737   0.5637     H
H       0.8773   0.4363   0.0737     H
H       0.8773   0.5637   0.9263     H
H       0.8773   0.9263   0.4363     H
H       0.8787   0.1517   0.3073     H
H       0.8787   0.3073   0.8483     H
H       0.8787   0.6927   0.1517     H
H       0.8787   0.8483   0.6927     H
C       0.8788   0.3982   0.4242     C
C       0.8788   0.4242   0.6018     C
C       0.8788   0.5758   0.3982     C
C       0.8788   0.6018   0.5758     C
C       0.8807   0.1726   0.3649     C
C       0.8807   0.3649   0.8274     C
C       0.8807   0.6351   0.1726     C
C       0.8807   0.8274   0.6351     C
C       0.8865   0.4366   0.4521     C
C       0.8865   0.4521   0.5634     C
C       0.8865   0.5479   0.4366     C
C       0.8865   0.5634   0.5479     C
C       0.8882   0.1459   0.3331     C
C       0.8882   0.3331   0.8541     C
C       0.8882   0.6669   0.1459     C
C       0.8882   0.8541   0.6669     C
H       0.8887     0.25   0.3887     H
H       0.8887   0.3887     0.75     H
H       0.8887   0.6113     0.25     H
H       0.8887     0.75   0.6113     H
C       0.8895     0.09   0.6599     C
C       0.8895   0.3401     0.09     C
C       0.8895   0.6599     0.91     C
C       0.8895     0.91   0.3401     C
H       0.8899   0.1817   0.4247     H
H       0.8899   0.4247   0.8183     H
H       0.8899   0.5753   0.1817     H
H       0.8899   0.8183   0.5753     H
Tb     0.89398      0.5      0.5    Tb
C        0.895   0.1639   0.4035     C
C        0.895   0.4035   0.8361     C
C        0.895   0.5965   0.1639     C
C        0.895   0.8361   0.5965     C
C       0.8982   0.0758   0.6212     C
C       0.8982   0.3788   0.0758     C
C       0.8982   0.6212   0.9242     C
C       0.8982   0.9242   0.3788     C
C       0.9035   0.3361    0.395     C
C       0.9035    0.395   0.6639     C
C       0.9035    0.605   0.3361     C
C       0.9035   0.6639    0.605     C
H       0.9074    0.085   0.6811     H
H       0.9074   0.3189    0.085     H
H       0.9074   0.6811    0.915     H
H       0.9074    0.915   0.3189     H
C         0.91   0.1105   0.3401     C
C         0.91   0.3401   0.8895     C
C         0.91   0.6599   0.1105     C
C         0.91   0.8895   0.6599     C
C       0.9105   0.3715   0.4167     C
C       0.9105   0.4167   0.6285     C
C       0.9105   0.5833   0.3715     C
C       0.9105   0.6285   0.5833     C
O       0.9116   0.4435   0.5404     O
O       0.9116   0.4596   0.4435     O
O       0.9116   0.5404   0.5565     O
O       0.9116   0.5565   0.4596     O
H        0.915   0.0926   0.3189     H
H        0.915   0.3189   0.9074     H
H        0.915   0.6811   0.0926     H
H        0.915   0.9074   0.6811     H
C       0.9167   0.1285   0.4105     C
C       0.9167   0.4105   0.8715     C
C       0.9167   0.5895   0.1285     C
C       0.9167   0.8715   0.5895     C
C       0.9242   0.1018   0.3788     C
C       0.9242   0.3788   0.8982     C
C       0.9242   0.6212   0.1018     C
C       0.9242   0.8982   0.6212     C
H       0.9247   0.3183   0.3899     H
H       0.9247   0.3899   0.6817     H
H       0.9247   0.6101   0.3183     H
H       0.9247   0.6817   0.6101     H
H       0.9263   0.1227   0.4363     H
H       0.9263   0.4363   0.8773     H
H       0.9263   0.5637   0.1227     H
H       0.9263   0.8773   0.5637     H
H       0.9363   0.3773   0.4263     H
H       0.9363   0.4263   0.6227     H
H       0.9363   0.5737   0.3773     H
H       0.9363   0.6227   0.5737     H
C       0.9366   0.0479   0.6135     C
C       0.9366   0.3865   0.0479     C
C       0.9366   0.6135   0.9521     C
C       0.9366   0.9521   0.3865     C
O       0.9435   0.0404   0.4116     O
O       0.9435   0.4116   0.9596     O
O       0.9435   0.5884   0.0404     O
O       0.9435   0.9596   0.5884     O
C       0.9521   0.0634   0.3865     C
C       0.9521   0.3865   0.9366     C
C       0.9521   0.6135   0.0634     C
C       0.9521   0.9366   0.6135     C
O       0.9537   0.0327   0.6503     O
O       0.9537   0.3497   0.0327     O
O       0.9537   0.6503   0.9673     O
O       0.9537   0.9673   0.3497     O
O       0.9596   0.0565   0.5884     O
O       0.9596   0.4116   0.0565     O
O       0.9596   0.5884   0.9435     O
O       0.9596   0.9435   0.4116     O
O       0.9673   0.0463   0.3497     O
O       0.9673   0.3497   0.9537     O
O       0.9673   0.6503   0.0463     O
O       0.9673   0.9537   0.6503     O
