data_I
_chemical_name_common  '/home/zhangsd/repos/MofS-CGCNN/ML/data/TSD/clean_cifs/ZIJVOF_clean'
_cell_length_a 10.99310
_cell_length_b 10.99310
_cell_length_c 18.08500
_cell_angle_alpha 90.00000
_cell_angle_beta  90.00000
_cell_angle_gamma 90.00000
_space_group_name_H-M_alt      'P 1'


loop_
_space_group_symop_operation_xyz
  'x, y, z' 

loop_
_atom_site_label
_atom_site_fract_x
_atom_site_fract_y
_atom_site_fract_z
_atom_site_type_symbol
H       0.0073   0.8645   0.5592     H
C       0.0099   0.1677    0.011     C
C       0.0151   0.1541   0.5042     C
H       0.0299   0.8341   0.9593     H
H       0.0406   0.8583   0.0445     H
N       0.0464    0.375   0.0569     N
N       0.0479   0.3545   0.5586     N
H       0.0538   0.1084   0.9826     H
H       0.0651   0.8132   0.4864     H
H       0.0666    0.084   0.4993     H
H        0.084   0.9334   0.7493     H
C       0.0872   0.2841   0.0186     C
C       0.0937   0.2673   0.5198     C
Cu     0.10067  0.59223  0.61556    Cu
Cu     0.10803  0.61646  0.10612    Cu
H       0.1084   0.9462   0.2326     H
O       0.1148   0.7531   0.6681     O
O       0.1282   0.7736   0.1632     O
N       0.1354   0.4648   0.0515     N
H       0.1355   0.0073   0.3092     H
N       0.1408   0.4372   0.5658     N
H       0.1417   0.0406   0.7945     H
C       0.1541   0.9849   0.7542     C
H       0.1659   0.0299   0.7093     H
C       0.1677   0.9901    0.261     C
H       0.1868   0.0651   0.2364     H
C       0.1951   0.3068   0.9839     C
C       0.2085   0.2868   0.4955     C
C       0.2159   0.7154   0.6962     C
O       0.2264   0.1282   0.9132     O
C       0.2269    0.428   0.0079     C
C       0.2334   0.7344   0.1826     C
C        0.242   0.4045   0.5252     C
O       0.2469   0.1148   0.4181     O
O       0.2502   0.6106   0.6781     O
C       0.2656   0.2334   0.9326     C
O       0.2673   0.6363   0.1571     O
C       0.2673   0.9063   0.7698     C
C       0.2841   0.9128   0.2686     C
C       0.2846   0.2159   0.4462     C
C       0.2868   0.7915   0.7455     C
C       0.3068   0.8049   0.2339     C
H       0.3167   0.5867    0.012     H
C       0.3286    0.509   0.9889     C
H       0.3321   0.5193   0.9362     H
H       0.3457   0.5344   0.5637     H
C       0.3496   0.4748    0.525     C
N       0.3545   0.9521   0.8086     N
H       0.3578   0.5151   0.4781     H
O       0.3637   0.2673   0.9071     O
N        0.375   0.9536   0.3069     N
Cu     0.38354  0.10803  0.85612    Cu
O       0.3894   0.2502   0.4281     O
H       0.4035   0.4739    0.006     H
C       0.4045    0.758   0.7752     C
Cu     0.40777  0.10067  0.36556    Cu
H       0.4133   0.3167    0.762     H
H       0.4185   0.4227   0.5329     H
H       0.4227   0.5815   0.7829     H
C        0.428   0.7731   0.2579     C
N       0.4372   0.8592   0.8158     N
N       0.4648   0.8646   0.3015     N
H       0.4656   0.3457   0.3137     H
H       0.4739   0.5965    0.256     H
C       0.4748   0.6504    0.775     C
H       0.4807   0.3321   0.6862     H
H       0.4849   0.3578   0.2281     H
C        0.491   0.3286   0.7389     C
C        0.509   0.6714   0.2389     C
H       0.5151   0.6422   0.7281     H
H       0.5193   0.6679   0.1862     H
C       0.5252   0.3496    0.275     C
H       0.5261   0.4035    0.756     H
H       0.5344   0.6543   0.8137     H
N       0.5352   0.1354   0.8015     N
N       0.5628   0.1408   0.3158     N
C        0.572   0.2269   0.7579     C
H       0.5773   0.4185   0.2829     H
H       0.5815   0.5773   0.0329     H
H       0.5867   0.6833    0.262     H
Cu     0.59223  0.89933  0.86556    Cu
C       0.5955    0.242   0.2752     C
H       0.5965   0.5261    0.506     H
O       0.6106   0.7498   0.9281     O
Cu     0.61646  0.89197  0.35612    Cu
N        0.625   0.0464   0.8069     N
O       0.6363   0.7327   0.4071     O
H       0.6422   0.4849   0.9781     H
N       0.6455   0.0479   0.3086     N
C       0.6504   0.5252    0.025     C
H       0.6543   0.4656   0.0637     H
H       0.6679   0.4807   0.4362     H
C       0.6714    0.491   0.4889     C
H       0.6833   0.4133    0.512     H
C       0.6932   0.1951   0.7339     C
C       0.7132   0.2085   0.2455     C
C       0.7154   0.7841   0.9462     C
C       0.7159   0.0872   0.7686     C
C       0.7327   0.0937   0.2698     C
O       0.7327   0.3637   0.6571     O
C       0.7344   0.7666   0.4326     C
O       0.7498   0.3894   0.1781     O
O       0.7531   0.8852   0.9181     O
C        0.758   0.5955   0.0252     C
C       0.7666   0.2656   0.6826     C
C       0.7731    0.572   0.5079     C
O       0.7736   0.8718   0.4132     O
C       0.7841   0.2846   0.1962     C
C       0.7915   0.7132   0.9955     C
C       0.8049   0.6932   0.4839     C
H       0.8132   0.9349   0.7364     H
C       0.8323   0.0099    0.761     C
H       0.8341   0.9701   0.2093     H
C       0.8459   0.0151   0.2542     C
H       0.8583   0.9594   0.2945     H
N       0.8592   0.5628   0.0658     N
H       0.8645   0.9927   0.8092     H
N       0.8646   0.5352   0.5515     N
O       0.8718   0.2264   0.6632     O
O       0.8852   0.2469   0.1681     O
H       0.8916   0.0538   0.7326     H
Cu     0.89197  0.38354  0.60612    Cu
Cu     0.89933  0.40777  0.11556    Cu
C       0.9063   0.7327   0.0198     C
C       0.9128   0.7159   0.5186     C
H        0.916   0.0666   0.2493     H
H       0.9334    0.916   0.9993     H
H       0.9349   0.1868   0.9864     H
H       0.9462   0.8916   0.4826     H
N       0.9521   0.6455   0.0586     N
N       0.9536    0.625   0.5569     N
H       0.9594   0.1417   0.5445     H
H       0.9701   0.1659   0.4593     H
C       0.9849   0.8459   0.0042     C
C       0.9901   0.8323    0.511     C
H       0.9927   0.1355   0.0592     H
