data_I
_chemical_name_common  '/home/zhangsd/repos/MofS-CGCNN/ML/data/TSD/clean_cifs/ZIKJOU_clean'
_cell_length_a 10.63250
_cell_length_b 10.72580
_cell_length_c 18.35320
_cell_angle_alpha 76.67100
_cell_angle_beta  86.71700
_cell_angle_gamma 74.27800
_space_group_name_H-M_alt      'P 1'


loop_
_space_group_symop_operation_xyz
  'x, y, z' 

loop_
_atom_site_label
_atom_site_fract_x
_atom_site_fract_y
_atom_site_fract_z
_atom_site_type_symbol
O       0.0029   0.9848    0.381     O
O       0.0426   0.1834   0.4401     O
O       0.0428   0.0255   0.1131     O
H       0.0503   0.9785   0.2524     H
O       0.0591   0.1934   0.9758     O
Cu     0.07069  0.89708  0.97548    Cu
Cu     0.09021  0.91545  0.54611    Cu
C       0.1058   0.8947   0.3959     C
C       0.1257   0.9184   0.1209     C
C        0.126   0.9053   0.2596     C
H       0.1383   0.3391   0.3494     H
C       0.1512    0.137   0.9373     C
C       0.1555    0.146     0.47     C
O       0.1583   0.8437   0.4588     O
O       0.1629   0.8492   0.0722     O
C       0.1741   0.8461   0.3286     C
O       0.1755   0.0212   0.9304     O
C       0.1885   0.8582   0.1985     C
H       0.1964   0.3585   0.9569     H
O       0.1989   0.0412   0.5183     O
C       0.2143   0.3297   0.3771     C
C       0.2336   0.2222   0.8938     C
C        0.243   0.3336   0.9145     C
C       0.2452    0.233   0.4429     C
H       0.2746   0.4785   0.3069     H
C       0.2828   0.7374   0.3412     C
C       0.2956   0.4128   0.3522     C
C       0.2959    0.751   0.2093     C
H       0.2987    0.106   0.8197     H
C       0.3035   0.1844   0.8339     C
H        0.312   0.6959   0.3911     H
C       0.3204   0.4112   0.8739     C
H       0.3245   0.4895   0.8885     H
H       0.3351   0.7181   0.1673     H
C       0.3504   0.6876   0.2816     C
C       0.3595   0.2172   0.4812     C
C       0.3821   0.2621   0.7938     C
H       0.3835   0.1484    0.525     H
C       0.3895   0.3767   0.8142     C
C       0.4045   0.4022   0.3912     C
H       0.4115    0.555   0.7512     H
H       0.4166   0.5576   0.6347     H
H       0.4307   0.2362   0.7522     H
C       0.4386   0.3019   0.4554     C
N       0.4614   0.5831    0.293     N
H       0.4653   0.5265   0.1959     H
C         0.47   0.4652   0.7701     C
H       0.4836   0.7088   0.5181     H
H       0.4857   0.5514   0.4027     H
C       0.4917   0.4963   0.3655     C
C       0.5083   0.5037   0.6345     C
H       0.5143   0.4486   0.5973     H
H       0.5164   0.2912   0.4819     H
C         0.53   0.5348   0.2299     C
H       0.5347   0.4735   0.8041     H
N       0.5386   0.4169    0.707     N
C       0.5614   0.6981   0.5446     C
H       0.5693   0.7638   0.2478     H
H       0.5834   0.4424   0.3653     H
H       0.5885    0.445   0.2488     H
C       0.5955   0.5978   0.6088     C
C       0.6105   0.6233   0.1858     C
H       0.6165   0.8516    0.475     H
C       0.6179   0.7379   0.2062     C
C       0.6405   0.7828   0.5188     C
C       0.6496   0.3124   0.7184     C
H       0.6649   0.2819   0.8327     H
H       0.6755   0.5105   0.1115     H
C       0.6796   0.5888   0.1261     C
H        0.688   0.3041   0.6089     H
C       0.6965   0.8156   0.1661     C
H       0.7013    0.894   0.1803     H
C       0.7041    0.249   0.7907     C
C       0.7044   0.5872   0.6478     C
C       0.7172   0.2626   0.6588     C
H       0.7254   0.5215   0.6931     H
C       0.7548    0.767   0.5571     C
C        0.757   0.6664   0.0855     C
C       0.7664   0.7778   0.1062     C
C       0.7857   0.6703   0.6229     C
O       0.8011   0.9588   0.4817     O
H       0.8036   0.6415   0.0431     H
C       0.8115   0.1418   0.8015     C
O       0.8245   0.9788   0.0696     O
C       0.8259   0.1539   0.6714     C
O       0.8371   0.1508   0.9278     O
O       0.8417   0.1563   0.5412     O
C       0.8445    0.854     0.53     C
C       0.8488    0.863   0.0627     C
H       0.8617   0.6609   0.6506     H
C        0.874   0.0947   0.7404     C
C       0.8743   0.0816   0.8791     C
C       0.8942   0.1053   0.6041     C
Cu     0.90979  0.08455  0.45389    Cu
Cu     0.92931  0.10292  0.02452    Cu
O       0.9409   0.8066   0.0242     O
H       0.9497   0.0215   0.7476     H
O       0.9572   0.9745   0.8869     O
O       0.9574   0.8166   0.5599     O
O       0.9971   0.0152    0.619     O
