data_I
_chemical_name_common  '/home/zhangsd/repos/MofS-CGCNN/ML/data/TSD/clean_cifs/ZIQJEQ_clean'
_cell_length_a 35.25630
_cell_length_b 15.46250
_cell_length_c 25.05100
_cell_angle_alpha 90.00000
_cell_angle_beta  122.79400
_cell_angle_gamma 90.00000
_space_group_name_H-M_alt      'P 1'


loop_
_space_group_symop_operation_xyz
  'x, y, z' 

loop_
_atom_site_label
_atom_site_fract_x
_atom_site_fract_y
_atom_site_fract_z
_atom_site_type_symbol
C       0.0234    0.413    0.765     C
C       0.0234    0.587    0.265     C
C       0.0235    0.265    0.766     C
C       0.0235    0.735    0.266     C
H       0.0382   0.4659   0.7719     H
H       0.0382   0.5341   0.2719     H
H       0.0386   0.2121   0.7776     H
H       0.0386   0.7879   0.2776     H
H        0.048   0.3335   0.0701     H
H        0.048   0.6665   0.5701     H
C       0.0481    0.339    0.782     C
C       0.0481    0.661    0.282     C
H       0.0585   0.2988   0.0206     H
H       0.0585   0.7012   0.5206     H
C       0.0716   0.3108   0.0652     C
C       0.0716   0.6892   0.5652     C
H       0.0866   0.1542    0.035     H
H       0.0866   0.8458    0.535     H
C       0.0897   0.2294   0.1023     C
C       0.0897   0.7706   0.6023     C
C        0.094   0.1541   0.0767     C
C        0.094   0.8459   0.5767     C
C       0.0961    0.358    0.812     C
C       0.0961    0.642    0.312     C
N       0.0982   0.3065   0.7166     N
N       0.0982   0.6935   0.2166     N
H       0.0991   0.2734   0.1834     H
H       0.0991   0.7266   0.6834     H
C       0.1004    0.223   0.1639     C
C       0.1004    0.777   0.6639     C
H       0.1021   0.4157   0.8306     H
H       0.1021   0.5843   0.3306     H
N       0.1065    0.374   0.0862     N
N       0.1065    0.626   0.5862     N
H       0.1074   0.4325   0.1594     H
H       0.1074   0.5675   0.6594     H
C       0.1092    0.078   0.1118     C
C       0.1092    0.922   0.6118     C
N       0.1112   0.3551   0.7692     N
N       0.1112   0.6449   0.2692     N
H       0.1113    0.055   0.6838     H
H       0.1113    0.945   0.1838     H
C       0.1127   0.1491   0.1975     C
C       0.1127   0.8509   0.6975     C
H       0.1135   0.3174   0.8461     H
H       0.1135   0.6826   0.3461     H
H       0.1143   0.0294   0.0946     H
H       0.1143   0.9706   0.5946     H
H       0.1158   0.3181    0.651     H
H       0.1158   0.6819    0.151     H
C       0.1169   0.0735    0.172     C
C       0.1169   0.9265    0.672     C
H       0.1184    0.149   0.2384     H
H       0.1184    0.851   0.7384     H
C       0.1188   0.3391   0.6879     C
C       0.1188   0.6609   0.1879     C
C       0.1207   0.4263   0.1362     C
C       0.1207   0.5737   0.6362     C
H       0.1313   0.0022   0.7472     H
H       0.1313   0.9978   0.2472     H
C       0.1317   0.0085    0.709     C
C       0.1317   0.9915    0.209     C
N       0.1344   0.3835   0.0659     N
N       0.1344   0.6165   0.5659     N
C       0.1399   0.4177   0.7731     C
C       0.1399   0.5823   0.2731     C
N       0.1446   0.4079   0.7229     N
N       0.1446   0.5921   0.2229     N
H       0.1538   0.4598   0.8045     H
H       0.1538   0.5402   0.3045     H
N       0.1573   0.4682   0.1467     N
N       0.1573   0.5318   0.6467     N
C       0.1658   0.4417   0.1033     C
C       0.1658   0.5583   0.6033     C
H       0.1698   0.2301   0.0321     H
H       0.1698   0.7699   0.5321     H
N       0.1764   0.0285   0.7255     N
N       0.1764   0.9715   0.2255     N
H       0.1804   0.1346   0.0231     H
H       0.1804   0.8654   0.5231     H
N       0.1891   0.1021   0.7141     N
N       0.1891   0.8979   0.2141     N
H       0.1894   0.4605   0.0997     H
H       0.1894   0.5395   0.5997     H
C        0.194    0.189   0.0432     C
C        0.194    0.811   0.5432     C
Cu     0.19667   0.4568  0.72349    Cu
Cu     0.19667   0.5432  0.22349    Cu
H       0.2008   0.3449   0.0038     H
H       0.2008   0.6551   0.5038     H
C       0.2114   0.0233   0.2525     C
C       0.2114   0.9767   0.7525     C
H       0.2118   0.0797   0.2657     H
H       0.2118   0.9203   0.7657     H
H       0.2173   0.2611   0.7544     H
H       0.2173   0.7389   0.2544     H
C       0.2203   0.3057   0.0025     C
C       0.2203   0.6943   0.5025     C
N       0.2204   0.1781   0.1107     N
N       0.2204   0.8219   0.6107     N
C       0.2207   0.2214   0.0185     C
C       0.2207   0.7786   0.5185     C
H       0.2285   0.0502   0.1244     H
H       0.2285   0.9498   0.6244     H
C       0.2318   0.0958   0.7341     C
C       0.2318   0.9042   0.2341     C
C       0.2346   0.2918   0.7921     C
C       0.2346   0.7082   0.2921     C
C       0.2359   0.1054   0.1419     C
C       0.2359   0.8946   0.6419     C
N       0.2362    0.376   0.7981     N
N       0.2362    0.624   0.2981     N
N       0.2386   0.2416   0.1514     N
N       0.2386   0.7584   0.6514     N
N       0.2456   0.0183   0.7579     N
N       0.2456   0.9817   0.2579     N
H       0.2493   0.1388   0.7318     H
H       0.2493   0.8612   0.2318     H
H       0.2494   0.3913   0.9728     H
H       0.2494   0.6087   0.4728     H
C         0.25   0.1664   0.0162     C
C         0.25   0.3336   0.9838     C
C         0.25   0.6664   0.4838     C
C         0.25   0.8336   0.5162     C
H       0.2506   0.1087   0.0272     H
H       0.2506   0.8913   0.5272     H
H       0.2507   0.3612   0.2682     H
H       0.2507   0.6388   0.7682     H
N       0.2544   0.4817   0.2421     N
N       0.2544   0.5183   0.7421     N
N       0.2614   0.2584   0.8486     N
N       0.2614   0.7416   0.3486     N
N       0.2638    0.124   0.2019     N
N       0.2638    0.876   0.7019     N
C       0.2641   0.3946   0.8581     C
C       0.2641   0.6054   0.3581     C
C       0.2654   0.2082   0.2079     C
C       0.2654   0.7918   0.7079     C
C       0.2682   0.4042   0.2659     C
C       0.2682   0.5958   0.7659     C
H       0.2715   0.4498   0.8756     H
H       0.2715   0.5502   0.3756     H
C       0.2793   0.2786   0.9815     C
C       0.2793   0.7214   0.4815     C
N       0.2796   0.3219   0.8893     N
N       0.2796   0.6781   0.3893     N
C       0.2797   0.1943   0.9975     C
C       0.2797   0.8057   0.4975     C
H       0.2827   0.2389   0.2456     H
H       0.2827   0.7611   0.7456     H
H       0.2882   0.4203   0.7343     H
H       0.2882   0.5797   0.2343     H
C       0.2886   0.4767   0.7475     C
C       0.2886   0.5233   0.2475     C
H       0.2992   0.1551   0.9962     H
H       0.2992   0.8449   0.4962     H
Cu     0.30333   0.0432  0.27651    Cu
Cu     0.30333   0.9568  0.77651    Cu
C        0.306    0.311   0.9568     C
C        0.306    0.689   0.4568     C
H       0.3106   0.0395   0.9003     H
H       0.3106   0.9605   0.4003     H
N       0.3109   0.3979   0.2859     N
N       0.3109   0.6021   0.7859     N
H       0.3196   0.3654   0.9769     H
H       0.3196   0.6346   0.4769     H
N       0.3236   0.4715   0.2745     N
N       0.3236   0.5285   0.7745     N
H       0.3302   0.2699   0.9679     H
H       0.3302   0.7301   0.4679     H
C       0.3342   0.0583   0.8967     C
C       0.3342   0.9417   0.3967     C
N       0.3427   0.0318   0.8533     N
N       0.3427   0.9682   0.3533     N
H       0.3462   0.0402   0.1955     H
H       0.3462   0.9598   0.6955     H
N       0.3554   0.0921   0.2771     N
N       0.3554   0.9079   0.7771     N
C       0.3601   0.0823   0.2269     C
C       0.3601   0.9177   0.7269     C
N       0.3656   0.1165   0.9341     N
N       0.3656   0.8835   0.4341     N
C       0.3683   0.4915    0.291     C
C       0.3683   0.5085    0.791     C
H       0.3687   0.4978   0.2528     H
H       0.3687   0.5022   0.7528     H
C       0.3793   0.0737   0.8638     C
C       0.3793   0.9263   0.3638     C
C       0.3812   0.1609   0.3121     C
C       0.3812   0.8391   0.8121     C
H       0.3816    0.351   0.7616     H
H       0.3816    0.649   0.2616     H
C       0.3831   0.4265    0.828     C
C       0.3831   0.5735    0.328     C
H       0.3842   0.1819    0.349     H
H       0.3842   0.8181    0.849     H
H       0.3857   0.4706   0.9054     H
H       0.3857   0.5294   0.4054     H
H       0.3865   0.1826   0.1539     H
H       0.3865   0.8174   0.6539     H
C       0.3873   0.3509   0.8025     C
C       0.3873   0.6491   0.3025     C
H       0.3887    0.445   0.3162     H
H       0.3887    0.555   0.8162     H
N       0.3888   0.1449   0.2308     N
N       0.3888   0.8551   0.7308     N
C       0.3908    0.422   0.8882     C
C       0.3908    0.578   0.3882     C
H       0.3926   0.0675   0.8406     H
H       0.3926   0.9325   0.3406     H
N       0.3935    0.126   0.9138     N
N       0.3935    0.874   0.4138     N
H       0.3979   0.0843   0.1694     H
H       0.3979   0.9157   0.6694     H
C       0.3996    0.277   0.8361     C
C       0.3996    0.723   0.3361     C
H       0.4009   0.2266   0.8166     H
H       0.4009   0.7734   0.3166     H
N       0.4018   0.1935   0.2834     N
N       0.4018   0.8065   0.7834     N
C       0.4039    0.142    0.188     C
C       0.4039    0.858    0.688     C
C        0.406   0.3459   0.9233     C
C        0.406   0.6541   0.4233     C
C       0.4103   0.2706   0.8977     C
C       0.4103   0.7294   0.3977     C
H       0.4134   0.3458    0.965     H
H       0.4134   0.6542    0.465     H
C       0.4284   0.1892   0.9348     C
C       0.4284   0.8108   0.4348     C
H       0.4415   0.2012   0.9794     H
H       0.4415   0.7988   0.4794     H
C       0.4519    0.161    0.218     C
C       0.4519    0.839    0.718     C
H        0.452   0.1665   0.9299     H
H        0.452   0.8335   0.4299     H
H       0.4614   0.2879   0.2224     H
H       0.4614   0.7121   0.7224     H
H       0.4618   0.0341   0.2281     H
H       0.4618   0.9659   0.7281     H
C       0.4765    0.235    0.234     C
C       0.4765    0.765    0.734     C
C       0.4766    0.087    0.235     C
C       0.4766    0.913    0.735     C
C       0.5234    0.087    0.265     C
C       0.5234    0.913    0.765     C
C       0.5235    0.235    0.266     C
C       0.5235    0.765    0.766     C
H       0.5382   0.0341   0.2719     H
H       0.5382   0.9659   0.7719     H
H       0.5386   0.2879   0.2776     H
H       0.5386   0.7121   0.7776     H
H        0.548   0.1665   0.5701     H
H        0.548   0.8335   0.0701     H
C       0.5481    0.161    0.282     C
C       0.5481    0.839    0.782     C
H       0.5585   0.2012   0.5206     H
H       0.5585   0.7988   0.0206     H
C       0.5716   0.1892   0.5652     C
C       0.5716   0.8108   0.0652     C
H       0.5866   0.3458    0.535     H
H       0.5866   0.6542    0.035     H
C       0.5897   0.2706   0.6023     C
C       0.5897   0.7294   0.1023     C
C        0.594   0.3459   0.5767     C
C        0.594   0.6541   0.0767     C
C       0.5961    0.142    0.312     C
C       0.5961    0.858    0.812     C
N       0.5982   0.1935   0.2166     N
N       0.5982   0.8065   0.7166     N
H       0.5991   0.2266   0.6834     H
H       0.5991   0.7734   0.1834     H
C       0.6004    0.277   0.6639     C
C       0.6004    0.723   0.1639     C
H       0.6021   0.0843   0.3306     H
H       0.6021   0.9157   0.8306     H
N       0.6065    0.126   0.5862     N
N       0.6065    0.874   0.0862     N
H       0.6074   0.0675   0.6594     H
H       0.6074   0.9325   0.1594     H
C       0.6092    0.422   0.6118     C
C       0.6092    0.578   0.1118     C
N       0.6112   0.1449   0.2692     N
N       0.6112   0.8551   0.7692     N
H       0.6113    0.445   0.1838     H
H       0.6113    0.555   0.6838     H
C       0.6127   0.3509   0.6975     C
C       0.6127   0.6491   0.1975     C
H       0.6135   0.1826   0.3461     H
H       0.6135   0.8174   0.8461     H
H       0.6143   0.4706   0.5946     H
H       0.6143   0.5294   0.0946     H
H       0.6158   0.1819    0.151     H
H       0.6158   0.8181    0.651     H
C       0.6169   0.4265    0.672     C
C       0.6169   0.5735    0.172     C
H       0.6184    0.351   0.7384     H
H       0.6184    0.649   0.2384     H
C       0.6188   0.1609   0.1879     C
C       0.6188   0.8391   0.6879     C
C       0.6207   0.0737   0.6362     C
C       0.6207   0.9263   0.1362     C
H       0.6313   0.4978   0.2472     H
H       0.6313   0.5022   0.7472     H
C       0.6317   0.4915    0.209     C
C       0.6317   0.5085    0.709     C
N       0.6344   0.1165   0.5659     N
N       0.6344   0.8835   0.0659     N
C       0.6399   0.0823   0.2731     C
C       0.6399   0.9177   0.7731     C
N       0.6446   0.0921   0.2229     N
N       0.6446   0.9079   0.7229     N
H       0.6538   0.0402   0.3045     H
H       0.6538   0.9598   0.8045     H
N       0.6573   0.0318   0.6467     N
N       0.6573   0.9682   0.1467     N
C       0.6658   0.0583   0.6033     C
C       0.6658   0.9417   0.1033     C
H       0.6698   0.2699   0.5321     H
H       0.6698   0.7301   0.0321     H
N       0.6764   0.4715   0.2255     N
N       0.6764   0.5285   0.7255     N
H       0.6804   0.3654   0.5231     H
H       0.6804   0.6346   0.0231     H
N       0.6891   0.3979   0.2141     N
N       0.6891   0.6021   0.7141     N
H       0.6894   0.0395   0.5997     H
H       0.6894   0.9605   0.0997     H
C        0.694    0.311   0.5432     C
C        0.694    0.689   0.0432     C
Cu     0.69667   0.0432  0.22349    Cu
Cu     0.69667   0.9568  0.72349    Cu
H       0.7008   0.1551   0.5038     H
H       0.7008   0.8449   0.0038     H
C       0.7114   0.4767   0.7525     C
C       0.7114   0.5233   0.2525     C
H       0.7118   0.4203   0.7657     H
H       0.7118   0.5797   0.2657     H
H       0.7173   0.2389   0.2544     H
H       0.7173   0.7611   0.7544     H
C       0.7203   0.1943   0.5025     C
C       0.7203   0.8057   0.0025     C
N       0.7204   0.3219   0.6107     N
N       0.7204   0.6781   0.1107     N
C       0.7207   0.2786   0.5185     C
C       0.7207   0.7214   0.0185     C
H       0.7285   0.4498   0.6244     H
H       0.7285   0.5502   0.1244     H
C       0.7318   0.4042   0.2341     C
C       0.7318   0.5958   0.7341     C
C       0.7346   0.2082   0.2921     C
C       0.7346   0.7918   0.7921     C
C       0.7359   0.3946   0.6419     C
C       0.7359   0.6054   0.1419     C
N       0.7362    0.124   0.2981     N
N       0.7362    0.876   0.7981     N
N       0.7386   0.2584   0.6514     N
N       0.7386   0.7416   0.1514     N
N       0.7456   0.4817   0.2579     N
N       0.7456   0.5183   0.7579     N
H       0.7493   0.3612   0.2318     H
H       0.7493   0.6388   0.7318     H
H       0.7494   0.1087   0.4728     H
H       0.7494   0.8913   0.9728     H
C         0.75   0.1664   0.4838     C
C         0.75   0.3336   0.5162     C
C         0.75   0.6664   0.0162     C
C         0.75   0.8336   0.9838     C
H       0.7506   0.3913   0.5272     H
H       0.7506   0.6087   0.0272     H
H       0.7507   0.1388   0.7682     H
H       0.7507   0.8612   0.2682     H
N       0.7544   0.0183   0.7421     N
N       0.7544   0.9817   0.2421     N
N       0.7614   0.2416   0.3486     N
N       0.7614   0.7584   0.8486     N
N       0.7638    0.376   0.7019     N
N       0.7638    0.624   0.2019     N
C       0.7641   0.1054   0.3581     C
C       0.7641   0.8946   0.8581     C
C       0.7654   0.2918   0.7079     C
C       0.7654   0.7082   0.2079     C
C       0.7682   0.0958   0.7659     C
C       0.7682   0.9042   0.2659     C
H       0.7715   0.0502   0.3756     H
H       0.7715   0.9498   0.8756     H
C       0.7793   0.2214   0.4815     C
C       0.7793   0.7786   0.9815     C
N       0.7796   0.1781   0.3893     N
N       0.7796   0.8219   0.8893     N
C       0.7797   0.3057   0.4975     C
C       0.7797   0.6943   0.9975     C
H       0.7827   0.2611   0.7456     H
H       0.7827   0.7389   0.2456     H
H       0.7882   0.0797   0.2343     H
H       0.7882   0.9203   0.7343     H
C       0.7886   0.0233   0.2475     C
C       0.7886   0.9767   0.7475     C
H       0.7992   0.3449   0.4962     H
H       0.7992   0.6551   0.9962     H
Cu     0.80333   0.4568  0.77651    Cu
Cu     0.80333   0.5432  0.27651    Cu
C        0.806    0.189   0.4568     C
C        0.806    0.811   0.9568     C
H       0.8106   0.4605   0.4003     H
H       0.8106   0.5395   0.9003     H
N       0.8109   0.1021   0.7859     N
N       0.8109   0.8979   0.2859     N
H       0.8196   0.1346   0.4769     H
H       0.8196   0.8654   0.9769     H
N       0.8236   0.0285   0.7745     N
N       0.8236   0.9715   0.2745     N
H       0.8302   0.2301   0.4679     H
H       0.8302   0.7699   0.9679     H
C       0.8342   0.4417   0.3967     C
C       0.8342   0.5583   0.8967     C
N       0.8427   0.4682   0.3533     N
N       0.8427   0.5318   0.8533     N
H       0.8462   0.4598   0.6955     H
H       0.8462   0.5402   0.1955     H
N       0.8554   0.4079   0.7771     N
N       0.8554   0.5921   0.2771     N
C       0.8601   0.4177   0.7269     C
C       0.8601   0.5823   0.2269     C
N       0.8656   0.3835   0.4341     N
N       0.8656   0.6165   0.9341     N
C       0.8683   0.0085    0.791     C
C       0.8683   0.9915    0.291     C
H       0.8687   0.0022   0.7528     H
H       0.8687   0.9978   0.2528     H
C       0.8793   0.4263   0.3638     C
C       0.8793   0.5737   0.8638     C
C       0.8812   0.3391   0.8121     C
C       0.8812   0.6609   0.3121     C
H       0.8816    0.149   0.2616     H
H       0.8816    0.851   0.7616     H
C       0.8831   0.0735    0.328     C
C       0.8831   0.9265    0.828     C
H       0.8842   0.3181    0.849     H
H       0.8842   0.6819    0.349     H
H       0.8857   0.0294   0.4054     H
H       0.8857   0.9706   0.9054     H
H       0.8865   0.3174   0.6539     H
H       0.8865   0.6826   0.1539     H
C       0.8873   0.1491   0.3025     C
C       0.8873   0.8509   0.8025     C
H       0.8887    0.055   0.8162     H
H       0.8887    0.945   0.3162     H
N       0.8888   0.3551   0.7308     N
N       0.8888   0.6449   0.2308     N
C       0.8908    0.078   0.3882     C
C       0.8908    0.922   0.8882     C
H       0.8926   0.4325   0.3406     H
H       0.8926   0.5675   0.8406     H
N       0.8935    0.374   0.4138     N
N       0.8935    0.626   0.9138     N
H       0.8979   0.4157   0.6694     H
H       0.8979   0.5843   0.1694     H
C       0.8996    0.223   0.3361     C
C       0.8996    0.777   0.8361     C
H       0.9009   0.2734   0.3166     H
H       0.9009   0.7266   0.8166     H
N       0.9018   0.3065   0.7834     N
N       0.9018   0.6935   0.2834     N
C       0.9039    0.358    0.688     C
C       0.9039    0.642    0.188     C
C        0.906   0.1541   0.4233     C
C        0.906   0.8459   0.9233     C
C       0.9103   0.2294   0.3977     C
C       0.9103   0.7706   0.8977     C
H       0.9134   0.1542    0.465     H
H       0.9134   0.8458    0.965     H
C       0.9284   0.3108   0.4348     C
C       0.9284   0.6892   0.9348     C
H       0.9415   0.2988   0.4794     H
H       0.9415   0.7012   0.9794     H
C       0.9519    0.339    0.718     C
C       0.9519    0.661    0.218     C
H        0.952   0.3335   0.4299     H
H        0.952   0.6665   0.9299     H
H       0.9614   0.2121   0.7224     H
H       0.9614   0.7879   0.2224     H
H       0.9618   0.4659   0.7281     H
H       0.9618   0.5341   0.2281     H
C       0.9765    0.265    0.734     C
C       0.9765    0.735    0.234     C
C       0.9766    0.413    0.735     C
C       0.9766    0.587    0.235     C
