data_I
_chemical_name_common  '/home/zhangsd/repos/MofS-CGCNN/ML/data/TSD/clean_cifs/ZIYQAB_clean'
_cell_length_a 10.85120
_cell_length_b 11.01400
_cell_length_c 17.23700
_cell_angle_alpha 106.17100
_cell_angle_beta  90.00000
_cell_angle_gamma 90.00000
_space_group_name_H-M_alt      'P 1'


loop_
_space_group_symop_operation_xyz
  'x, y, z' 

loop_
_atom_site_label
_atom_site_fract_x
_atom_site_fract_y
_atom_site_fract_z
_atom_site_type_symbol
C       0.0253    0.465   0.4171     C
C       0.0325   0.2119   0.0259     C
N       0.0349   0.2538   0.1059     N
H       0.0482   0.9109   0.1181     H
O       0.0557   0.5105   0.2916     O
C       0.0618   0.4276   0.3296     C
N       0.0653   0.8624   0.9974     N
C       0.0673   0.5981   0.5519     C
C       0.0676   0.7982   0.8713     C
H       0.0901   0.7847   0.8169     H
H        0.091   0.2316    0.991     H
C       0.0911   0.5625   0.4697     C
O       0.1055   0.3203  0.29859     O
C       0.1119   0.9173   0.0791     C
H       0.1293   0.0071   0.0867     H
N       0.1331   0.8689   0.9313     N
C       0.1473   0.6979   0.6062     C
H       0.1528   0.6048    0.449     H
H       0.1662    0.448   0.0018     H
N       0.1745    0.541   0.1206     N
C       0.1766   0.5269   0.0399     C
O       0.1802   0.7884   0.5788     O
O       0.1805   0.6874   0.6727     O
Cd      0.1855   0.3787  0.18443    Cd
C       0.1923   0.6646   0.1503     C
N       0.1943   0.6312    0.019     N
H       0.1963   0.7076   0.2056     H
N       0.2037   0.7187   0.0911     N
H       0.2089   0.3569   0.5561     H
C       0.2277   0.8523   0.0957     C
H       0.2411   0.3961   0.6495     H
H       0.2589   0.8961   0.1495     H
C       0.2723   0.3523   0.5957     C
H       0.2911   0.8569   0.0561     H
N       0.2963   0.2187   0.5911     N
H       0.3037   0.2076   0.7056     H
N       0.3057   0.1312    0.519     N
C       0.3077   0.1646   0.6503     C
Cd      0.3145   0.8787  0.68443    Cd
O       0.3195   0.1874   0.1727     O
O       0.3198   0.2884   0.0788     O
C       0.3234   0.0269   0.5399     C
N       0.3255    0.041   0.6206     N
H       0.3338    0.948   0.5018     H
H       0.3472   0.1048    0.949     H
C       0.3527   0.1979   0.1062     C
N       0.3669   0.3689   0.4313     N
H       0.3707   0.5071   0.5867     H
C       0.3881   0.4173   0.5791     C
O       0.3945   0.8203  0.79859     O
C       0.4089   0.0625   0.9697     C
H        0.409   0.7316    0.491     H
H       0.4099   0.2847   0.3169     H
C       0.4324   0.2982   0.3713     C
C       0.4327   0.0981   0.0519     C
N       0.4347   0.3624   0.4974     N
C       0.4382   0.9276   0.8296     C
O       0.4443   0.0105   0.7916     O
H       0.4518   0.4109   0.6181     H
N       0.4651   0.7538   0.6059     N
C       0.4675   0.7119   0.5259     C
C       0.4747    0.965   0.9171     C
C       0.5253    0.035   0.0829     C
C       0.5325   0.2881   0.4741     C
N       0.5349   0.2462   0.3941     N
H       0.5482   0.5891   0.3819     H
O       0.5557   0.9895   0.2084     O
C       0.5618   0.0724   0.1704     C
N       0.5653   0.6376   0.5026     N
C       0.5673   0.9019   0.9481     C
C       0.5676   0.7018   0.6287     C
H       0.5901   0.7153   0.6831     H
H        0.591   0.2684    0.509     H
C       0.5911   0.9375   0.0303     C
O       0.6055   0.1797  0.20141     O
C       0.6119   0.5827   0.4209     C
H       0.6293   0.4929   0.4133     H
N       0.6331   0.6311   0.5687     N
C       0.6473   0.8021   0.8938     C
H       0.6528   0.8952    0.051     H
H       0.6662    0.052   0.4982     H
N       0.6745    0.959   0.3794     N
C       0.6766   0.9731   0.4601     C
O       0.6802   0.7116   0.9212     O
O       0.6805   0.8126   0.8273     O
Cd      0.6855   0.1213  0.31557    Cd
C       0.6923   0.8354   0.3497     C
N       0.6943   0.8688    0.481     N
H       0.6963   0.7924   0.2944     H
N       0.7037   0.7813   0.4089     N
H       0.7089   0.1431   0.9439     H
C       0.7277   0.6477   0.4043     C
H       0.7411   0.1039   0.8505     H
H       0.7589   0.6039   0.3505     H
C       0.7723   0.1477   0.9043     C
H       0.7911   0.6431   0.4439     H
N       0.7963   0.2813   0.9089     N
H       0.8037   0.2924   0.7944     H
N       0.8057   0.3688    0.981     N
C       0.8077   0.3354   0.8497     C
Cd      0.8145   0.6213  0.81557    Cd
O       0.8195   0.3126   0.3273     O
O       0.8198   0.2116   0.4212     O
C       0.8234   0.4731   0.9601     C
N       0.8255    0.459   0.8794     N
H       0.8338    0.552   0.9982     H
H       0.8472   0.3952    0.551     H
C       0.8527   0.3021   0.3938     C
N       0.8669   0.1311   0.0687     N
H       0.8707   0.9929   0.9133     H
C       0.8881   0.0827   0.9209     C
O       0.8945   0.6797  0.70141     O
C       0.9089   0.4375   0.5303     C
H        0.909   0.7684    0.009     H
H       0.9099   0.2153   0.1831     H
C       0.9324   0.2018   0.1287     C
C       0.9327   0.4019   0.4481     C
N       0.9347   0.1376   0.0026     N
C       0.9382   0.5724   0.6704     C
O       0.9443   0.4895   0.7084     O
H       0.9518   0.0891   0.8819     H
N       0.9651   0.7462   0.8941     N
C       0.9675   0.7881   0.9741     C
C       0.9747    0.535   0.5829     C
