data_I
_chemical_name_common  '/home/zhangsd/repos/MofS-CGCNN/ML/data/TSD/clean_cifs/ZOMNUM_clean'
_cell_length_a 13.85000
_cell_length_b 12.77000
_cell_length_c  6.93900
_cell_angle_alpha 90.00000
_cell_angle_beta  91.45000
_cell_angle_gamma 90.00000
_space_group_name_H-M_alt      'P 1'


loop_
_space_group_symop_operation_xyz
  'x, y, z' 

loop_
_atom_site_label
_atom_site_fract_x
_atom_site_fract_y
_atom_site_fract_z
_atom_site_type_symbol
Cr         0.0  0.80964      0.0    Cr
Zn         0.0  0.88497      0.5    Zn
O       0.0225   0.8833   0.8102     O
C       0.0528   0.6592   0.5376     C
H       0.0544    0.655   0.6772     H
H       0.0861   0.5984    0.488     H
N       0.1026   0.7555   0.4763     N
N       0.1074   0.0074    0.472     N
H       0.1143   0.0081   0.1918     H
H       0.1149   0.7479   0.3488     H
H       0.1309   0.0286   0.7446     H
C       0.1362   0.0427   0.3026     C
C       0.1452   0.0547   0.6234     C
H       0.1855   0.7837    0.713     H
C       0.1968    0.771   0.5776     C
C       0.1974   0.1287   0.2816     C
C       0.2061   0.1428   0.6134     C
H       0.2127   0.1513   0.1586     H
H       0.2269   0.1759   0.7264     H
H       0.2273    0.833   0.5261     H
C       0.2351   0.1802    0.439     C
C       0.2649   0.6802    0.561     C
H       0.2727    0.333   0.4739     H
H       0.2731   0.6759   0.2736     H
H       0.2873   0.6513   0.8414     H
C       0.2939   0.6428   0.3866     C
C       0.3026   0.6287   0.7184     C
C       0.3032    0.271   0.4224     C
H       0.3145   0.2837    0.287     H
C       0.3548   0.5547   0.3766     C
C       0.3638   0.5427   0.6974     C
H       0.3691   0.5286   0.2554     H
H       0.3851   0.2479   0.6512     H
H       0.3857   0.5081   0.8082     H
N       0.3926   0.5074    0.528     N
N       0.3974   0.2555   0.5237     N
H       0.4139   0.0984    0.512     H
H       0.4456    0.155   0.3228     H
C       0.4472   0.1592   0.4624     C
O       0.4775   0.3833   0.1898     O
Cr         0.5  0.30964      0.0    Cr
Zn         0.5  0.38497      0.5    Zn
O       0.5225   0.3833   0.8102     O
C       0.5528   0.1592   0.5376     C
H       0.5544    0.155   0.6772     H
H       0.5861   0.0984    0.488     H
N       0.6026   0.2555   0.4763     N
N       0.6074   0.5074    0.472     N
H       0.6143   0.5081   0.1918     H
H       0.6149   0.2479   0.3488     H
H       0.6309   0.5286   0.7446     H
C       0.6362   0.5427   0.3026     C
C       0.6452   0.5547   0.6234     C
H       0.6855   0.2837    0.713     H
C       0.6968    0.271   0.5776     C
C       0.6974   0.6287   0.2816     C
C       0.7061   0.6428   0.6134     C
H       0.7127   0.6513   0.1586     H
H       0.7269   0.6759   0.7264     H
H       0.7273    0.333   0.5261     H
C       0.7351   0.6802    0.439     C
C       0.7649   0.1802    0.561     C
H       0.7727    0.833   0.4739     H
H       0.7731   0.1759   0.2736     H
H       0.7873   0.1513   0.8414     H
C       0.7939   0.1428   0.3866     C
C       0.8026   0.1287   0.7184     C
C       0.8032    0.771   0.4224     C
H       0.8145   0.7837    0.287     H
C       0.8548   0.0547   0.3766     C
C       0.8638   0.0427   0.6974     C
H       0.8691   0.0286   0.2554     H
H       0.8851   0.7479   0.6512     H
H       0.8857   0.0081   0.8082     H
N       0.8926   0.0074    0.528     N
N       0.8974   0.7555   0.5237     N
H       0.9139   0.5984    0.512     H
H       0.9456    0.655   0.3228     H
C       0.9472   0.6592   0.4624     C
O       0.9775   0.8833   0.1898     O
