data_I
_chemical_name_common  '/home/zhangsd/repos/MofS-CGCNN/ML/data/TSD/clean_cifs/ZOXFEZ_clean'
_cell_length_a 17.57300
_cell_length_b 16.52800
_cell_length_c 17.59500
_cell_angle_alpha 90.00000
_cell_angle_beta  90.00000
_cell_angle_gamma 90.00000
_space_group_name_H-M_alt      'P 1'


loop_
_space_group_symop_operation_xyz
  'x, y, z' 

loop_
_atom_site_label
_atom_site_fract_x
_atom_site_fract_y
_atom_site_fract_z
_atom_site_type_symbol
Cd         0.0      0.0      0.5    Cd
Cd         0.0      0.5      0.0    Cd
H       0.0111    0.524    0.806     H
H       0.0111    0.976    0.306     H
H       0.0204   0.2118   0.4756     H
H       0.0204   0.2882   0.9756     H
C       0.0393   0.5667   0.8258     C
C       0.0393   0.9333   0.3258     C
N       0.0492   0.5829    0.902     N
N       0.0492   0.9171    0.402     N
C       0.0612   0.1866   0.4518     C
C       0.0612   0.3134   0.9518     C
H       0.0644   0.6289   0.1442     H
H       0.0644   0.8711   0.6442     H
N       0.0728   0.1043   0.4488     N
N       0.0728   0.3957   0.9488     N
C       0.0772   0.6228   0.7843     C
C       0.0772   0.8772   0.2843     C
H       0.0801   0.6257   0.7316     H
H       0.0801   0.8743   0.2316     H
C       0.0925   0.6472   0.9046     C
C       0.0925   0.8528   0.4046     C
H       0.0967    0.719   0.2274     H
H       0.0967    0.781   0.7274     H
N       0.1026    0.537    0.083     N
N       0.1026    0.963    0.583     N
C       0.1035   0.5919   0.1367     C
C       0.1035   0.9081   0.6367     C
H       0.1091   0.6711   0.9494     H
H       0.1091   0.8289   0.4494     H
N       0.1101   0.6745   0.8354     N
N       0.1101   0.8255   0.3354     N
C       0.1172   0.2248   0.4155     C
C       0.1172   0.2752   0.9155     C
H       0.1228   0.2196   0.9098     H
H       0.1228   0.2804   0.4098     H
C       0.1356   0.0939   0.4084     C
C       0.1356   0.4061   0.9084     C
C       0.1394    0.708   0.2569     C
C       0.1394    0.792   0.7569     C
H       0.1562   0.0439   0.3959     H
H       0.1562   0.4561   0.8959     H
C       0.1589   0.7424   0.8169     C
C       0.1589   0.7576   0.3169     C
N       0.1654   0.1655   0.3879     N
N       0.1654   0.3345   0.8879     N
N       0.1658   0.5893   0.1794     N
N       0.1658   0.9107   0.6794     N
C       0.1694   0.0043    0.593     C
C       0.1694   0.4957    0.093     C
C       0.1846   0.6417   0.2414     C
C       0.1846   0.8583   0.7414     C
H       0.1851    0.048   0.5635     H
H       0.1851    0.452   0.0635     H
C       0.2089   0.5266   0.1509     C
C       0.2089   0.9734   0.6509     C
H       0.2189   0.0832   0.2722     H
H       0.2189   0.4168   0.7722     H
C       0.2231   0.7446   0.3605     C
C       0.2231   0.7554   0.8605     C
C        0.233   0.1789   0.3443     C
C        0.233   0.3211   0.8443     C
H       0.2359   0.7204   0.8998     H
H       0.2359   0.7796   0.3998     H
H        0.244   0.0093   0.1686     H
H        0.244   0.4907   0.6686     H
C       0.2497   0.6268   0.2837     C
C       0.2497   0.8732   0.7837     C
C       0.2503   0.1268   0.2837     C
C       0.2503   0.3732   0.7837     C
H        0.256   0.5093   0.1686     H
H        0.256   0.9907   0.6686     H
H       0.2641   0.2204   0.8998     H
H       0.2641   0.2796   0.3998     H
C        0.267   0.6789   0.3443     C
C        0.267   0.8211   0.8443     C
C       0.2769   0.2446   0.3605     C
C       0.2769   0.2554   0.8605     C
H       0.2811   0.5832   0.2722     H
H       0.2811   0.9168   0.7722     H
C       0.2911   0.0266   0.1509     C
C       0.2911   0.4734   0.6509     C
H       0.3149    0.548   0.5635     H
H       0.3149    0.952   0.0635     H
C       0.3154   0.1417   0.2414     C
C       0.3154   0.3583   0.7414     C
C       0.3306   0.5043    0.593     C
C       0.3306   0.9957    0.093     C
N       0.3342   0.0893   0.1794     N
N       0.3342   0.4107   0.6794     N
N       0.3346   0.6655   0.3879     N
N       0.3346   0.8345   0.8879     N
C       0.3411   0.2424   0.8169     C
C       0.3411   0.2576   0.3169     C
H       0.3438   0.5439   0.3959     H
H       0.3438   0.9561   0.8959     H
C       0.3606    0.208   0.2569     C
C       0.3606    0.292   0.7569     C
C       0.3644   0.5939   0.4084     C
C       0.3644   0.9061   0.9084     C
H       0.3772   0.7196   0.9098     H
H       0.3772   0.7804   0.4098     H
C       0.3828   0.7248   0.4155     C
C       0.3828   0.7752   0.9155     C
N       0.3899   0.1745   0.8354     N
N       0.3899   0.3255   0.3354     N
H       0.3909   0.1711   0.9494     H
H       0.3909   0.3289   0.4494     H
C       0.3965   0.0919   0.1367     C
C       0.3965   0.4081   0.6367     C
N       0.3974    0.037    0.083     N
N       0.3974    0.463    0.583     N
H       0.4033    0.219   0.2274     H
H       0.4033    0.281   0.7274     H
C       0.4075   0.1472   0.9046     C
C       0.4075   0.3528   0.4046     C
H       0.4199   0.1257   0.7316     H
H       0.4199   0.3743   0.2316     H
C       0.4228   0.1228   0.7843     C
C       0.4228   0.3772   0.2843     C
N       0.4272   0.6043   0.4488     N
N       0.4272   0.8957   0.9488     N
H       0.4356   0.1289   0.1442     H
H       0.4356   0.3711   0.6442     H
C       0.4388   0.6866   0.4518     C
C       0.4388   0.8134   0.9518     C
N       0.4508   0.0829    0.902     N
N       0.4508   0.4171    0.402     N
C       0.4607   0.0667   0.8258     C
C       0.4607   0.4333   0.3258     C
H       0.4796   0.7118   0.4756     H
H       0.4796   0.7882   0.9756     H
H       0.4889    0.024    0.806     H
H       0.4889    0.476    0.306     H
Cd         0.5      0.0      0.0    Cd
Cd         0.5      0.5      0.5    Cd
H       0.5111    0.524    0.694     H
H       0.5111    0.976    0.194     H
H       0.5204   0.2118   0.0244     H
H       0.5204   0.2882   0.5244     H
C       0.5393   0.5667   0.6742     C
C       0.5393   0.9333   0.1742     C
N       0.5492   0.5829    0.598     N
N       0.5492   0.9171    0.098     N
C       0.5612   0.1866   0.0482     C
C       0.5612   0.3134   0.5482     C
H       0.5644   0.6289   0.3558     H
H       0.5644   0.8711   0.8558     H
N       0.5728   0.1043   0.0512     N
N       0.5728   0.3957   0.5512     N
C       0.5772   0.6228   0.7157     C
C       0.5772   0.8772   0.2157     C
H       0.5801   0.6257   0.7684     H
H       0.5801   0.8743   0.2684     H
C       0.5925   0.6472   0.5954     C
C       0.5925   0.8528   0.0954     C
H       0.5967    0.719   0.2726     H
H       0.5967    0.781   0.7726     H
N       0.6026    0.537    0.417     N
N       0.6026    0.963    0.917     N
C       0.6035   0.5919   0.3633     C
C       0.6035   0.9081   0.8633     C
H       0.6091   0.6711   0.5506     H
H       0.6091   0.8289   0.0506     H
N       0.6101   0.6745   0.6646     N
N       0.6101   0.8255   0.1646     N
C       0.6172   0.2248   0.0845     C
C       0.6172   0.2752   0.5845     C
H       0.6228   0.2196   0.5902     H
H       0.6228   0.2804   0.0902     H
C       0.6356   0.0939   0.0916     C
C       0.6356   0.4061   0.5916     C
C       0.6394    0.708   0.2431     C
C       0.6394    0.792   0.7431     C
H       0.6562   0.0439   0.1041     H
H       0.6562   0.4561   0.6041     H
C       0.6589   0.7424   0.6831     C
C       0.6589   0.7576   0.1831     C
N       0.6654   0.1655   0.1121     N
N       0.6654   0.3345   0.6121     N
N       0.6658   0.5893   0.3206     N
N       0.6658   0.9107   0.8206     N
C       0.6694   0.0043    0.907     C
C       0.6694   0.4957    0.407     C
C       0.6846   0.6417   0.2586     C
C       0.6846   0.8583   0.7586     C
H       0.6851    0.048   0.9365     H
H       0.6851    0.452   0.4365     H
C       0.7089   0.5266   0.3491     C
C       0.7089   0.9734   0.8491     C
H       0.7189   0.0832   0.2278     H
H       0.7189   0.4168   0.7278     H
C       0.7231   0.7446   0.1395     C
C       0.7231   0.7554   0.6395     C
C        0.733   0.1789   0.1557     C
C        0.733   0.3211   0.6557     C
H       0.7359   0.7204   0.6002     H
H       0.7359   0.7796   0.1002     H
H        0.744   0.0093   0.3314     H
H        0.744   0.4907   0.8314     H
C       0.7497   0.6268   0.2163     C
C       0.7497   0.8732   0.7163     C
C       0.7503   0.1268   0.2163     C
C       0.7503   0.3732   0.7163     C
H        0.756   0.5093   0.3314     H
H        0.756   0.9907   0.8314     H
H       0.7641   0.2204   0.6002     H
H       0.7641   0.2796   0.1002     H
C        0.767   0.6789   0.1557     C
C        0.767   0.8211   0.6557     C
C       0.7769   0.2446   0.1395     C
C       0.7769   0.2554   0.6395     C
H       0.7811   0.5832   0.2278     H
H       0.7811   0.9168   0.7278     H
C       0.7911   0.0266   0.3491     C
C       0.7911   0.4734   0.8491     C
H       0.8149    0.548   0.9365     H
H       0.8149    0.952   0.4365     H
C       0.8154   0.1417   0.2586     C
C       0.8154   0.3583   0.7586     C
C       0.8306   0.5043    0.907     C
C       0.8306   0.9957    0.407     C
N       0.8342   0.0893   0.3206     N
N       0.8342   0.4107   0.8206     N
N       0.8346   0.6655   0.1121     N
N       0.8346   0.8345   0.6121     N
C       0.8411   0.2424   0.6831     C
C       0.8411   0.2576   0.1831     C
H       0.8438   0.5439   0.1041     H
H       0.8438   0.9561   0.6041     H
C       0.8606    0.208   0.2431     C
C       0.8606    0.292   0.7431     C
C       0.8644   0.5939   0.0916     C
C       0.8644   0.9061   0.5916     C
H       0.8772   0.7196   0.5902     H
H       0.8772   0.7804   0.0902     H
C       0.8828   0.7248   0.0845     C
C       0.8828   0.7752   0.5845     C
N       0.8899   0.1745   0.6646     N
N       0.8899   0.3255   0.1646     N
H       0.8909   0.1711   0.5506     H
H       0.8909   0.3289   0.0506     H
C       0.8965   0.0919   0.3633     C
C       0.8965   0.4081   0.8633     C
N       0.8974    0.037    0.417     N
N       0.8974    0.463    0.917     N
H       0.9033    0.219   0.2726     H
H       0.9033    0.281   0.7726     H
C       0.9075   0.1472   0.5954     C
C       0.9075   0.3528   0.0954     C
H       0.9199   0.1257   0.7684     H
H       0.9199   0.3743   0.2684     H
C       0.9228   0.1228   0.7157     C
C       0.9228   0.3772   0.2157     C
N       0.9272   0.6043   0.0512     N
N       0.9272   0.8957   0.5512     N
H       0.9356   0.1289   0.3558     H
H       0.9356   0.3711   0.8558     H
C       0.9388   0.6866   0.0482     C
C       0.9388   0.8134   0.5482     C
N       0.9508   0.0829    0.598     N
N       0.9508   0.4171    0.098     N
C       0.9607   0.0667   0.6742     C
C       0.9607   0.4333   0.1742     C
H       0.9796   0.7118   0.0244     H
H       0.9796   0.7882   0.5244     H
H       0.9889    0.024    0.694     H
H       0.9889    0.476    0.194     H
