data_I
_chemical_name_common  '/home/zhangsd/repos/MofS-CGCNN/ML/data/TSD/clean_cifs/ZOXTOX_clean'
_cell_length_a  9.17890
_cell_length_b 12.92920
_cell_length_c 18.44530
_cell_angle_alpha 71.99830
_cell_angle_beta  75.59270
_cell_angle_gamma 69.20850
_space_group_name_H-M_alt      'P 1'


loop_
_space_group_symop_operation_xyz
  'x, y, z' 

loop_
_atom_site_label
_atom_site_fract_x
_atom_site_fract_y
_atom_site_fract_z
_atom_site_type_symbol
C      0.00344  0.94252   0.8134     C
H       0.0142   0.6661   0.6447     H
C      0.01667  0.15776   0.2009     C
O      0.02025  0.59735  0.49615     O
O      0.02933   0.5536  0.11574     O
C      0.03157  0.71646   0.7346     C
O      0.03381  0.27198   0.9596     O
N      0.03557   0.0349  0.59476     N
O       0.0526  0.03201  0.12139     O
C      0.06259  0.64142    0.076     C
C       0.0626   0.1396   0.5696     C
N      0.06684  0.80926  0.73346     N
C      0.06897  0.77826   0.4578     C
N      0.07304  0.31077  0.20335     N
O      0.07959  0.99837  0.76025     O
C       0.0959   0.6525   0.6735     C
C      0.10453  0.23204   0.1613     C
C       0.1081   0.9479   0.4183     C
H        0.111   0.1077   0.4069     H
O      0.11375  0.90265  0.00385     O
C      0.11858  0.65254   0.4793     C
H       0.1341   0.5724   0.6968     H
Yb     0.15097  0.08837  0.99587    Yb
O      0.16179  0.49837  0.26025     O
N      0.17414  0.83622   0.4495     N
H        0.181   0.6778   0.6394     H
C       0.1881   0.0368   0.4006     C
Zn     0.20391  0.91157  0.66325    Zn
O        0.206  0.46799  0.37861     O
C      0.21999  0.14142    0.576     C
Zn     0.22127  0.41157  0.16325    Zn
C      0.22564  0.23622   0.0913     C
C       0.2282   0.6396   0.0696     C
Yb     0.23521  0.41163  0.50413    Yb
C      0.24064  0.44252   0.3134     C
H       0.2421   0.0458   0.3484     H
C      0.25042  0.84746   0.0207     C
H       0.2628   0.0138   0.4352     H
O      0.26343  0.59894   0.4806     O
O      0.26539  0.22802   0.5404     O
O      0.26854  0.15886  0.05526     O
H       0.2692   0.8055   0.4625     H
O      0.28616   0.3156  0.07288     O
H       0.2882   0.5138   0.9352     H
O      0.30133   0.0536  0.61574     O
C      0.30503  0.72174   0.0422     C
H        0.325   0.8339   0.8553     H
O      0.32536   0.8156  0.57288     O
N      0.33477   0.5349  0.09476     N
O      0.34297  0.90106   0.0194     O
H       0.3637   0.5458   0.8484     H
H       0.3744   0.6077   0.9069     H
C       0.3745   0.5368   0.9006     C
C      0.37533  0.34224   0.2991     C
N      0.39044  0.30926  0.23346     N
H       0.4033   0.9276   0.8032     H
N      0.41284  0.81077  0.70335     N
C       0.4219   0.8475   0.8265     C
C      0.44684  0.73622   0.5913     C
N      0.45986  0.66378   0.0505     N
H       0.4628   0.3055   0.9625     H
C       0.4743   0.5521   0.0817     C
C      0.48263  0.78354   0.7654     C
O      0.48266  0.34114  0.44474     O
C      0.49787  0.26796   0.3387     C
H       0.4982   0.8222   0.8606     H
H       0.5018   0.1778   0.1394     H
C      0.50213  0.73204   0.6613     C
O      0.51734  0.65886  0.55526     O
C      0.51737  0.21646   0.2346     C
C       0.5257   0.4479   0.9183     C
H       0.5372   0.6945   0.0375     H
N      0.54014  0.33622   0.9495     N
C      0.55316  0.26378   0.4087     C
C       0.5781   0.1525   0.1735     C
N      0.58716  0.18923  0.29665     N
H       0.5967   0.0724   0.1968     H
N      0.60956  0.69074  0.76654     N
C      0.62467  0.65776   0.7009     C
C       0.6255   0.4632   0.0994     C
H       0.6256   0.3923   0.0931     H
H       0.6363   0.4542   0.1516     H
O      0.65703  0.09894   0.9806     O
N      0.66523   0.4651  0.90524     N
O      0.67464   0.1844  0.42712     O
H        0.675   0.1661   0.1447     H
C      0.69497  0.27826   0.9578     C
O      0.69867   0.9464  0.38426     O
H       0.7118   0.4862   0.0648     H
O      0.71384   0.6844  0.92712     O
H       0.7308   0.1945   0.5375     H
O      0.73146  0.84114  0.94474     O
O      0.73461  0.77198   0.4596     O
O      0.73657  0.40106   0.5194     O
H       0.7372   0.9862   0.5648     H
C      0.74958  0.15254   0.9793     C
H       0.7579   0.9542   0.6516     H
C      0.75936  0.55748   0.6866     C
Yb     0.76479  0.58837  0.49587    Yb
C       0.7718   0.3604   0.9304     C
C      0.77436  0.76378   0.9087     C
Zn     0.77873  0.58843  0.83675    Zn
C      0.78001  0.85858    0.424     C
O        0.794  0.53201  0.62139     O
Zn     0.79609  0.08843  0.33675    Zn
C       0.8119   0.9632   0.5994     C
H        0.819   0.3222   0.3606     H
N      0.82586  0.16378   0.5505     N
O      0.83821  0.50163  0.73975     O
Yb     0.84903  0.91163  0.00413    Yb
H       0.8659   0.4276   0.3032     H
C      0.88142  0.34746   0.5207     C
O      0.88625  0.09735  0.99615     O
H        0.889   0.8923   0.5931     H
C       0.8919   0.0521   0.5817     C
C      0.89547  0.76796   0.8387     C
C       0.9041   0.3475   0.3265     C
O      0.92041  0.00163  0.23975     O
N      0.92696  0.68923  0.79665     N
C      0.93103  0.22174   0.5422     C
N      0.93316  0.19074  0.26654     N
C       0.9374   0.8604   0.4304     C
C      0.93741  0.35858    0.924     C
O       0.9474  0.96799  0.87861     O
N      0.96443   0.9651  0.40524     N
O      0.96619  0.72802   0.0404     O
C      0.96843  0.28354   0.2654     C
O      0.97067   0.4464  0.88426     O
O      0.97975  0.40265  0.50385     O
C      0.98333  0.84224   0.7991     C
H       0.9858   0.3339   0.3553     H
C      0.99656  0.05748   0.1866     C
