data_I
_chemical_name_common  '/home/zhangsd/repos/MofS-CGCNN/ML/data/TSD/clean_cifs/ZUDXAZ_clean'
_cell_length_a  6.66870
_cell_length_b 12.24500
_cell_length_c  9.03050
_cell_angle_alpha 90.00000
_cell_angle_beta  110.43900
_cell_angle_gamma 90.00000
_space_group_name_H-M_alt      'P 1'


loop_
_space_group_symop_operation_xyz
  'x, y, z' 

loop_
_atom_site_label
_atom_site_fract_x
_atom_site_fract_y
_atom_site_fract_z
_atom_site_type_symbol
Fe         0.0      0.0      0.0    Fe
Fe         0.0      0.5      0.5    Fe
H       0.0007    0.284    0.663     H
H       0.0007    0.716    0.663     H
N       0.0029   0.2336     0.73     N
N       0.0029   0.7664     0.73     N
H        0.121   0.2011   0.7815     H
H        0.121   0.7989   0.7815     H
F         0.19      0.0   0.8639     F
C        0.204   0.2018   0.2425     C
C        0.204   0.7982   0.2425     C
F       0.2041   0.3842   0.5206     F
F       0.2041   0.6158   0.5206     F
N        0.209   0.1248   0.1406     N
N        0.209   0.8752   0.1406     N
N        0.399   0.2479   0.3127     N
N        0.399   0.7521   0.3127     N
F        0.413      0.5   0.3394     F
N        0.418   0.1234   0.1468     N
N        0.418   0.8766   0.1468     N
N        0.478   0.1964   0.7511     N
N        0.478   0.8036   0.7511     N
Fe         0.5      0.0      0.0    Fe
Fe         0.5  0.36593      0.5    Fe
Fe         0.5  0.63407      0.5    Fe
N        0.522   0.1964   0.2489     N
N        0.522   0.8036   0.2489     N
N        0.582   0.1234   0.8532     N
N        0.582   0.8766   0.8532     N
O        0.587      0.5   0.6606     O
N        0.601   0.2479   0.6873     N
N        0.601   0.7521   0.6873     N
N        0.791   0.1248   0.8594     N
N        0.791   0.8752   0.8594     N
F       0.7959   0.3842   0.4794     F
F       0.7959   0.6158   0.4794     F
C        0.796   0.2018   0.7575     C
C        0.796   0.7982   0.7575     C
F         0.81      0.0   0.1361     F
H        0.879   0.2011   0.2185     H
H        0.879   0.7989   0.2185     H
N       0.9971   0.2336     0.27     N
N       0.9971   0.7664     0.27     N
H       0.9993    0.284    0.337     H
H       0.9993    0.716    0.337     H
