data_I
_chemical_name_common  '/home/zhangsd/repos/MofS-CGCNN/ML/data/TSD/clean_cifs/ZUQMAB_clean'
_cell_length_a 14.78830
_cell_length_b 19.44010
_cell_length_c 19.33860
_cell_angle_alpha 90.00000
_cell_angle_beta  99.72200
_cell_angle_gamma 90.00000
_space_group_name_H-M_alt      'P 1'


loop_
_space_group_symop_operation_xyz
  'x, y, z' 

loop_
_atom_site_label
_atom_site_fract_x
_atom_site_fract_y
_atom_site_fract_z
_atom_site_type_symbol
C          0.0   0.2183   0.9676     C
C          0.0   0.2817   0.4676     C
C          0.0   0.7183   0.5324     C
C          0.0   0.7817   0.0324     C
C       0.0018   0.6414   0.7255     C
C       0.0018   0.8586   0.2255     C
C       0.0035   0.1712   0.0205     C
C       0.0035   0.3288   0.5205     C
C       0.0131   0.0691   0.8015     C
C       0.0131   0.4309   0.3015     C
C       0.0211   0.7229   0.2734     C
C       0.0211   0.7771   0.7734     C
C       0.0303   0.6509   0.3009     C
C       0.0303   0.8491   0.8009     C
O       0.0385  0.12184  0.18018     O
O       0.0385  0.37816  0.68018     O
H       0.0442    0.671   0.4538     H
H       0.0442    0.829   0.9538     H
H        0.049   0.7488   0.5417     H
H        0.049   0.7512   0.0417     H
O        0.052  0.53801  0.67892     O
O        0.052  0.96199  0.17892     O
Co     0.05865  0.04424  0.11247    Co
Co     0.05865  0.45576  0.61247    Co
C        0.059   0.2419   0.7262     C
C        0.059   0.2581   0.2262     C
H       0.0674   0.2489    0.391     H
H       0.0674   0.2511    0.891     H
C       0.0692   0.1747   0.7489     C
C       0.0692   0.3253   0.2489     C
C       0.0695   0.2205   0.9282     C
C       0.0695   0.2795   0.4282     C
N       0.0718   0.1249   0.0376     N
N       0.0718   0.3751   0.5376     N
O       0.0806  0.53181  0.54047     O
O       0.0806  0.96819  0.04047     O
C       0.0822   0.6764   0.7236     C
C       0.0822   0.8236   0.2236     C
O       0.0854  0.54014    0.426     O
O       0.0854  0.95986    0.926     O
O       0.0914  0.04351   0.7994     O
O       0.0914  0.45649   0.2994     O
C       0.0933   0.7449   0.7473     C
C       0.0933   0.7551   0.2473     C
H       0.1076   0.2362   0.2103     H
H       0.1076   0.2638   0.7103     H
O       0.1098  0.62408   0.3053     O
O       0.1098  0.87592   0.8053     O
C       0.1205   0.5326   0.4888     C
C       0.1205   0.9674   0.9888     C
H       0.1237   0.1514   0.7472     H
H       0.1237   0.3486   0.2472     H
C       0.1391   0.1275   0.9989     C
C       0.1391   0.3725   0.4989     C
C       0.1422   0.1755   0.9457     C
C       0.1422   0.3245   0.4457     C
H       0.1538   0.6072   0.6879     H
H       0.1538   0.8928   0.1879     H
N       0.1552   0.6493   0.7019     N
N       0.1552   0.8507   0.2019     N
Co      0.1656  0.53489   0.3434    Co
Co      0.1656  0.96511   0.8434    Co
N       0.1744   0.7288   0.2354     N
N       0.1744   0.7712   0.7354     N
H       0.1853   0.0466   0.7109     H
H       0.1853   0.4534   0.2109     H
H       0.1863   0.0955   0.0081     H
H       0.1863   0.4045   0.5081     H
H       0.1872   0.6862   0.2442     H
H       0.1872   0.8138   0.7442     H
H        0.196    0.537    0.499     H
H        0.196    0.963    0.999     H
H       0.2036   0.6737   0.7019     H
H       0.2036   0.8263   0.2019     H
N        0.205   0.0469   0.1491     N
N        0.205   0.4531   0.6491     N
H       0.2105   0.1443   0.1772     H
H       0.2105   0.3557   0.6772     H
H       0.2129   0.7452    0.719     H
H       0.2129   0.7548    0.219     H
N       0.2185   0.1727   0.9106     N
N       0.2185   0.3273   0.4106     N
O       0.2232   0.2138   0.3877     O
O       0.2232   0.2862   0.8877     O
C       0.2259   0.0109    0.707     C
C       0.2259   0.4891    0.207     C
H       0.2311   0.5483   0.6288     H
H       0.2311   0.9517   0.1288     H
N       0.2407   0.5349    0.257     N
N       0.2407   0.9651    0.757     N
H       0.2416    0.133   0.9045     H
H       0.2416    0.367   0.4045     H
C       0.2463   0.1055   0.1739     C
C       0.2463   0.3945   0.6739     C
H       0.2558   0.0428   0.6161     H
H       0.2558   0.4572   0.1161     H
C       0.2576   0.2283   0.8858     C
C       0.2576   0.2717   0.3858     C
C       0.2587   0.5074   0.6459     C
C       0.2587   0.9926   0.1459     C
O       0.2657  0.03148  0.90791     O
O       0.2657  0.46852  0.40791     O
C       0.2671   0.0085     0.65     C
C       0.2671   0.4915     0.15     C
O        0.288  0.58022  0.40466     O
O        0.288  0.91978  0.90466     O
C       0.2984   0.5863   0.2496     C
C       0.2984   0.9137   0.7496     C
H       0.3086   0.6198   0.2843     H
H       0.3086   0.8802   0.7843     H
C       0.3188   0.5206   0.4242     C
C       0.3188   0.9794   0.9242     C
C       0.3261   0.5447   0.1418     C
C       0.3261   0.9553   0.6418     C
C       0.3408   0.1102   0.1948     C
C       0.3408   0.3898   0.6948     C
C       0.3433   0.5919   0.1933     C
C       0.3433   0.9081   0.6933     C
C       0.3484   0.2188   0.8642     C
C       0.3484   0.2812   0.3642     C
H       0.3488    0.115   0.8522     H
H       0.3488    0.385   0.3522     H
H       0.3532   0.5479   0.1019     H
H       0.3532   0.9521   0.6019     H
C       0.3535   0.5072   0.6665     C
C       0.3535   0.9928   0.1665     C
H       0.3668   0.6032   0.6423     H
H       0.3668   0.8968   0.1423     H
H       0.3675   0.1515   0.2116     H
H       0.3675   0.3485   0.7116     H
H       0.3743   0.1803   0.3719     H
H       0.3743   0.3197   0.8719     H
C       0.3835   0.1548   0.8512     C
C       0.3835   0.3452   0.3512     C
H       0.3911   0.6841   0.2183     H
H       0.3911   0.8159   0.7183     H
H        0.393   0.0854   0.9939     H
H        0.393   0.4146   0.4939     H
C       0.3945   0.0532   0.1902     C
C       0.3945   0.4468   0.6902     C
C       0.3992   0.2225   0.3623     C
C       0.3992   0.2775   0.8623     C
N       0.3993   0.6504   0.1914     N
N       0.3993   0.8496   0.6914     N
N       0.4002   0.5691   0.6597     N
N       0.4002   0.9309   0.1597     N
H       0.4047   0.6385   0.4171     H
H       0.4047   0.8615   0.9171     H
C       0.4112   0.5113   0.4627     C
C       0.4112   0.9887   0.9627     C
H       0.4183   0.7106   0.6782     H
H       0.4183   0.7894   0.1782     H
C        0.437   0.0509   0.9964     C
C        0.437   0.4491   0.4964     C
O       0.4534   0.0367   0.7972     O
O       0.4534   0.4633   0.2972     O
H       0.4579   0.0558   0.2032     H
H       0.4579   0.4442   0.7032     H
N       0.4583   0.6292   0.4401     N
N       0.4583   0.8708   0.9401     N
C       0.4632   0.6578   0.1521     C
C       0.4632   0.8422   0.6521     C
C        0.474   0.1522   0.8365     C
C        0.474   0.3478   0.3365     C
C       0.4769   0.7127   0.6668     C
C       0.4769   0.7873   0.1668     C
C       0.4773   0.5646   0.4671     C
C       0.4773   0.9354   0.9671     C
O       0.4822   0.6107   0.1142     O
O       0.4822   0.8893   0.6142     O
C       0.4873   0.2247   0.3462     C
C       0.4873   0.2753   0.8462     C
C       0.4934   0.5819   0.6776     C
C       0.4934   0.9181   0.1776     C
H       0.4999   0.6606   0.4462     H
H       0.4999   0.8394   0.9462     H
H       0.5001   0.1606   0.0538     H
H       0.5001   0.3394   0.5538     H
C       0.5066   0.0819   0.8224     C
C       0.5066   0.4181   0.3224     C
C       0.5127   0.7247   0.1538     C
C       0.5127   0.7753   0.6538     C
O       0.5178   0.1107   0.3858     O
O       0.5178   0.3893   0.8858     O
C       0.5227   0.0646   0.0329     C
C       0.5227   0.4354   0.5329     C
C       0.5231   0.2127   0.8332     C
C       0.5231   0.2873   0.3332     C
C        0.526   0.6522   0.6635     C
C        0.526   0.8478   0.1635     C
C       0.5368   0.1578   0.3479     C
C       0.5368   0.3422   0.8479     C
N       0.5417   0.1292   0.0599     N
N       0.5417   0.3708   0.5599     N
H       0.5421   0.5558   0.2968     H
H       0.5421   0.9442   0.7968     H
O       0.5466   0.5367   0.7028     O
O       0.5466   0.9633   0.2028     O
C        0.563   0.5509   0.5036     C
C        0.563   0.9491   0.0036     C
H       0.5817   0.2106   0.8218     H
H       0.5817   0.2894   0.3218     H
C       0.5888   0.0113   0.0373     C
C       0.5888   0.4887   0.5373     C
H       0.5953   0.1385   0.0829     H
H       0.5953   0.3615   0.5829     H
N       0.5998   0.0691   0.8403     N
N       0.5998   0.4309   0.3403     N
N       0.6007   0.1504   0.3086     N
N       0.6007   0.3496   0.8086     N
C       0.6008   0.7225   0.1377     C
C       0.6008   0.7775   0.6377     C
C       0.6055   0.5532   0.3098     C
C       0.6055   0.9468   0.8098     C
H        0.607   0.5854   0.5061     H
H        0.607   0.9146   0.0061     H
H       0.6089   0.1841   0.2817     H
H       0.6089   0.3159   0.7817     H
C       0.6165   0.6548   0.6488     C
C       0.6165   0.8452   0.1488     C
H       0.6257   0.6803   0.1281     H
H       0.6257   0.8197   0.6281     H
H       0.6325   0.6515   0.2884     H
H       0.6325   0.8485   0.7884     H
H       0.6332   0.1032   0.8577     H
H       0.6332   0.3968   0.3577     H
C       0.6465   0.0072   0.8335     C
C       0.6465   0.4928   0.3335     C
H       0.6468   0.0479   0.3981     H
H       0.6468   0.4521   0.8981     H
H       0.6512    0.615   0.6478     H
H       0.6512    0.885   0.1478     H
C       0.6516   0.7188   0.6358     C
C       0.6516   0.7812   0.1358     C
C       0.6567   0.0919   0.3067     C
C       0.6567   0.4081   0.8067     C
C       0.6592   0.6102   0.3052     C
C       0.6592   0.8898   0.8052     C
C       0.6739   0.0447   0.3582     C
C       0.6739   0.4553   0.8582     C
C       0.6812   0.0206   0.0758     C
C       0.6812   0.4794   0.5758     C
H       0.6914   0.1198   0.2157     H
H       0.6914   0.3802   0.7157     H
C       0.7016   0.0863   0.2504     C
C       0.7016   0.4137   0.7504     C
O        0.712  0.08022  0.09534     O
O        0.712  0.41978  0.59534     O
C       0.7329   0.5085     0.85     C
C       0.7329   0.9915     0.35     C
O       0.7343  0.53148  0.59209     O
O       0.7343  0.96852  0.09209     O
C       0.7413   0.0074   0.8541     C
C       0.7413   0.4926   0.3541     C
C       0.7424   0.7283   0.6142     C
C       0.7424   0.7717   0.1142     C
H       0.7442   0.5428   0.8839     H
H       0.7442   0.9572   0.3839     H
C       0.7537   0.6055   0.3261     C
C       0.7537   0.8945   0.8261     C
H       0.7584    0.633   0.5955     H
H       0.7584    0.867   0.0955     H
N       0.7593   0.0349    0.243     N
N       0.7593   0.4651    0.743     N
H       0.7689   0.0483   0.8712     H
H       0.7689   0.4517   0.3712     H
C       0.7741   0.5109    0.793     C
C       0.7741   0.9891    0.293     C
O       0.7768   0.7138   0.1123     O
O       0.7768   0.7862   0.6123     O
N       0.7815   0.6727   0.5894     N
N       0.7815   0.8273   0.0894     N
H       0.7871   0.2452    0.781     H
H       0.7871   0.2548    0.281     H
H       0.7895   0.6443   0.3228     H
H       0.7895   0.8557   0.8228     H
N        0.795   0.5469   0.3509     N
N        0.795   0.9531   0.8509     N
H       0.7964   0.1737   0.7981     H
H       0.7964   0.3263   0.2981     H
H        0.804    0.037    0.001     H
H        0.804    0.463    0.501     H
H       0.8128   0.1862   0.2558     H
H       0.8128   0.3138   0.7558     H
H       0.8137   0.5955   0.4919     H
H       0.8137   0.9045   0.9919     H
H       0.8147   0.5466   0.7891     H
H       0.8147   0.9534   0.2891     H
N       0.8256   0.2288   0.2646     N
N       0.8256   0.2712   0.7646     N
Co      0.8344  0.03489   0.1566    Co
Co      0.8344  0.46511   0.6566    Co
N       0.8448   0.1493   0.7981     N
N       0.8448   0.3507   0.2981     N
H       0.8462   0.1072   0.8121     H
H       0.8462   0.3928   0.3121     H
C       0.8578   0.6755   0.5543     C
C       0.8578   0.8245   0.0543     C
C       0.8609   0.6275   0.5011     C
C       0.8609   0.8725   0.0011     C
H       0.8763   0.6514   0.7528     H
H       0.8763   0.8486   0.2528     H
C       0.8795   0.0326   0.0112     C
C       0.8795   0.4674   0.5112     C
O       0.8902  0.12408   0.1947     O
O       0.8902  0.37592   0.6947     O
H       0.8924   0.7362   0.2897     H
H       0.8924   0.7638   0.7897     H
C       0.9067   0.2449   0.7527     C
C       0.9067   0.2551   0.2527     C
O       0.9086  0.54351   0.7006     O
O       0.9086  0.95649   0.2006     O
O       0.9146  0.04014    0.074     O
O       0.9146  0.45986    0.574     O
C       0.9178   0.1764   0.7764     C
C       0.9178   0.3236   0.2764     C
O       0.9194  0.03181  0.95953     O
O       0.9194  0.46819  0.45953     O
N       0.9282   0.6249   0.4624     N
N       0.9282   0.8751   0.9624     N
C       0.9305   0.7205   0.5718     C
C       0.9305   0.7795   0.0718     C
C       0.9308   0.6747   0.7511     C
C       0.9308   0.8253   0.2511     C
H       0.9326   0.7489    0.109     H
H       0.9326   0.7511    0.609     H
C        0.941   0.7419   0.7738     C
C        0.941   0.7581   0.2738     C
Co     0.94135  0.54424  0.38753    Co
Co     0.94135  0.95576  0.88753    Co
O        0.948  0.03801  0.82108     O
O        0.948  0.46199  0.32108     O
H        0.951   0.2488   0.9583     H
H        0.951   0.2512   0.4583     H
H       0.9558    0.171   0.0462     H
H       0.9558    0.329   0.5462     H
O       0.9615  0.62184  0.31982     O
O       0.9615  0.87816  0.81982     O
C       0.9697   0.1509   0.1991     C
C       0.9697   0.3491   0.6991     C
C       0.9789   0.2229   0.2266     C
C       0.9789   0.2771   0.7266     C
C       0.9869   0.5691   0.6985     C
C       0.9869   0.9309   0.1985     C
C       0.9965   0.6712   0.4795     C
C       0.9965   0.8288   0.9795     C
C       0.9982   0.1414   0.7745     C
C       0.9982   0.3586   0.2745     C
