data_I
_chemical_name_common  '/home/zhangsd/repos/MofS-CGCNN/ML/data/TSD/clean_cifs/ZUTBUN_clean'
_cell_length_a 13.98770
_cell_length_b 11.91980
_cell_length_c 23.04540
_cell_angle_alpha 90.00000
_cell_angle_beta  104.26900
_cell_angle_gamma 90.00000
_space_group_name_H-M_alt      'P 1'


loop_
_space_group_symop_operation_xyz
  'x, y, z' 

loop_
_atom_site_label
_atom_site_fract_x
_atom_site_fract_y
_atom_site_fract_z
_atom_site_type_symbol
Ga         0.0  0.36604     0.25    Ga
Ga         0.0  0.63396     0.75    Ga
O       0.0014   0.4171  0.04509     O
O       0.0014   0.5829  0.54509     O
Ga     0.00245  0.13163  0.06175    Ga
Ga     0.00245  0.86837  0.56175    Ga
O       0.0236   0.3022  0.55082     O
O       0.0236   0.6978  0.05082     O
O       0.0255   0.1584  0.36547     O
O       0.0255   0.8416  0.86547     O
O       0.0356   0.3365  0.70726     O
O       0.0356   0.6635  0.20726     O
P      0.03911  0.44216  0.66931     P
P      0.03911  0.55784  0.16931     P
P      0.04793  0.34307  0.00613     P
P      0.04793  0.65693  0.50613     P
O       0.0624   0.4588  0.87229     O
O       0.0624   0.5412  0.37229     O
O        0.067   0.0015  0.57811     O
O        0.067   0.9985  0.07811     O
O       0.0685   0.4538  0.21047     O
O       0.0685   0.5462  0.71047     O
O       0.0881   0.2338  0.04319     O
O       0.0881   0.7662  0.54319     O
O       0.0926   0.2747  0.29491     O
O       0.0926   0.7253  0.79491     O
O       0.1137   0.1089  0.49545     O
O       0.1137   0.8911  0.99545     O
P      0.11594  0.22948  0.35888     P
P      0.11594  0.77052  0.85888     P
O       0.1271   0.4315  0.64046     O
O       0.1271   0.5685  0.14046     O
Ga     0.12785  0.45824  0.44674    Ga
Ga     0.12785  0.54176  0.94674    Ga
O       0.1336   0.3194  0.40501     O
O       0.1336   0.6806  0.90501     O
O       0.1377   0.3985  0.99149     O
O       0.1377   0.6015  0.49149     O
P      0.14912  0.07031  0.56186     P
P      0.14912  0.92969  0.06186     P
Ga      0.1594   0.3248  0.58871    Ga
Ga      0.1594   0.6752  0.08871    Ga
O       0.1688   0.1699  0.60427     O
O       0.1688   0.8301  0.10427     O
O       0.1935   0.3821  0.52171     O
O       0.1935   0.6179  0.02171     O
O       0.2038   0.1513  0.36525     O
O       0.2038   0.8487  0.86525     O
O        0.241   0.0006   0.0672     O
O        0.241   0.9994   0.5672     O
O        0.259   0.4994   0.9328     O
O        0.259   0.5006   0.4328     O
O       0.2962   0.3487  0.63475     O
O       0.2962   0.6513  0.13475     O
O       0.3065   0.1179  0.47829     O
O       0.3065   0.8821  0.97829     O
O       0.3312   0.3301  0.39573     O
O       0.3312   0.6699  0.89573     O
Ga      0.3406   0.1752  0.41129    Ga
Ga      0.3406   0.8248  0.91129    Ga
P      0.35088  0.42969  0.43814     P
P      0.35088  0.57031  0.93814     P
O       0.3623   0.1015  0.00851     O
O       0.3623   0.8985  0.50851     O
O       0.3664   0.1806  0.59499     O
O       0.3664   0.8194  0.09499     O
Ga     0.37215  0.04176  0.55326    Ga
Ga     0.37215  0.95824  0.05326    Ga
O       0.3729   0.0685  0.35954     O
O       0.3729   0.9315  0.85954     O
P      0.38406  0.27052  0.64112     P
P      0.38406  0.72948  0.14112     P
O       0.3863   0.3911  0.50455     O
O       0.3863   0.6089  0.00455     O
O       0.4074   0.2253  0.70509     O
O       0.4074   0.7747  0.20509     O
O       0.4119   0.2662  0.95681     O
O       0.4119   0.7338  0.45681     O
O       0.4315   0.0462  0.78953     O
O       0.4315   0.9538  0.28953     O
O        0.433   0.4985  0.42189     O
O        0.433   0.5015  0.92189     O
O       0.4376   0.0412  0.12771     O
O       0.4376   0.9588  0.62771     O
P      0.45207  0.15693  0.99387     P
P      0.45207  0.84307  0.49387     P
P      0.46089  0.05784  0.33069     P
P      0.46089  0.94216  0.83069     P
O       0.4644   0.1635  0.29274     O
O       0.4644   0.8365  0.79274     O
O       0.4745   0.3416  0.63453     O
O       0.4745   0.6584  0.13453     O
O       0.4764   0.1978  0.44918     O
O       0.4764   0.8022  0.94918     O
Ga     0.49755  0.36837  0.93825    Ga
Ga     0.49755  0.63163  0.43825    Ga
O       0.4986   0.0829  0.95491     O
O       0.4986   0.9171  0.45491     O
Ga         0.5  0.13396     0.75    Ga
Ga         0.5  0.86604     0.25    Ga
O       0.5014   0.0829  0.54509     O
O       0.5014   0.9171  0.04509     O
Ga     0.50245  0.36837  0.56175    Ga
Ga     0.50245  0.63163  0.06175    Ga
O       0.5236   0.1978  0.05082     O
O       0.5236   0.8022  0.55082     O
O       0.5255   0.3416  0.86547     O
O       0.5255   0.6584  0.36547     O
O       0.5356   0.1635  0.20726     O
O       0.5356   0.8365  0.70726     O
P      0.53911  0.05784  0.16931     P
P      0.53911  0.94216  0.66931     P
P      0.54793  0.15693  0.50613     P
P      0.54793  0.84307  0.00613     P
O       0.5624   0.0412  0.37229     O
O       0.5624   0.9588  0.87229     O
O        0.567   0.4985  0.07811     O
O        0.567   0.5015  0.57811     O
O       0.5685   0.0462  0.71047     O
O       0.5685   0.9538  0.21047     O
O       0.5881   0.2662  0.54319     O
O       0.5881   0.7338  0.04319     O
O       0.5926   0.2253  0.79491     O
O       0.5926   0.7747  0.29491     O
O       0.6137   0.3911  0.99545     O
O       0.6137   0.6089  0.49545     O
P      0.61594  0.27052  0.85888     P
P      0.61594  0.72948  0.35888     P
O       0.6271   0.0685  0.14046     O
O       0.6271   0.9315  0.64046     O
Ga     0.62785  0.04176  0.94674    Ga
Ga     0.62785  0.95824  0.44674    Ga
O       0.6336   0.1806  0.90501     O
O       0.6336   0.8194  0.40501     O
O       0.6377   0.1015  0.49149     O
O       0.6377   0.8985  0.99149     O
P      0.64912  0.42969  0.06186     P
P      0.64912  0.57031  0.56186     P
Ga      0.6594   0.1752  0.08871    Ga
Ga      0.6594   0.8248  0.58871    Ga
O       0.6688   0.3301  0.10427     O
O       0.6688   0.6699  0.60427     O
O       0.6935   0.1179  0.02171     O
O       0.6935   0.8821  0.52171     O
O       0.7038   0.3487  0.86525     O
O       0.7038   0.6513  0.36525     O
O        0.741   0.4994   0.5672     O
O        0.741   0.5006   0.0672     O
O        0.759   0.0006   0.4328     O
O        0.759   0.9994   0.9328     O
O       0.7962   0.1513  0.13475     O
O       0.7962   0.8487  0.63475     O
O       0.8065   0.3821  0.97829     O
O       0.8065   0.6179  0.47829     O
O       0.8312   0.1699  0.89573     O
O       0.8312   0.8301  0.39573     O
Ga      0.8406   0.3248  0.91129    Ga
Ga      0.8406   0.6752  0.41129    Ga
P      0.85088  0.07031  0.93814     P
P      0.85088  0.92969  0.43814     P
O       0.8623   0.3985  0.50851     O
O       0.8623   0.6015  0.00851     O
O       0.8664   0.3194  0.09499     O
O       0.8664   0.6806  0.59499     O
Ga     0.87215  0.45824  0.05326    Ga
Ga     0.87215  0.54176  0.55326    Ga
O       0.8729   0.4315  0.85954     O
O       0.8729   0.5685  0.35954     O
P      0.88406  0.22948  0.14112     P
P      0.88406  0.77052  0.64112     P
O       0.8863   0.1089  0.00455     O
O       0.8863   0.8911  0.50455     O
O       0.9074   0.2747  0.20509     O
O       0.9074   0.7253  0.70509     O
O       0.9119   0.2338  0.45681     O
O       0.9119   0.7662  0.95681     O
O       0.9315   0.4538  0.28953     O
O       0.9315   0.5462  0.78953     O
O        0.933   0.0015  0.92189     O
O        0.933   0.9985  0.42189     O
O       0.9376   0.4588  0.62771     O
O       0.9376   0.5412  0.12771     O
P      0.95207  0.34307  0.49387     P
P      0.95207  0.65693  0.99387     P
P      0.96089  0.44216  0.83069     P
P      0.96089  0.55784  0.33069     P
O       0.9644   0.3365  0.79274     O
O       0.9644   0.6635  0.29274     O
O       0.9745   0.1584  0.13453     O
O       0.9745   0.8416  0.63453     O
O       0.9764   0.3022  0.94918     O
O       0.9764   0.6978  0.44918     O
Ga     0.99755  0.13163  0.43825    Ga
Ga     0.99755  0.86837  0.93825    Ga
O       0.9986   0.4171  0.45491     O
O       0.9986   0.5829  0.95491     O
