data_I
_chemical_name_common  '/home/zhangsd/repos/MofS-CGCNN/ML/data/TSD/clean_cifs/ZUVTEP_clean'
_cell_length_a  9.50700
_cell_length_b  9.50700
_cell_length_c 17.44300
_cell_angle_alpha 90.00000
_cell_angle_beta  90.00000
_cell_angle_gamma 120.00000
_space_group_name_H-M_alt      'P 1'


loop_
_space_group_symop_operation_xyz
  'x, y, z' 

loop_
_atom_site_label
_atom_site_fract_x
_atom_site_fract_y
_atom_site_fract_z
_atom_site_type_symbol
La         0.0      0.0      0.0    La
La         0.0      0.0      0.5    La
O          0.0   0.2716      0.0     O
O          0.0   0.2716      0.5     O
H       0.0279   0.4307    0.581     H
H       0.0279   0.4307    0.919     H
O       0.0418   0.8272   0.5953     O
O       0.0418   0.8272   0.9047     O
C       0.0941   0.4009   0.5514     C
C       0.0941   0.4009   0.9486     C
C       0.1651    0.815   0.6046     C
C       0.1651    0.815   0.8954     C
H       0.1697   0.4947   0.5227     H
H       0.1697   0.4947   0.9773     H
O       0.1728   0.2146   0.5953     O
O       0.1728   0.2146   0.9047     O
O       0.1795   0.7295   0.6549     O
O       0.1795   0.7295   0.8451     O
C        0.185   0.3501   0.6046     C
C        0.185   0.3501   0.8954     C
O       0.2146   0.1728   0.0953     O
O       0.2146   0.1728   0.4047     O
O       0.2705     0.45   0.6549     O
O       0.2705     0.45   0.8451     O
O       0.2716      0.0      0.0     O
O       0.2716      0.0      0.5     O
C       0.3068   0.9059   0.5514     C
C       0.3068   0.9059   0.9486     C
H        0.325   0.8303   0.5227     H
H        0.325   0.8303   0.9773     H
La     0.33333  0.66667     0.75    La
C       0.3501    0.185   0.1046     C
C       0.3501    0.185   0.3954     C
C       0.4009   0.0941   0.0514     C
C       0.4009   0.0941   0.4486     C
H       0.4028   0.9721    0.581     H
H       0.4028   0.9721    0.919     H
H       0.4307   0.0279    0.081     H
H       0.4307   0.0279    0.419     H
O         0.45   0.2705   0.1549     O
O         0.45   0.2705   0.3451     O
H       0.4947   0.1697   0.0227     H
H       0.4947   0.1697   0.4773     H
H       0.5053    0.675   0.5227     H
H       0.5053    0.675   0.9773     H
O         0.55   0.8205   0.6549     O
O         0.55   0.8205   0.8451     O
H       0.5693   0.5972    0.581     H
H       0.5693   0.5972    0.919     H
H       0.5972   0.5693    0.081     H
H       0.5972   0.5693    0.419     H
C       0.5991   0.6932   0.5514     C
C       0.5991   0.6932   0.9486     C
C       0.6499   0.8349   0.6046     C
C       0.6499   0.8349   0.8954     C
La     0.66667  0.33333     0.25    La
H        0.675   0.5053   0.0227     H
H        0.675   0.5053   0.4773     H
C       0.6932   0.5991   0.0514     C
C       0.6932   0.5991   0.4486     C
O       0.7284   0.7284      0.0     O
O       0.7284   0.7284      0.5     O
O       0.7295   0.1795   0.1549     O
O       0.7295   0.1795   0.3451     O
O       0.7854   0.9582   0.5953     O
O       0.7854   0.9582   0.9047     O
C        0.815   0.1651   0.1046     C
C        0.815   0.1651   0.3954     C
O       0.8205     0.55   0.1549     O
O       0.8205     0.55   0.3451     O
O       0.8272   0.0418   0.0953     O
O       0.8272   0.0418   0.4047     O
H       0.8303    0.325   0.0227     H
H       0.8303    0.325   0.4773     H
C       0.8349   0.6499   0.1046     C
C       0.8349   0.6499   0.3954     C
C       0.9059   0.3068   0.0514     C
C       0.9059   0.3068   0.4486     C
O       0.9582   0.7854   0.0953     O
O       0.9582   0.7854   0.4047     O
H       0.9721   0.4028    0.081     H
H       0.9721   0.4028    0.419     H
