data_I
_chemical_name_common  '/home/zhangsd/repos/MofS-CGCNN/ML/data/TSD/clean_cifs/ZUWXUM_clean'
_cell_length_a 20.40310
_cell_length_b 20.40310
_cell_length_c 20.40310
_cell_angle_alpha 90.00000
_cell_angle_beta  90.00000
_cell_angle_gamma 90.00000
_space_group_name_H-M_alt      'P 1'


loop_
_space_group_symop_operation_xyz
  'x, y, z' 

loop_
_atom_site_label
_atom_site_fract_x
_atom_site_fract_y
_atom_site_fract_z
_atom_site_type_symbol
In         0.0     0.25    0.875    In
In         0.0     0.75    0.625    In
C       0.0045   0.0309   0.0983     C
C       0.0045   0.9691   0.4017     C
C       0.0097   0.4164   0.0569     C
C       0.0097   0.5836   0.4431     C
C       0.0148   0.1548   0.9607     C
C       0.0148   0.8452   0.5393     C
C       0.0309   0.0983   0.0045     C
C       0.0309   0.9017   0.4955     C
O       0.0319   0.4636   0.3135     O
O       0.0319   0.5364   0.1865     O
O       0.0364   0.3135   0.9681     O
O       0.0364   0.6865   0.5319     O
C       0.0393   0.4852   0.1548     C
C       0.0393   0.5148   0.3452     C
H       0.0467   0.3909   0.0646     H
H       0.0467   0.6091   0.4354     H
O        0.054   0.1678   0.9141     O
O        0.054   0.8322   0.5859     O
C       0.0569   0.0097   0.4164     C
C       0.0569   0.9903   0.0836     C
O       0.0635   0.2136   0.7819     O
O       0.0635   0.7864   0.7181     O
H       0.0646   0.0467   0.3909     H
H       0.0646   0.9533   0.1091     H
O       0.0822    0.304   0.8359     O
O       0.0822    0.696   0.6641     O
C       0.0836   0.0569   0.9903     C
C       0.0836   0.9431   0.5097     C
O       0.0859    0.446   0.1678     O
O       0.0859    0.554   0.3322     O
C       0.0952   0.2648   0.7893     C
C       0.0952   0.7352   0.7107     C
C       0.0983   0.0045   0.0309     C
C       0.0983   0.9955   0.4691     C
H       0.1091   0.0646   0.9533     H
H       0.1091   0.9354   0.5467     H
In       0.125      0.5     0.25    In
H       0.1409   0.2033   0.6854     H
H       0.1409   0.7967   0.8146     H
C       0.1517   0.2809   0.7455     C
C       0.1517   0.7191   0.7545     C
C       0.1548   0.0393   0.4852     C
C       0.1548   0.9607   0.0148     C
O       0.1641   0.4178    0.304     O
O       0.1641   0.5822    0.196     O
C       0.1664   0.2403   0.6931     C
C       0.1664   0.7597   0.8069     C
O       0.1678   0.0859    0.446     O
O       0.1678   0.9141    0.054     O
H       0.1854   0.3591   0.7967     H
H       0.1854   0.6409   0.7033     H
O       0.1865   0.0319   0.5364     O
O       0.1865   0.9681   0.9636     O
C       0.1931   0.3336   0.7597     C
C       0.1931   0.6664   0.7403     C
O        0.196   0.1641   0.5822     O
O        0.196   0.8359   0.9178     O
H       0.2033   0.3146   0.3591     H
H       0.2033   0.6854   0.1409     H
C       0.2107   0.4048   0.2648     C
C       0.2107   0.5952   0.2352     C
O       0.2136   0.2181   0.4365     O
O       0.2136   0.7819   0.0635     O
O       0.2181   0.4365   0.2136     O
O       0.2181   0.5635   0.2864     O
C       0.2191   0.2545   0.6517     C
C       0.2191   0.7455   0.8483     C
C       0.2352   0.2107   0.5952     C
C       0.2352   0.7893   0.9048     C
C       0.2403   0.3069   0.3336     C
C       0.2403   0.6931   0.1664     C
C       0.2455   0.3483   0.7191     C
C       0.2455   0.6517   0.7809     C
In        0.25    0.125      0.5    In
In        0.25    0.875      0.0    In
C       0.2545   0.3483   0.2809     C
C       0.2545   0.6517   0.2191     C
C       0.2597   0.3069   0.6664     C
C       0.2597   0.6931   0.8336     C
C       0.2648   0.2107   0.4048     C
C       0.2648   0.7893   0.0952     C
C       0.2809   0.2545   0.3483     C
C       0.2809   0.7455   0.1517     C
O       0.2819   0.4365   0.7864     O
O       0.2819   0.5635   0.7136     O
O       0.2864   0.2181   0.5635     O
O       0.2864   0.7819   0.9365     O
C       0.2893   0.4048   0.7352     C
C       0.2893   0.5952   0.7648     C
H       0.2967   0.3146   0.6409     H
H       0.2967   0.6854   0.8591     H
O        0.304   0.1641   0.4178     O
O        0.304   0.8359   0.0822     O
C       0.3069   0.3336   0.2403     C
C       0.3069   0.6664   0.2597     C
O       0.3135   0.0319   0.4636     O
O       0.3135   0.9681   0.0364     O
H       0.3146   0.3591   0.2033     H
H       0.3146   0.6409   0.2967     H
O       0.3322   0.0859    0.554     O
O       0.3322   0.9141    0.946     O
C       0.3336   0.2403   0.3069     C
C       0.3336   0.7597   0.1931     C
O       0.3359   0.4178    0.696     O
O       0.3359   0.5822    0.804     O
C       0.3452   0.0393   0.5148     C
C       0.3452   0.9607   0.9852     C
C       0.3483   0.2809   0.2545     C
C       0.3483   0.7191   0.2455     C
H       0.3591   0.2033   0.3146     H
H       0.3591   0.7967   0.1854     H
In       0.375      0.5     0.75    In
H       0.3909   0.0646   0.0467     H
H       0.3909   0.9354   0.4533     H
C       0.4017   0.0045   0.9691     C
C       0.4017   0.9955   0.5309     C
C       0.4048   0.2648   0.2107     C
C       0.4048   0.7352   0.2893     C
O       0.4141    0.446   0.8322     O
O       0.4141    0.554   0.6678     O
C       0.4164   0.0569   0.0097     C
C       0.4164   0.9431   0.4903     C
O       0.4178    0.304   0.1641     O
O       0.4178    0.696   0.3359     O
H       0.4354   0.0467   0.6091     H
H       0.4354   0.9533   0.8909     H
O       0.4365   0.2136   0.2181     O
O       0.4365   0.7864   0.2819     O
C       0.4431   0.0097   0.5836     C
C       0.4431   0.9903   0.9164     C
O        0.446   0.1678   0.0859     O
O        0.446   0.8322   0.4141     O
H       0.4533   0.3909   0.9354     H
H       0.4533   0.6091   0.5646     H
C       0.4607   0.4852   0.8452     C
C       0.4607   0.5148   0.6548     C
O       0.4636   0.3135   0.0319     O
O       0.4636   0.6865   0.4681     O
O       0.4681   0.4636   0.6865     O
O       0.4681   0.5364   0.8135     O
C       0.4691   0.0983   0.9955     C
C       0.4691   0.9017   0.5045     C
C       0.4852   0.1548   0.0393     C
C       0.4852   0.8452   0.4607     C
C       0.4903   0.4164   0.9431     C
C       0.4903   0.5836   0.5569     C
C       0.4955   0.0309   0.9017     C
C       0.4955   0.9691   0.5983     C
In         0.5     0.25    0.125    In
In         0.5     0.75    0.375    In
C       0.5045   0.4691   0.9017     C
C       0.5045   0.5309   0.5983     C
C       0.5097   0.0836   0.9431     C
C       0.5097   0.9164   0.5569     C
C       0.5148   0.3452   0.0393     C
C       0.5148   0.6548   0.4607     C
C       0.5309   0.4017   0.9955     C
C       0.5309   0.5983   0.5045     C
O       0.5319   0.0364   0.6865     O
O       0.5319   0.9636   0.8135     O
O       0.5364   0.1865   0.0319     O
O       0.5364   0.8135   0.4681     O
C       0.5393   0.0148   0.8452     C
C       0.5393   0.9852   0.6548     C
H       0.5467   0.1091   0.9354     H
H       0.5467   0.8909   0.5646     H
O        0.554   0.3322   0.0859     O
O        0.554   0.6678   0.4141     O
C       0.5569   0.4903   0.5836     C
C       0.5569   0.5097   0.9164     C
O       0.5635   0.2864   0.2181     O
O       0.5635   0.7136   0.2819     O
H       0.5646   0.4533   0.6091     H
H       0.5646   0.5467   0.8909     H
O       0.5822    0.196   0.1641     O
O       0.5822    0.804   0.3359     O
C       0.5836   0.4431   0.0097     C
C       0.5836   0.5569   0.4903     C
O       0.5859    0.054   0.8322     O
O       0.5859    0.946   0.6678     O
C       0.5952   0.2352   0.2107     C
C       0.5952   0.7648   0.2893     C
C       0.5983   0.4955   0.9691     C
C       0.5983   0.5045   0.5309     C
H       0.6091   0.4354   0.0467     H
H       0.6091   0.5646   0.4533     H
In       0.625      0.0     0.75    In
H       0.6409   0.2967   0.3146     H
H       0.6409   0.7033   0.1854     H
C       0.6517   0.2191   0.2545     C
C       0.6517   0.7809   0.2455     C
C       0.6548   0.4607   0.5148     C
C       0.6548   0.5393   0.9852     C
O       0.6641   0.0822    0.696     O
O       0.6641   0.9178    0.804     O
C       0.6664   0.2597   0.3069     C
C       0.6664   0.7403   0.1931     C
O       0.6678   0.4141    0.554     O
O       0.6678   0.5859    0.946     O
H       0.6854   0.1409   0.2033     H
H       0.6854   0.8591   0.2967     H
O       0.6865   0.4681   0.4636     O
O       0.6865   0.5319   0.0364     O
C       0.6931   0.1664   0.2403     C
C       0.6931   0.8336   0.2597     C
O        0.696   0.3359   0.4178     O
O        0.696   0.6641   0.0822     O
H       0.7033   0.1854   0.6409     H
H       0.7033   0.8146   0.8591     H
C       0.7107   0.0952   0.7352     C
C       0.7107   0.9048   0.7648     C
O       0.7136   0.2819   0.5635     O
O       0.7136   0.7181   0.9365     O
O       0.7181   0.0635   0.7864     O
O       0.7181   0.9365   0.7136     O
C       0.7191   0.2455   0.3483     C
C       0.7191   0.7545   0.1517     C
C       0.7352   0.2893   0.4048     C
C       0.7352   0.7107   0.0952     C
C       0.7403   0.1931   0.6664     C
C       0.7403   0.8069   0.8336     C
C       0.7455   0.1517   0.2809     C
C       0.7455   0.8483   0.2191     C
In        0.75    0.375      0.5    In
In        0.75    0.625      0.0    In
C       0.7545   0.1517   0.7191     C
C       0.7545   0.8483   0.7809     C
C       0.7597   0.1931   0.3336     C
C       0.7597   0.8069   0.1664     C
C       0.7648   0.2893   0.5952     C
C       0.7648   0.7107   0.9048     C
C       0.7809   0.2455   0.6517     C
C       0.7809   0.7545   0.8483     C
O       0.7819   0.0635   0.2136     O
O       0.7819   0.9365   0.2864     O
O       0.7864   0.2819   0.4365     O
O       0.7864   0.7181   0.0635     O
C       0.7893   0.0952   0.2648     C
C       0.7893   0.9048   0.2352     C
H       0.7967   0.1854   0.3591     H
H       0.7967   0.8146   0.1409     H
O        0.804   0.3359   0.5822     O
O        0.804   0.6641   0.9178     O
C       0.8069   0.1664   0.7597     C
C       0.8069   0.8336   0.7403     C
O       0.8135   0.4681   0.5364     O
O       0.8135   0.5319   0.9636     O
H       0.8146   0.1409   0.7967     H
H       0.8146   0.8591   0.7033     H
O       0.8322   0.4141    0.446     O
O       0.8322   0.5859    0.054     O
C       0.8336   0.2597   0.6931     C
C       0.8336   0.7403   0.8069     C
O       0.8359   0.0822    0.304     O
O       0.8359   0.9178    0.196     O
C       0.8452   0.4607   0.4852     C
C       0.8452   0.5393   0.0148     C
C       0.8483   0.2191   0.7455     C
C       0.8483   0.7809   0.7545     C
H       0.8591   0.2967   0.6854     H
H       0.8591   0.7033   0.8146     H
In       0.875      0.0     0.25    In
H       0.8909   0.4354   0.9533     H
H       0.8909   0.5646   0.5467     H
C       0.9017   0.4955   0.0309     C
C       0.9017   0.5045   0.4691     C
C       0.9048   0.2352   0.7893     C
C       0.9048   0.7648   0.7107     C
O       0.9141    0.054   0.1678     O
O       0.9141    0.946   0.3322     O
C       0.9164   0.4431   0.9903     C
C       0.9164   0.5569   0.5097     C
O       0.9178    0.196   0.8359     O
O       0.9178    0.804   0.6641     O
H       0.9354   0.4533   0.3909     H
H       0.9354   0.5467   0.1091     H
O       0.9365   0.2864   0.7819     O
O       0.9365   0.7136   0.7181     O
C       0.9431   0.4903   0.4164     C
C       0.9431   0.5097   0.0836     C
O        0.946   0.3322   0.9141     O
O        0.946   0.6678   0.5859     O
H       0.9533   0.1091   0.0646     H
H       0.9533   0.8909   0.4354     H
C       0.9607   0.0148   0.1548     C
C       0.9607   0.9852   0.3452     C
O       0.9636   0.1865   0.9681     O
O       0.9636   0.8135   0.5319     O
O       0.9681   0.0364   0.3135     O
O       0.9681   0.9636   0.1865     O
C       0.9691   0.4017   0.0045     C
C       0.9691   0.5983   0.4955     C
C       0.9852   0.3452   0.9607     C
C       0.9852   0.6548   0.5393     C
C       0.9903   0.0836   0.0569     C
C       0.9903   0.9164   0.4431     C
C       0.9955   0.4691   0.0983     C
C       0.9955   0.5309   0.4017     C
