data_I
_chemical_name_common  '/home/zhangsd/repos/MofS-CGCNN/ML/data/TSD/clean_cifs/ZUZZEB_clean'
_cell_length_a 29.31100
_cell_length_b 29.31100
_cell_length_c 29.31100
_cell_angle_alpha 90.00000
_cell_angle_beta  90.00000
_cell_angle_gamma 90.00000
_space_group_name_H-M_alt      'P 1'


loop_
_space_group_symop_operation_xyz
  'x, y, z' 

loop_
_atom_site_label
_atom_site_fract_x
_atom_site_fract_y
_atom_site_fract_z
_atom_site_type_symbol
H       0.0045   0.6999   0.3041     H
H       0.0045   0.8001   0.8041     H
C       0.0087    0.672   0.2895     C
C       0.0087    0.828   0.7895     C
C       0.0186   0.7458   0.1667     C
C       0.0186   0.7542   0.6667     C
H       0.0209   0.7189   0.7247     H
H       0.0209   0.7811   0.2247     H
C       0.0212   0.1076   0.2485     C
C       0.0212   0.3924   0.7485     C
C       0.0234   0.5905   0.2449     C
C       0.0234   0.9095   0.7449     C
H       0.0282   0.2443   0.9122     H
H       0.0282   0.2557   0.4122     H
H       0.0283   0.5641    0.228     H
H       0.0283   0.9359    0.728     H
C       0.0292   0.1487   0.2282     C
C       0.0292   0.3513   0.7282     C
C       0.0303   0.2494   0.8442     C
C       0.0303   0.2506   0.3442     C
H       0.0328   0.7115   0.1096     H
H       0.0328   0.7885   0.6096     H
C       0.0382   0.7358   0.7042     C
C       0.0382   0.7642   0.2042     C
H       0.0459   0.0902   0.2582     H
H       0.0459   0.4098   0.7582     H
C       0.0459   0.7231    0.136     C
C       0.0459   0.7769    0.636     C
C       0.0478    0.245   0.8873     C
C       0.0478    0.255   0.3873     C
H       0.0508    0.242     0.28     H
H       0.0508    0.258     0.78     H
C       0.0516   0.6544   0.2854     C
C       0.0516   0.8456   0.7854     C
C       0.0592   0.6136   0.2637     C
C       0.0592   0.8864   0.7637     C
C       0.0622   0.2471   0.3092     C
C       0.0622   0.2529   0.8092     C
H       0.0641    0.228   0.4717     H
H       0.0641    0.272   0.9717     H
H       0.0762   0.6704   0.2975     H
H       0.0762   0.8296   0.7975     H
C       0.0781   0.1664   0.2243     C
C       0.0781   0.3336   0.7243     C
O      0.08211   0.2033   0.2033     O
O      0.08211   0.2967   0.7033     O
C       0.0859   0.7426    0.712     C
C       0.0859   0.7574    0.212     C
H       0.0878   0.5282   0.2557     H
H       0.0878   0.9718   0.7557     H
H       0.0902   0.2418   0.5459     H
H       0.0902   0.2582   0.0459     H
C       0.0905   0.2449   0.4766     C
C       0.0905   0.2551   0.9766     C
C       0.0924   0.7169    0.143     C
C       0.0924   0.7831    0.643     C
C       0.0939   0.2417   0.8943     C
C       0.0939   0.2583   0.3943     C
H       0.0992   0.7311   0.7384     H
H       0.0992   0.7689   0.2384     H
C       0.1057   0.5939   0.2583     C
C       0.1057   0.9061   0.7583     C
C       0.1076   0.2485   0.0212     C
N       0.1076   0.2498   0.8132     N
N       0.1076   0.2502   0.3132     N
C       0.1076   0.2515   0.5212     C
O      0.10805  0.14366   0.2439     O
O      0.10805  0.35634   0.7439     O
H       0.1095    0.701   0.1215     H
H       0.1095    0.799   0.6215     H
H       0.1096   0.0328   0.7115     H
H       0.1096   0.4672   0.2115     H
C       0.1127   0.5478    0.255     C
C       0.1127   0.9522    0.755     C
C       0.1128   0.7336   0.1805     C
C       0.1128   0.7664   0.6805     C
C       0.1136   0.2363   0.9408     C
C       0.1136   0.2637   0.4408     C
H       0.1215   0.1095    0.701     H
H       0.1215   0.3905    0.201     H
C       0.1228   0.2446   0.8575     C
C       0.1228   0.2554   0.3575     C
C        0.136   0.0459   0.7231     C
C        0.136   0.4541   0.2231     C
H       0.1373    0.654   0.2572     H
H       0.1373    0.846   0.7572     H
C       0.1425   0.6228   0.2554     C
C       0.1425   0.8772   0.7554     C
C        0.143   0.0924   0.7169     C
C        0.143   0.4076   0.2169     C
O      0.14366   0.2439  0.10805     O
O      0.14366   0.2561  0.60805     O
Yb     0.14433  0.24537  0.18293    Yb
Yb     0.14433  0.25463  0.68293    Yb
C       0.1487   0.2282   0.0292     C
C       0.1487   0.2718   0.5292     C
H        0.154   0.2428   0.8627     H
H        0.154   0.2572   0.3627     H
C       0.1544   0.2146   0.9484     C
C       0.1544   0.2854   0.4484     C
C       0.1558   0.5303   0.2506     C
C       0.1558   0.9697   0.7506     C
H      0.15587  0.15587  0.15587     H
H      0.15587  0.34413  0.65587     H
O       0.1574  0.18479   0.7075     O
O       0.1574  0.31521   0.2075     O
C       0.1593   0.7372   0.1838     C
C       0.1593   0.7628   0.6838     C
H         0.16   0.2321   0.2721     H
H         0.16   0.2679   0.7721     H
C       0.1664   0.2243   0.0781     C
C       0.1664   0.2757   0.5781     C
C       0.1667   0.0186   0.7458     C
C       0.1667   0.4814   0.2458     C
H       0.1704   0.2025   0.9238     H
H       0.1704   0.2975   0.4238     H
C        0.172   0.2105   0.9913     C
C        0.172   0.2895   0.4913     C
O      0.17257  0.17257  0.17257     O
O      0.17257  0.32743  0.67257     O
O      0.17526  0.22326    0.249     O
O      0.17526  0.27674    0.749     O
C       0.1805   0.1128   0.7336     C
C       0.1805   0.3872   0.2336     C
O       0.1806   0.7499   0.2198     O
O       0.1806   0.7501   0.7198     O
Yb     0.18293  0.14433  0.24537    Yb
Yb     0.18293  0.35567  0.74537    Yb
C       0.1838   0.1593   0.7372     C
C       0.1838   0.3407   0.2372     C
O      0.18479   0.7075   0.1574     O
O      0.18479   0.7925   0.6574     O
N       0.1868   0.6076   0.2502     N
N       0.1868   0.8924   0.7502     N
C       0.1908   0.5622   0.2471     C
C       0.1908   0.9378   0.7471     C
H       0.1959   0.5045   0.6999     H
H       0.1959   0.9955   0.1999     H
H       0.1999   0.1959   0.9955     H
H       0.1999   0.3041   0.4955     H
H        0.201   0.1215   0.3905     H
H        0.201   0.3785   0.8905     H
H       0.2025   0.5762   0.6704     H
H       0.2025   0.9238   0.1704     H
O       0.2033  0.08211   0.2033     O
O       0.2033   0.2033  0.08211     O
O       0.2033   0.2967  0.58211     O
O       0.2033  0.41789   0.7033     O
C       0.2042   0.0382   0.7642     C
C       0.2042   0.4618   0.2642     C
O       0.2075   0.1574  0.31521     O
O       0.2075   0.3426  0.81521     O
C       0.2105   0.5087    0.672     C
C       0.2105   0.9913    0.172     C
H       0.2115   0.1096   0.4672     H
H       0.2115   0.3904   0.9672     H
C        0.212   0.0859   0.7574     C
C        0.212   0.4141   0.2574     C
C       0.2146   0.5516   0.6544     C
C       0.2146   0.9484   0.1544     C
C       0.2169    0.143   0.4076     C
C       0.2169    0.357   0.9076     C
H       0.2189   0.7247   0.4791     H
H       0.2189   0.7753   0.9791     H
O       0.2198   0.1806   0.7499     O
O       0.2198   0.3194   0.2499     O
H         0.22   0.5508    0.242     H
H         0.22   0.9492    0.742     H
C       0.2231    0.136   0.4541     C
C       0.2231    0.364   0.9541     C
O      0.22326    0.249  0.17526     O
O      0.22326    0.251  0.67526     O
C       0.2243   0.0781   0.1664     C
C       0.2243   0.4219   0.6664     C
H       0.2247   0.0209   0.7811     H
H       0.2247   0.4791   0.2811     H
H       0.2279     0.66   0.2321     H
H       0.2279     0.84   0.7321     H
H        0.228   0.0283   0.5641     H
H        0.228   0.4717   0.0641     H
C       0.2282   0.0292   0.1487     C
C       0.2282   0.4708   0.6487     C
H       0.2311   0.7384   0.4008     H
H       0.2311   0.7616   0.9008     H
H       0.2321   0.2279     0.66     H
H       0.2321   0.2721     0.16     H
C       0.2336   0.1805   0.3872     C
C       0.2336   0.3195   0.8872     C
C       0.2358   0.7042   0.4618     C
C       0.2358   0.7958   0.9618     C
C       0.2363   0.5592   0.6136     C
C       0.2363   0.9408   0.1136     C
C       0.2372   0.1838   0.3407     C
C       0.2372   0.3162   0.8407     C
H       0.2384   0.0992   0.7689     H
H       0.2384   0.4008   0.2689     H
C       0.2417   0.6057   0.5939     C
C       0.2417   0.8943   0.0939     C
H       0.2418   0.5459   0.0902     H
H       0.2418   0.9541   0.5902     H
H        0.242     0.22   0.5508     H
H        0.242     0.28   0.0508     H
C       0.2426    0.712   0.4141     C
C       0.2426    0.788   0.9141     C
H       0.2428   0.6373    0.654     H
H       0.2428   0.8627    0.154     H
O       0.2439  0.10805  0.14366     O
O       0.2439  0.39195  0.64366     O
H       0.2443   0.5878   0.5282     H
H       0.2443   0.9122   0.0282     H
C       0.2446   0.6425   0.6228     C
C       0.2446   0.8575   0.1228     C
C       0.2449   0.0234   0.5905     C
C       0.2449   0.4766   0.0905     C
C        0.245   0.6127   0.5478     C
C        0.245   0.8873   0.0478     C
Yb     0.24537  0.18293  0.14433    Yb
Yb     0.24537  0.31707  0.64433    Yb
C       0.2458   0.1667   0.4814     C
C       0.2458   0.3333   0.9814     C
C       0.2471   0.1908   0.5622     C
C       0.2471   0.3092   0.0622     C
C       0.2485   0.0212   0.1076     C
C       0.2485   0.4788   0.6076     C
O        0.249  0.17526  0.22326     O
O        0.249  0.32474  0.72326     O
C       0.2494   0.6558   0.5303     C
C       0.2494   0.8442   0.0303     C
Yb     0.24954  0.24954  0.24954    Yb
Yb     0.24954  0.25046  0.74954    Yb
N       0.2498   0.6868   0.6076     N
N       0.2498   0.8132   0.1076     N
O       0.2499   0.2198   0.3194     O
O       0.2499   0.2802   0.8194     O
O       0.2501   0.7198   0.3194     O
O       0.2501   0.7802   0.8194     O
N       0.2502   0.1868   0.6076     N
N       0.2502   0.3132   0.1076     N
Yb     0.25046  0.74954  0.24954    Yb
Yb     0.25046  0.75046  0.74954    Yb
C       0.2506   0.1558   0.5303     C
C       0.2506   0.3442   0.0303     C
O        0.251  0.67526  0.22326     O
O        0.251  0.82474  0.72326     O
C       0.2515   0.5212   0.1076     C
C       0.2515   0.9788   0.6076     C
C       0.2529   0.6908   0.5622     C
C       0.2529   0.8092   0.0622     C
C       0.2542   0.6667   0.4814     C
C       0.2542   0.8333   0.9814     C
Yb     0.25463  0.68293  0.14433    Yb
Yb     0.25463  0.81707  0.64433    Yb
C        0.255   0.1127   0.5478     C
C        0.255   0.3873   0.0478     C
C       0.2551   0.5234   0.5905     C
C       0.2551   0.9766   0.0905     C
C       0.2554   0.1425   0.6228     C
C       0.2554   0.3575   0.1228     C
H       0.2557   0.0878   0.5282     H
H       0.2557   0.4122   0.0282     H
O       0.2561  0.60805  0.14366     O
O       0.2561  0.89195  0.64366     O
H       0.2572   0.1373    0.654     H
H       0.2572   0.3627    0.154     H
C       0.2574    0.212   0.4141     C
C       0.2574    0.288   0.9141     C
H        0.258     0.72   0.5508     H
H        0.258     0.78   0.0508     H
H       0.2582   0.0459   0.0902     H
H       0.2582   0.4541   0.5902     H
C       0.2583   0.1057   0.5939     C
C       0.2583   0.3943   0.0939     C
H       0.2616   0.5992   0.7689     H
H       0.2616   0.9008   0.2689     H
C       0.2628   0.6838   0.3407     C
C       0.2628   0.8162   0.8407     C
C       0.2637   0.0592   0.6136     C
C       0.2637   0.4408   0.1136     C
C       0.2642   0.2042   0.4618     C
C       0.2642   0.2958   0.9618     C
C       0.2664   0.6805   0.3872     C
C       0.2664   0.8195   0.8872     C
H       0.2679   0.7279     0.66     H
H       0.2679   0.7721     0.16     H
H       0.2689   0.2384   0.4008     H
H       0.2689   0.2616   0.9008     H
C       0.2718   0.5292   0.1487     C
C       0.2718   0.9708   0.6487     C
H        0.272   0.5283   0.5641     H
H        0.272   0.9717   0.0641     H
H       0.2721     0.16   0.2321     H
H       0.2721     0.34   0.7321     H
H       0.2753   0.5209   0.7811     H
H       0.2753   0.9791   0.2811     H
C       0.2757   0.5781   0.1664     C
C       0.2757   0.9219   0.6664     C
O      0.27674    0.749  0.17526     O
O      0.27674    0.751  0.67526     O
C       0.2769    0.636   0.4541     C
C       0.2769    0.864   0.9541     C
H         0.28   0.0508    0.242     H
H         0.28   0.4492    0.742     H
O       0.2802   0.6806   0.7499     O
O       0.2802   0.8194   0.2499     O
H       0.2811   0.2247   0.4791     H
H       0.2811   0.2753   0.9791     H
C       0.2831    0.643   0.4076     C
C       0.2831    0.857   0.9076     C
C       0.2854   0.0516   0.6544     C
C       0.2854   0.4484   0.1544     C
C        0.288   0.5859   0.7574     C
C        0.288   0.9141   0.2574     C
H       0.2885   0.6096   0.4672     H
H       0.2885   0.8904   0.9672     H
C       0.2895   0.0087    0.672     C
C       0.2895   0.4913    0.172     C
O       0.2925   0.6574  0.31521     O
O       0.2925   0.8426  0.81521     O
C       0.2958   0.5382   0.7642     C
C       0.2958   0.9618   0.2642     C
O       0.2967  0.58211   0.2033     O
O       0.2967   0.7033  0.08211     O
O       0.2967   0.7967  0.58211     O
O       0.2967  0.91789   0.7033     O
H       0.2975   0.0762   0.6704     H
H       0.2975   0.4238   0.1704     H
H        0.299   0.6215   0.3905     H
H        0.299   0.8785   0.8905     H
H       0.3001   0.6959   0.9955     H
H       0.3001   0.8041   0.4955     H
H       0.3041   0.0045   0.6999     H
H       0.3041   0.4955   0.1999     H
C       0.3092   0.0622   0.2471     C
C       0.3092   0.4378   0.7471     C
N       0.3132   0.1076   0.2502     N
N       0.3132   0.3924   0.7502     N
O      0.31521   0.2075   0.1574     O
O      0.31521   0.2925   0.6574     O
C       0.3162   0.6593   0.7372     C
C       0.3162   0.8407   0.2372     C
Yb     0.31707  0.64433  0.24537    Yb
Yb     0.31707  0.85567  0.74537    Yb
O       0.3194   0.2499   0.2198     O
O       0.3194   0.2501   0.7198     O
C       0.3195   0.6128   0.7336     C
C       0.3195   0.8872   0.2336     C
O      0.32474  0.72326    0.249     O
O      0.32474  0.77674    0.749     O
O      0.32743  0.67257  0.17257     O
O      0.32743  0.82743  0.67257     O
C        0.328   0.7105   0.9913     C
C        0.328   0.7895   0.4913     C
H       0.3296   0.7025   0.9238     H
H       0.3296   0.7975   0.4238     H
C       0.3333   0.5186   0.7458     C
C       0.3333   0.9814   0.2458     C
C       0.3336   0.7243   0.0781     C
C       0.3336   0.7757   0.5781     C
H         0.34   0.7321   0.2721     H
H         0.34   0.7679   0.7721     H
C       0.3407   0.2372   0.1838     C
C       0.3407   0.2628   0.6838     C
O       0.3426  0.68479   0.7075     O
O       0.3426  0.81521   0.2075     O
H      0.34413  0.65587  0.15587     H
H      0.34413  0.84413  0.65587     H
C       0.3442   0.0303   0.2506     C
C       0.3442   0.4697   0.7506     C
C       0.3456   0.7146   0.9484     C
C       0.3456   0.7854   0.4484     C
H        0.346   0.7428   0.8627     H
H        0.346   0.7572   0.3627     H
C       0.3513   0.7282   0.0292     C
C       0.3513   0.7718   0.5292     C
Yb     0.35567  0.74537  0.18293    Yb
Yb     0.35567  0.75463  0.68293    Yb
O      0.35634   0.7439  0.10805     O
O      0.35634   0.7561  0.60805     O
C        0.357   0.5924   0.7169     C
C        0.357   0.9076   0.2169     C
C       0.3575   0.1228   0.2554     C
C       0.3575   0.3772   0.7554     C
H       0.3627    0.154   0.2572     H
H       0.3627    0.346   0.7572     H
C        0.364   0.5459   0.7231     C
C        0.364   0.9541   0.2231     C
C       0.3772   0.7446   0.8575     C
C       0.3772   0.7554   0.3575     C
H       0.3785   0.6095    0.701     H
H       0.3785   0.8905    0.201     H
C       0.3864   0.7363   0.9408     C
C       0.3864   0.7637   0.4408     C
C       0.3872   0.2336   0.1805     C
C       0.3872   0.2664   0.6805     C
C       0.3873   0.0478    0.255     C
C       0.3873   0.4522    0.755     C
H       0.3904   0.5328   0.7115     H
H       0.3904   0.9672   0.2115     H
H       0.3905    0.201   0.1215     H
H       0.3905    0.299   0.6215     H
O      0.39195  0.64366   0.2439     O
O      0.39195  0.85634   0.7439     O
C       0.3924   0.7485   0.0212     C
N       0.3924   0.7498   0.8132     N
N       0.3924   0.7502   0.3132     N
C       0.3924   0.7515   0.5212     C
C       0.3943   0.0939   0.2583     C
C       0.3943   0.4061   0.7583     C
H       0.4008   0.2311   0.7384     H
H       0.4008   0.2689   0.2384     H
C       0.4061   0.7417   0.8943     C
C       0.4061   0.7583   0.3943     C
C       0.4076   0.2169    0.143     C
C       0.4076   0.2831    0.643     C
C       0.4095   0.7449   0.4766     C
C       0.4095   0.7551   0.9766     C
H       0.4098   0.7418   0.5459     H
H       0.4098   0.7582   0.0459     H
H       0.4122   0.0282   0.2557     H
H       0.4122   0.4718   0.7557     H
C       0.4141   0.2426    0.712     C
C       0.4141   0.2574    0.212     C
O      0.41789   0.7033   0.2033     O
O      0.41789   0.7967   0.7033     O
C       0.4219   0.6664   0.2243     C
C       0.4219   0.8336   0.7243     C
H       0.4238   0.1704   0.2975     H
H       0.4238   0.3296   0.7975     H
H       0.4359    0.728   0.4717     H
H       0.4359    0.772   0.9717     H
C       0.4378   0.7471   0.3092     C
C       0.4378   0.7529   0.8092     C
C       0.4408   0.1136   0.2637     C
C       0.4408   0.3864   0.7637     C
C       0.4484   0.1544   0.2854     C
C       0.4484   0.3456   0.7854     C
H       0.4492    0.742     0.28     H
H       0.4492    0.758     0.78     H
C       0.4522    0.745   0.8873     C
C       0.4522    0.755   0.3873     C
C       0.4541   0.2231    0.136     C
C       0.4541   0.2769    0.636     C
H       0.4541   0.5902   0.2582     H
H       0.4541   0.9098   0.7582     H
C       0.4618   0.2358   0.7042     C
C       0.4618   0.2642   0.2042     C
H       0.4672   0.2115   0.1096     H
H       0.4672   0.2885   0.6096     H
C       0.4697   0.7494   0.8442     C
C       0.4697   0.7506   0.3442     C
C       0.4708   0.6487   0.2282     C
C       0.4708   0.8513   0.7282     C
H       0.4717   0.0641    0.228     H
H       0.4717   0.4359    0.728     H
H       0.4718   0.7443   0.9122     H
H       0.4718   0.7557   0.4122     H
C       0.4766   0.0905   0.2449     C
C       0.4766   0.4095   0.7449     C
C       0.4788   0.6076   0.2485     C
C       0.4788   0.8924   0.7485     C
H       0.4791   0.2189   0.7247     H
H       0.4791   0.2811   0.2247     H
C       0.4814   0.2458   0.1667     C
C       0.4814   0.2542   0.6667     C
C       0.4913    0.172   0.2895     C
C       0.4913    0.328   0.7895     C
H       0.4955   0.1999   0.3041     H
H       0.4955   0.3001   0.8041     H
H       0.5045   0.6999   0.1959     H
H       0.5045   0.8001   0.6959     H
C       0.5087    0.672   0.2105     C
C       0.5087    0.828   0.7105     C
C       0.5186   0.7458   0.3333     C
C       0.5186   0.7542   0.8333     C
H       0.5209   0.7189   0.7753     H
H       0.5209   0.7811   0.2753     H
C       0.5212   0.1076   0.2515     C
C       0.5212   0.3924   0.7515     C
C       0.5234   0.5905   0.2551     C
C       0.5234   0.9095   0.7551     C
H       0.5282   0.2443   0.5878     H
H       0.5282   0.2557   0.0878     H
H       0.5283   0.5641    0.272     H
H       0.5283   0.9359    0.772     H
C       0.5292   0.1487   0.2718     C
C       0.5292   0.3513   0.7718     C
C       0.5303   0.2494   0.6558     C
C       0.5303   0.2506   0.1558     C
H       0.5328   0.7115   0.3904     H
H       0.5328   0.7885   0.8904     H
C       0.5382   0.7358   0.7958     C
C       0.5382   0.7642   0.2958     C
H       0.5459   0.0902   0.2418     H
H       0.5459   0.4098   0.7418     H
C       0.5459   0.7231    0.364     C
C       0.5459   0.7769    0.864     C
C       0.5478    0.245   0.6127     C
C       0.5478    0.255   0.1127     C
H       0.5508    0.242     0.22     H
H       0.5508    0.258     0.72     H
C       0.5516   0.6544   0.2146     C
C       0.5516   0.8456   0.7146     C
C       0.5592   0.6136   0.2363     C
C       0.5592   0.8864   0.7363     C
C       0.5622   0.2471   0.1908     C
C       0.5622   0.2529   0.6908     C
H       0.5641    0.228   0.0283     H
H       0.5641    0.272   0.5283     H
H       0.5762   0.6704   0.2025     H
H       0.5762   0.8296   0.7025     H
C       0.5781   0.1664   0.2757     C
C       0.5781   0.3336   0.7757     C
O      0.58211   0.2033   0.2967     O
O      0.58211   0.2967   0.7967     O
C       0.5859   0.7426    0.788     C
C       0.5859   0.7574    0.288     C
H       0.5878   0.5282   0.2443     H
H       0.5878   0.9718   0.7443     H
H       0.5902   0.2418   0.9541     H
H       0.5902   0.2582   0.4541     H
C       0.5905   0.2449   0.0234     C
C       0.5905   0.2551   0.5234     C
C       0.5924   0.7169    0.357     C
C       0.5924   0.7831    0.857     C
C       0.5939   0.2417   0.6057     C
C       0.5939   0.2583   0.1057     C
H       0.5992   0.7311   0.7616     H
H       0.5992   0.7689   0.2616     H
C       0.6057   0.5939   0.2417     C
C       0.6057   0.9061   0.7417     C
C       0.6076   0.2485   0.4788     C
N       0.6076   0.2498   0.6868     N
N       0.6076   0.2502   0.1868     N
C       0.6076   0.2515   0.9788     C
O      0.60805  0.14366   0.2561     O
O      0.60805  0.35634   0.7561     O
H       0.6095    0.701   0.3785     H
H       0.6095    0.799   0.8785     H
H       0.6096   0.0328   0.7885     H
H       0.6096   0.4672   0.2885     H
C       0.6127   0.5478    0.245     C
C       0.6127   0.9522    0.745     C
C       0.6128   0.7336   0.3195     C
C       0.6128   0.7664   0.8195     C
C       0.6136   0.2363   0.5592     C
C       0.6136   0.2637   0.0592     C
H       0.6215   0.1095    0.799     H
H       0.6215   0.3905    0.299     H
C       0.6228   0.2446   0.6425     C
C       0.6228   0.2554   0.1425     C
C        0.636   0.0459   0.7769     C
C        0.636   0.4541   0.2769     C
H       0.6373    0.654   0.2428     H
H       0.6373    0.846   0.7428     H
C       0.6425   0.6228   0.2446     C
C       0.6425   0.8772   0.7446     C
C        0.643   0.0924   0.7831     C
C        0.643   0.4076   0.2831     C
O      0.64366   0.2439  0.39195     O
O      0.64366   0.2561  0.89195     O
Yb     0.64433  0.24537  0.31707    Yb
Yb     0.64433  0.25463  0.81707    Yb
C       0.6487   0.2282   0.4708     C
C       0.6487   0.2718   0.9708     C
H        0.654   0.2428   0.6373     H
H        0.654   0.2572   0.1373     H
C       0.6544   0.2146   0.5516     C
C       0.6544   0.2854   0.0516     C
C       0.6558   0.5303   0.2494     C
C       0.6558   0.9697   0.7494     C
H      0.65587  0.15587  0.34413     H
H      0.65587  0.34413  0.84413     H
O       0.6574  0.18479   0.7925     O
O       0.6574  0.31521   0.2925     O
C       0.6593   0.7372   0.3162     C
C       0.6593   0.7628   0.8162     C
H         0.66   0.2321   0.2279     H
H         0.66   0.2679   0.7279     H
C       0.6664   0.2243   0.4219     C
C       0.6664   0.2757   0.9219     C
C       0.6667   0.0186   0.7542     C
C       0.6667   0.4814   0.2542     C
H       0.6704   0.2025   0.5762     H
H       0.6704   0.2975   0.0762     H
C        0.672   0.2105   0.5087     C
C        0.672   0.2895   0.0087     C
O      0.67257  0.17257  0.32743     O
O      0.67257  0.32743  0.82743     O
O      0.67526  0.22326    0.251     O
O      0.67526  0.27674    0.751     O
C       0.6805   0.1128   0.7664     C
C       0.6805   0.3872   0.2664     C
O       0.6806   0.7499   0.2802     O
O       0.6806   0.7501   0.7802     O
Yb     0.68293  0.14433  0.25463    Yb
Yb     0.68293  0.35567  0.75463    Yb
C       0.6838   0.1593   0.7628     C
C       0.6838   0.3407   0.2628     C
O      0.68479   0.7075   0.3426     O
O      0.68479   0.7925   0.8426     O
N       0.6868   0.6076   0.2498     N
N       0.6868   0.8924   0.7498     N
C       0.6908   0.5622   0.2529     C
C       0.6908   0.9378   0.7529     C
H       0.6959   0.5045   0.8001     H
H       0.6959   0.9955   0.3001     H
H       0.6999   0.1959   0.5045     H
H       0.6999   0.3041   0.0045     H
H        0.701   0.1215   0.1095     H
H        0.701   0.3785   0.6095     H
H       0.7025   0.5762   0.8296     H
H       0.7025   0.9238   0.3296     H
O       0.7033  0.08211   0.2967     O
O       0.7033   0.2033  0.41789     O
O       0.7033   0.2967  0.91789     O
O       0.7033  0.41789   0.7967     O
C       0.7042   0.0382   0.7358     C
C       0.7042   0.4618   0.2358     C
O       0.7075   0.1574  0.18479     O
O       0.7075   0.3426  0.68479     O
C       0.7105   0.5087    0.828     C
C       0.7105   0.9913    0.328     C
H       0.7115   0.1096   0.0328     H
H       0.7115   0.3904   0.5328     H
C        0.712   0.0859   0.7426     C
C        0.712   0.4141   0.2426     C
C       0.7146   0.5516   0.8456     C
C       0.7146   0.9484   0.3456     C
C       0.7169    0.143   0.0924     C
C       0.7169    0.357   0.5924     C
H       0.7189   0.7247   0.0209     H
H       0.7189   0.7753   0.5209     H
O       0.7198   0.1806   0.7501     O
O       0.7198   0.3194   0.2501     O
H         0.72   0.5508    0.258     H
H         0.72   0.9492    0.758     H
C       0.7231    0.136   0.0459     C
C       0.7231    0.364   0.5459     C
O      0.72326    0.249  0.32474     O
O      0.72326    0.251  0.82474     O
C       0.7243   0.0781   0.3336     C
C       0.7243   0.4219   0.8336     C
H       0.7247   0.0209   0.7189     H
H       0.7247   0.4791   0.2189     H
H       0.7279     0.66   0.2679     H
H       0.7279     0.84   0.7679     H
H        0.728   0.0283   0.9359     H
H        0.728   0.4717   0.4359     H
C       0.7282   0.0292   0.3513     C
C       0.7282   0.4708   0.8513     C
H       0.7311   0.7384   0.0992     H
H       0.7311   0.7616   0.5992     H
H       0.7321   0.2279     0.84     H
H       0.7321   0.2721     0.34     H
C       0.7336   0.1805   0.1128     C
C       0.7336   0.3195   0.6128     C
C       0.7358   0.7042   0.0382     C
C       0.7358   0.7958   0.5382     C
C       0.7363   0.5592   0.8864     C
C       0.7363   0.9408   0.3864     C
C       0.7372   0.1838   0.1593     C
C       0.7372   0.3162   0.6593     C
H       0.7384   0.0992   0.7311     H
H       0.7384   0.4008   0.2311     H
C       0.7417   0.6057   0.9061     C
C       0.7417   0.8943   0.4061     C
H       0.7418   0.5459   0.4098     H
H       0.7418   0.9541   0.9098     H
H        0.742     0.22   0.9492     H
H        0.742     0.28   0.4492     H
C       0.7426    0.712   0.0859     C
C       0.7426    0.788   0.5859     C
H       0.7428   0.6373    0.846     H
H       0.7428   0.8627    0.346     H
O       0.7439  0.10805  0.35634     O
O       0.7439  0.39195  0.85634     O
H       0.7443   0.5878   0.9718     H
H       0.7443   0.9122   0.4718     H
C       0.7446   0.6425   0.8772     C
C       0.7446   0.8575   0.3772     C
C       0.7449   0.0234   0.9095     C
C       0.7449   0.4766   0.4095     C
C        0.745   0.6127   0.9522     C
C        0.745   0.8873   0.4522     C
Yb     0.74537  0.18293  0.35567    Yb
Yb     0.74537  0.31707  0.85567    Yb
C       0.7458   0.1667   0.0186     C
C       0.7458   0.3333   0.5186     C
C       0.7471   0.1908   0.9378     C
C       0.7471   0.3092   0.4378     C
C       0.7485   0.0212   0.3924     C
C       0.7485   0.4788   0.8924     C
O        0.749  0.17526  0.27674     O
O        0.749  0.32474  0.77674     O
C       0.7494   0.6558   0.9697     C
C       0.7494   0.8442   0.4697     C
Yb     0.74954  0.24954  0.25046    Yb
Yb     0.74954  0.25046  0.75046    Yb
N       0.7498   0.6868   0.8924     N
N       0.7498   0.8132   0.3924     N
O       0.7499   0.2198   0.1806     O
O       0.7499   0.2802   0.6806     O
O       0.7501   0.7198   0.1806     O
O       0.7501   0.7802   0.6806     O
N       0.7502   0.1868   0.8924     N
N       0.7502   0.3132   0.3924     N
Yb     0.75046  0.74954  0.25046    Yb
Yb     0.75046  0.75046  0.75046    Yb
C       0.7506   0.1558   0.9697     C
C       0.7506   0.3442   0.4697     C
O        0.751  0.67526  0.27674     O
O        0.751  0.82474  0.77674     O
C       0.7515   0.5212   0.3924     C
C       0.7515   0.9788   0.8924     C
C       0.7529   0.6908   0.9378     C
C       0.7529   0.8092   0.4378     C
C       0.7542   0.6667   0.0186     C
C       0.7542   0.8333   0.5186     C
Yb     0.75463  0.68293  0.35567    Yb
Yb     0.75463  0.81707  0.85567    Yb
C        0.755   0.1127   0.9522     C
C        0.755   0.3873   0.4522     C
C       0.7551   0.5234   0.9095     C
C       0.7551   0.9766   0.4095     C
C       0.7554   0.1425   0.8772     C
C       0.7554   0.3575   0.3772     C
H       0.7557   0.0878   0.9718     H
H       0.7557   0.4122   0.4718     H
O       0.7561  0.60805  0.35634     O
O       0.7561  0.89195  0.85634     O
H       0.7572   0.1373    0.846     H
H       0.7572   0.3627    0.346     H
C       0.7574    0.212   0.0859     C
C       0.7574    0.288   0.5859     C
H        0.758     0.72   0.9492     H
H        0.758     0.78   0.4492     H
H       0.7582   0.0459   0.4098     H
H       0.7582   0.4541   0.9098     H
C       0.7583   0.1057   0.9061     C
C       0.7583   0.3943   0.4061     C
H       0.7616   0.5992   0.7311     H
H       0.7616   0.9008   0.2311     H
C       0.7628   0.6838   0.1593     C
C       0.7628   0.8162   0.6593     C
C       0.7637   0.0592   0.8864     C
C       0.7637   0.4408   0.3864     C
C       0.7642   0.2042   0.0382     C
C       0.7642   0.2958   0.5382     C
C       0.7664   0.6805   0.1128     C
C       0.7664   0.8195   0.6128     C
H       0.7679   0.7279     0.84     H
H       0.7679   0.7721     0.34     H
H       0.7689   0.2384   0.0992     H
H       0.7689   0.2616   0.5992     H
C       0.7718   0.5292   0.3513     C
C       0.7718   0.9708   0.8513     C
H        0.772   0.5283   0.9359     H
H        0.772   0.9717   0.4359     H
H       0.7721     0.16   0.2679     H
H       0.7721     0.34   0.7679     H
H       0.7753   0.5209   0.7189     H
H       0.7753   0.9791   0.2189     H
C       0.7757   0.5781   0.3336     C
C       0.7757   0.9219   0.8336     C
O      0.77674    0.749  0.32474     O
O      0.77674    0.751  0.82474     O
C       0.7769    0.636   0.0459     C
C       0.7769    0.864   0.5459     C
H         0.78   0.0508    0.258     H
H         0.78   0.4492    0.758     H
O       0.7802   0.6806   0.7501     O
O       0.7802   0.8194   0.2501     O
H       0.7811   0.2247   0.0209     H
H       0.7811   0.2753   0.5209     H
C       0.7831    0.643   0.0924     C
C       0.7831    0.857   0.5924     C
C       0.7854   0.0516   0.8456     C
C       0.7854   0.4484   0.3456     C
C        0.788   0.5859   0.7426     C
C        0.788   0.9141   0.2426     C
H       0.7885   0.6096   0.0328     H
H       0.7885   0.8904   0.5328     H
C       0.7895   0.0087    0.828     C
C       0.7895   0.4913    0.328     C
O       0.7925   0.6574  0.18479     O
O       0.7925   0.8426  0.68479     O
C       0.7958   0.5382   0.7358     C
C       0.7958   0.9618   0.2358     C
O       0.7967  0.58211   0.2967     O
O       0.7967   0.7033  0.41789     O
O       0.7967   0.7967  0.91789     O
O       0.7967  0.91789   0.7967     O
H       0.7975   0.0762   0.8296     H
H       0.7975   0.4238   0.3296     H
H        0.799   0.6215   0.1095     H
H        0.799   0.8785   0.6095     H
H       0.8001   0.6959   0.5045     H
H       0.8001   0.8041   0.0045     H
H       0.8041   0.0045   0.8001     H
H       0.8041   0.4955   0.3001     H
C       0.8092   0.0622   0.2529     C
C       0.8092   0.4378   0.7529     C
N       0.8132   0.1076   0.2498     N
N       0.8132   0.3924   0.7498     N
O      0.81521   0.2075   0.3426     O
O      0.81521   0.2925   0.8426     O
C       0.8162   0.6593   0.7628     C
C       0.8162   0.8407   0.2628     C
Yb     0.81707  0.64433  0.25463    Yb
Yb     0.81707  0.85567  0.75463    Yb
O       0.8194   0.2499   0.2802     O
O       0.8194   0.2501   0.7802     O
C       0.8195   0.6128   0.7664     C
C       0.8195   0.8872   0.2664     C
O      0.82474  0.72326    0.251     O
O      0.82474  0.77674    0.751     O
O      0.82743  0.67257  0.32743     O
O      0.82743  0.82743  0.82743     O
C        0.828   0.7105   0.5087     C
C        0.828   0.7895   0.0087     C
H       0.8296   0.7025   0.5762     H
H       0.8296   0.7975   0.0762     H
C       0.8333   0.5186   0.7542     C
C       0.8333   0.9814   0.2542     C
C       0.8336   0.7243   0.4219     C
C       0.8336   0.7757   0.9219     C
H         0.84   0.7321   0.2279     H
H         0.84   0.7679   0.7279     H
C       0.8407   0.2372   0.3162     C
C       0.8407   0.2628   0.8162     C
O       0.8426  0.68479   0.7925     O
O       0.8426  0.81521   0.2925     O
H      0.84413  0.65587  0.34413     H
H      0.84413  0.84413  0.84413     H
C       0.8442   0.0303   0.2494     C
C       0.8442   0.4697   0.7494     C
C       0.8456   0.7146   0.5516     C
C       0.8456   0.7854   0.0516     C
H        0.846   0.7428   0.6373     H
H        0.846   0.7572   0.1373     H
C       0.8513   0.7282   0.4708     C
C       0.8513   0.7718   0.9708     C
Yb     0.85567  0.74537  0.31707    Yb
Yb     0.85567  0.75463  0.81707    Yb
O      0.85634   0.7439  0.39195     O
O      0.85634   0.7561  0.89195     O
C        0.857   0.5924   0.7831     C
C        0.857   0.9076   0.2831     C
C       0.8575   0.1228   0.2446     C
C       0.8575   0.3772   0.7446     C
H       0.8627    0.154   0.2428     H
H       0.8627    0.346   0.7428     H
C        0.864   0.5459   0.7769     C
C        0.864   0.9541   0.2769     C
C       0.8772   0.7446   0.6425     C
C       0.8772   0.7554   0.1425     C
H       0.8785   0.6095    0.799     H
H       0.8785   0.8905    0.299     H
C       0.8864   0.7363   0.5592     C
C       0.8864   0.7637   0.0592     C
C       0.8872   0.2336   0.3195     C
C       0.8872   0.2664   0.8195     C
C       0.8873   0.0478    0.245     C
C       0.8873   0.4522    0.745     C
H       0.8904   0.5328   0.7885     H
H       0.8904   0.9672   0.2885     H
H       0.8905    0.201   0.3785     H
H       0.8905    0.299   0.8785     H
O      0.89195  0.64366   0.2561     O
O      0.89195  0.85634   0.7561     O
C       0.8924   0.7485   0.4788     C
N       0.8924   0.7498   0.6868     N
N       0.8924   0.7502   0.1868     N
C       0.8924   0.7515   0.9788     C
C       0.8943   0.0939   0.2417     C
C       0.8943   0.4061   0.7417     C
H       0.9008   0.2311   0.7616     H
H       0.9008   0.2689   0.2616     H
C       0.9061   0.7417   0.6057     C
C       0.9061   0.7583   0.1057     C
C       0.9076   0.2169    0.357     C
C       0.9076   0.2831    0.857     C
C       0.9095   0.7449   0.0234     C
C       0.9095   0.7551   0.5234     C
H       0.9098   0.7418   0.9541     H
H       0.9098   0.7582   0.4541     H
H       0.9122   0.0282   0.2443     H
H       0.9122   0.4718   0.7443     H
C       0.9141   0.2426    0.788     C
C       0.9141   0.2574    0.288     C
O      0.91789   0.7033   0.2967     O
O      0.91789   0.7967   0.7967     O
C       0.9219   0.6664   0.2757     C
C       0.9219   0.8336   0.7757     C
H       0.9238   0.1704   0.2025     H
H       0.9238   0.3296   0.7025     H
H       0.9359    0.728   0.0283     H
H       0.9359    0.772   0.5283     H
C       0.9378   0.7471   0.1908     C
C       0.9378   0.7529   0.6908     C
C       0.9408   0.1136   0.2363     C
C       0.9408   0.3864   0.7363     C
C       0.9484   0.1544   0.2146     C
C       0.9484   0.3456   0.7146     C
H       0.9492    0.742     0.22     H
H       0.9492    0.758     0.72     H
C       0.9522    0.745   0.6127     C
C       0.9522    0.755   0.1127     C
C       0.9541   0.2231    0.364     C
C       0.9541   0.2769    0.864     C
H       0.9541   0.5902   0.2418     H
H       0.9541   0.9098   0.7418     H
C       0.9618   0.2358   0.7958     C
C       0.9618   0.2642   0.2958     C
H       0.9672   0.2115   0.3904     H
H       0.9672   0.2885   0.8904     H
C       0.9697   0.7494   0.6558     C
C       0.9697   0.7506   0.1558     C
C       0.9708   0.6487   0.2718     C
C       0.9708   0.8513   0.7718     C
H       0.9717   0.0641    0.272     H
H       0.9717   0.4359    0.772     H
H       0.9718   0.7443   0.5878     H
H       0.9718   0.7557   0.0878     H
C       0.9766   0.0905   0.2551     C
C       0.9766   0.4095   0.7551     C
C       0.9788   0.6076   0.2515     C
C       0.9788   0.8924   0.7515     C
H       0.9791   0.2189   0.7753     H
H       0.9791   0.2811   0.2753     H
C       0.9814   0.2458   0.3333     C
C       0.9814   0.2542   0.8333     C
C       0.9913    0.172   0.2105     C
C       0.9913    0.328   0.7105     C
H       0.9955   0.1999   0.1959     H
H       0.9955   0.3001   0.6959     H
