data_I
_chemical_name_common  '/home/zhangsd/repos/MofS-CGCNN/CGCNN_MT/data/TS_external_test/clean_cifs/AVAQIX_clean'
_cell_length_a 12.33970
_cell_length_b 15.50500
_cell_length_c 18.94370
_cell_angle_alpha 90.00000
_cell_angle_beta  90.00000
_cell_angle_gamma 90.00000
_space_group_name_H-M_alt      'P 1'


loop_
_space_group_symop_operation_xyz
  'x, y, z' 

loop_
_atom_site_label
_atom_site_fract_x
_atom_site_fract_y
_atom_site_fract_z
_atom_site_type_symbol
C      0.00051  0.50244  0.25491     C
C      0.00051  0.99756  0.75491     C
H       0.0006   0.1184   0.9063     H
H       0.0006   0.3816   0.4063     H
C      0.00783  0.66433  0.56258     C
C      0.00783  0.83567  0.06258     C
H       0.0121   0.7055   0.2894     H
H       0.0121   0.7945   0.7894     H
O      0.02159  0.65007  0.74117     O
O      0.02159  0.84993  0.24117     O
C      0.02584  0.08016  0.21317     C
C      0.02584  0.41984  0.71317     C
C      0.02983  0.70392   0.9711     C
C      0.02983  0.79608   0.4711     C
C      0.03064  0.65357  0.26792     C
C      0.03064  0.84643  0.76792     C
H       0.0403    0.658   0.9403     H
H       0.0403    0.842   0.4403     H
C      0.05386  0.23895  0.03936     C
C      0.05386  0.26105  0.53936     C
C      0.06133  0.57856  0.72583     C
C      0.06133  0.92144  0.22583     C
C      0.06265  0.17084   0.9936     C
C      0.06265  0.32916   0.4936     C
H       0.0807   0.0828   0.1796     H
H       0.0807   0.4172   0.6796     H
C      0.08392  0.50129  0.20631     C
C      0.08392  0.99871  0.70631     C
N      0.08715  0.72042  0.57449     N
N      0.08715  0.77958  0.07449     N
C      0.09815  0.71581  0.02809     C
C      0.09815  0.78419  0.52809     C
H       0.1043   0.0499   0.6844     H
H       0.1043   0.4501   0.1844     H
N      0.11067  0.65374  0.22034     N
N      0.11067  0.84626  0.72034     N
H       0.1159   0.1292   0.0004     H
H       0.1159   0.3708   0.5004     H
C       0.1367  0.57798  0.19072     C
C       0.1367  0.92202  0.69072     C
C      0.13778  0.24714  0.59606     C
C      0.13778  0.25286  0.09606     C
O      0.14893  0.56985  0.69414     O
O      0.14893  0.93015  0.19414     O
O      0.15422  0.17189  0.61663     O
O      0.15422  0.32811  0.11663     O
H       0.1549   0.6771   0.0343     H
H       0.1549   0.8229   0.5343     H
Cd     0.18866    0.716  0.68218    Cd
Cd     0.18866    0.784  0.18218    Cd
O      0.19024  0.18884  0.11708     O
O      0.19024  0.31116  0.61708     O
H        0.193   0.5768   0.1581     H
H        0.193   0.9232   0.6581     H
H        0.307   0.0768   0.1581     H
H        0.307   0.4232   0.6581     H
O      0.30976  0.68884  0.11708     O
O      0.30976  0.81116  0.61708     O
Cd     0.31134    0.216  0.68218    Cd
Cd     0.31134    0.284  0.18218    Cd
H       0.3451   0.1771   0.0343     H
H       0.3451   0.3229   0.5343     H
O      0.34578  0.67189  0.61663     O
O      0.34578  0.82811  0.11663     O
O      0.35107  0.06985  0.69414     O
O      0.35107  0.43015  0.19414     O
C      0.36222  0.74714  0.59606     C
C      0.36222  0.75286  0.09606     C
C       0.3633  0.07798  0.19072     C
C       0.3633  0.42202  0.69072     C
H       0.3841   0.6292   0.0004     H
H       0.3841   0.8708   0.5004     H
N      0.38933  0.15374  0.22034     N
N      0.38933  0.34626  0.72034     N
H       0.3957   0.5499   0.6844     H
H       0.3957   0.9501   0.1844     H
C      0.40185  0.21581  0.02809     C
C      0.40185  0.28419  0.52809     C
N      0.41285  0.22042  0.57449     N
N      0.41285  0.27958  0.07449     N
C      0.41608  0.00129  0.20631     C
C      0.41608  0.49871  0.70631     C
H       0.4193   0.5828   0.1796     H
H       0.4193   0.9172   0.6796     H
C      0.43735  0.67084   0.9936     C
C      0.43735  0.82916   0.4936     C
C      0.43867  0.07856  0.72583     C
C      0.43867  0.42144  0.22583     C
C      0.44614  0.73895  0.03936     C
C      0.44614  0.76105  0.53936     C
H       0.4597    0.158   0.9403     H
H       0.4597    0.342   0.4403     H
C      0.46936  0.15357  0.26792     C
C      0.46936  0.34643  0.76792     C
C      0.47017  0.20392   0.9711     C
C      0.47017  0.29608   0.4711     C
C      0.47416  0.58016  0.21317     C
C      0.47416  0.91984  0.71317     C
O      0.47841  0.15007  0.74117     O
O      0.47841  0.34993  0.24117     O
H       0.4879   0.2055   0.2894     H
H       0.4879   0.2945   0.7894     H
C      0.49217  0.16433  0.56258     C
C      0.49217  0.33567  0.06258     C
H       0.4994   0.6184   0.9063     H
H       0.4994   0.8816   0.4063     H
C      0.49949  0.00244  0.25491     C
C      0.49949  0.49756  0.75491     C
C      0.50051  0.50244  0.24509     C
C      0.50051  0.99756  0.74509     C
H       0.5006   0.1184   0.5937     H
H       0.5006   0.3816   0.0937     H
C      0.50783  0.66433  0.93742     C
C      0.50783  0.83567  0.43742     C
H       0.5121   0.7055   0.2106     H
H       0.5121   0.7945   0.7106     H
O      0.52159  0.65007  0.75883     O
O      0.52159  0.84993  0.25883     O
C      0.52584  0.08016  0.28683     C
C      0.52584  0.41984  0.78683     C
C      0.52983  0.70392   0.5289     C
C      0.52983  0.79608   0.0289     C
C      0.53064  0.65357  0.23208     C
C      0.53064  0.84643  0.73208     C
H       0.5403    0.658   0.5597     H
H       0.5403    0.842   0.0597     H
C      0.55386  0.23895  0.46064     C
C      0.55386  0.26105  0.96064     C
C      0.56133  0.57856  0.77417     C
C      0.56133  0.92144  0.27417     C
C      0.56265  0.17084   0.5064     C
C      0.56265  0.32916   0.0064     C
H       0.5807   0.0828   0.3204     H
H       0.5807   0.4172   0.8204     H
C      0.58392  0.50129  0.29369     C
C      0.58392  0.99871  0.79369     C
N      0.58715  0.72042  0.92551     N
N      0.58715  0.77958  0.42551     N
C      0.59815  0.71581  0.47191     C
C      0.59815  0.78419  0.97191     C
H       0.6043   0.0499   0.8156     H
H       0.6043   0.4501   0.3156     H
N      0.61067  0.65374  0.27966     N
N      0.61067  0.84626  0.77966     N
H       0.6159   0.1292   0.4996     H
H       0.6159   0.3708   0.9996     H
C       0.6367  0.57798  0.30928     C
C       0.6367  0.92202  0.80928     C
C      0.63778  0.24714  0.90394     C
C      0.63778  0.25286  0.40394     C
O      0.64893  0.56985  0.80586     O
O      0.64893  0.93015  0.30586     O
O      0.65422  0.17189  0.88337     O
O      0.65422  0.32811  0.38337     O
H       0.6549   0.6771   0.4657     H
H       0.6549   0.8229   0.9657     H
Cd     0.68866    0.716  0.81782    Cd
Cd     0.68866    0.784  0.31782    Cd
O      0.69024  0.18884  0.38292     O
O      0.69024  0.31116  0.88292     O
H        0.693   0.5768   0.3419     H
H        0.693   0.9232   0.8419     H
H        0.807   0.0768   0.3419     H
H        0.807   0.4232   0.8419     H
O      0.80976  0.68884  0.38292     O
O      0.80976  0.81116  0.88292     O
Cd     0.81134    0.216  0.81782    Cd
Cd     0.81134    0.284  0.31782    Cd
H       0.8451   0.1771   0.4657     H
H       0.8451   0.3229   0.9657     H
O      0.84578  0.67189  0.88337     O
O      0.84578  0.82811  0.38337     O
O      0.85107  0.06985  0.80586     O
O      0.85107  0.43015  0.30586     O
C      0.86222  0.74714  0.90394     C
C      0.86222  0.75286  0.40394     C
C       0.8633  0.07798  0.30928     C
C       0.8633  0.42202  0.80928     C
H       0.8841   0.6292   0.4996     H
H       0.8841   0.8708   0.9996     H
N      0.88933  0.15374  0.27966     N
N      0.88933  0.34626  0.77966     N
H       0.8957   0.5499   0.8156     H
H       0.8957   0.9501   0.3156     H
C      0.90185  0.21581  0.47191     C
C      0.90185  0.28419  0.97191     C
N      0.91285  0.22042  0.92551     N
N      0.91285  0.27958  0.42551     N
C      0.91608  0.00129  0.29369     C
C      0.91608  0.49871  0.79369     C
H       0.9193   0.5828   0.3204     H
H       0.9193   0.9172   0.8204     H
C      0.93735  0.67084   0.5064     C
C      0.93735  0.82916   0.0064     C
C      0.93867  0.07856  0.77417     C
C      0.93867  0.42144  0.27417     C
C      0.94614  0.73895  0.46064     C
C      0.94614  0.76105  0.96064     C
H       0.9597    0.158   0.5597     H
H       0.9597    0.342   0.0597     H
C      0.96936  0.15357  0.23208     C
C      0.96936  0.34643  0.73208     C
C      0.97017  0.20392   0.5289     C
C      0.97017  0.29608   0.0289     C
C      0.97416  0.58016  0.28683     C
C      0.97416  0.91984  0.78683     C
O      0.97841  0.15007  0.75883     O
O      0.97841  0.34993  0.25883     O
H       0.9879   0.2055   0.2106     H
H       0.9879   0.2945   0.7106     H
C      0.99217  0.16433  0.93742     C
C      0.99217  0.33567  0.43742     C
H       0.9994   0.6184   0.5937     H
H       0.9994   0.8816   0.0937     H
C      0.99949  0.00244  0.24509     C
C      0.99949  0.49756  0.74509     C
