data_I
_chemical_name_common  '/home/zhangsd/repos/MofS-CGCNN/CGCNN_MT/data/TS_external_test/clean_cifs/BIBBUL_clean'
_cell_length_a  8.70760
_cell_length_b 15.68600
_cell_length_c 19.36800
_cell_angle_alpha 90.00000
_cell_angle_beta  90.00000
_cell_angle_gamma 90.00000
_space_group_name_H-M_alt      'P 1'


loop_
_space_group_symop_operation_xyz
  'x, y, z' 

loop_
_atom_site_label
_atom_site_fract_x
_atom_site_fract_y
_atom_site_fract_z
_atom_site_type_symbol
H       0.0167   0.3403   0.3885     H
H       0.0184   0.7385    0.834     H
H       0.0189   0.2419   0.0517     H
H       0.0219   0.3496   0.7762     H
C       0.0229   0.2048   0.9517     C
H       0.0229   0.7536   0.7152     H
C       0.0237   0.5224   0.8855     C
H       0.0247    0.554   0.8449     H
N       0.0253    0.429   0.0063     N
H       0.0257   0.6115   0.3577     H
C       0.0328   0.8027   0.7453     C
H       0.0339   0.3335   0.6593     H
C       0.0402   0.2832   0.6884     C
Zn     0.05705  0.96223  0.24239    Zn
H       0.0584   0.7384   0.5635     H
N       0.0642   0.5698   0.2578     N
C       0.0663   0.3206    0.349     C
N       0.0687   0.3611   0.2869     N
C       0.0705   0.2063   0.0211     C
C       0.0706   0.6226   0.3151     C
H       0.0715   0.1509   0.8614     H
H       0.0849   0.5385   0.1247     H
C       0.0996   0.1527   0.9077     C
H       0.1027   0.3559   0.1503     H
C       0.1071   0.9416   0.5284     C
C       0.1139   0.9885   0.5893     C
O       0.1171   0.9833   0.0945     O
C         0.14   0.6096   0.2061     C
O       0.1446   0.9169   0.3288     O
C       0.1462   0.2482   0.3445     C
C       0.1535   0.6935   0.2987     C
C        0.154   0.4624   0.9809     C
C       0.1542   0.3128    0.244     C
C       0.1569   0.5088   0.9213     C
H       0.1607   0.2085   0.3795     H
H        0.164   0.6248   0.1047     H
C        0.165   0.5779   0.1366     C
H       0.1757   0.7393   0.3275     H
N       0.1873   0.1585   0.0452     N
C       0.1911    0.332   0.1727     C
N       0.1974    0.684   0.2316     N
C       0.2024   0.9557   0.3793     C
N       0.2027   0.2431   0.2791     N
C        0.203   0.8265   0.7506     C
C       0.2055   0.2556   0.6919     C
O       0.2073   0.0341   0.3858     O
H       0.2111   0.1998   0.7132     H
H       0.2135   0.8764   0.7798     H
C       0.2188   0.1023    0.931     C
H       0.2211   0.2806   0.1495     H
H       0.2259   0.6278   0.6712     H
H       0.2375   0.4505   0.6343     H
C       0.2377   0.9906   0.1259     C
H        0.241   0.8412    0.705     H
C       0.2415    0.894   0.5008     C
H       0.2455   0.4537   0.0047     H
H       0.2457   0.2507   0.6453     H
H       0.2491   0.5311   0.9051     H
O       0.2497   0.9799   0.1911     O
O       0.2503   0.0201   0.6911     O
H       0.2509   0.4689   0.4051     H
H       0.2543   0.7493   0.1453     H
H       0.2545   0.5463   0.5047     H
C       0.2585    0.106   0.0008     C
H        0.259   0.1588    0.205     H
C       0.2623   0.0094   0.6259     C
H       0.2625   0.5495   0.1343     H
H       0.2741   0.3722   0.1712     H
H       0.2789   0.7194   0.6495     H
C       0.2812   0.8977    0.431     C
H       0.2865   0.1236   0.2798     H
H       0.2889   0.8002   0.2132     H
O       0.2927   0.9659   0.8858     O
C       0.2945   0.7444   0.1919     C
C        0.297   0.1735   0.2506     C
N       0.2973   0.7569   0.7791     N
C       0.2976   0.0443   0.8793     C
N       0.3026    0.316   0.7316     N
C       0.3089    0.668   0.6727     C
N       0.3127   0.8415   0.5452     N
H       0.3243   0.2607   0.8275     H
C        0.335   0.4221   0.6366     C
H        0.336   0.3752   0.6047     H
H       0.3393   0.7915   0.8795     H
C       0.3431   0.4912   0.4213     C
C       0.3458   0.6872    0.744     C
C        0.346   0.5376   0.4809     C
C       0.3465   0.3065   0.7987     C
C       0.3538   0.7518   0.8445     C
O       0.3554   0.0831   0.8288     O
C         0.36   0.3904   0.7061     C
O       0.3829   0.0167   0.5945     O
C       0.3861   0.0115   0.0893     C
C       0.3929   0.0584   0.0284     C
H       0.3973   0.6441   0.6503     H
C       0.4004   0.8473   0.4077     C
H       0.4151   0.4615   0.6247     H
H       0.4285   0.8491   0.3614     H
C       0.4294   0.3774   0.8151     C
C       0.4295   0.7937   0.5211     C
N       0.4313   0.6389   0.7869     N
C       0.4337   0.6794    0.849     C
N       0.4358   0.4302   0.7578     N
H       0.4416   0.2616   0.0635     H
Zn     0.44295  0.03777  0.74239    Zn
C       0.4598   0.7168   0.1884     C
H       0.4661   0.6665   0.1593     H
C       0.4672   0.1973   0.2453     C
H       0.4743   0.3885   0.8577     H
N       0.4747    0.571   0.5063     N
H       0.4753    0.446   0.3449     H
C       0.4763   0.4776   0.3855     C
H       0.4771   0.2464   0.2152     H
C       0.4771   0.7952   0.4517     C
H       0.4781   0.6504   0.2762     H
H       0.4811   0.7581   0.5517     H
H       0.4816   0.2615    0.334     H
H       0.4833   0.6597   0.8885     H
H       0.5167   0.1597   0.6115     H
H       0.5184   0.7615    0.166     H
H       0.5189   0.2581   0.9483     H
H       0.5219   0.1504   0.2238     H
C       0.5229   0.2952   0.0483     C
H       0.5229   0.7464   0.2848     H
C       0.5237   0.9776   0.1145     C
H       0.5247    0.946   0.1551     H
N       0.5253    0.071   0.9937     N
H       0.5257   0.8885   0.6423     H
C       0.5328   0.6973   0.2547     C
H       0.5339   0.1665   0.3407     H
C       0.5402   0.2168   0.3116     C
Zn     0.55705  0.53777  0.75761    Zn
H       0.5584   0.7616   0.4365     H
N       0.5642   0.9302   0.7422     N
C       0.5663   0.1794    0.651     C
N       0.5687   0.1389   0.7131     N
C       0.5705   0.2937   0.9789     C
C       0.5706   0.8774   0.6849     C
H       0.5715   0.3491   0.1386     H
H       0.5849   0.9615   0.8753     H
C       0.5996   0.3473   0.0923     C
H       0.6027   0.1441   0.8497     H
C       0.6071   0.5584   0.4716     C
C       0.6139   0.5115   0.4107     C
O       0.6171   0.5167   0.9055     O
C         0.64   0.8904   0.7939     C
O       0.6446   0.5831   0.6712     O
C       0.6462   0.2518   0.6555     C
C       0.6535   0.8065   0.7013     C
C        0.654   0.0376   0.0191     C
C       0.6542   0.1872    0.756     C
C       0.6569   0.9912   0.0787     C
H       0.6607   0.2915   0.6205     H
H        0.664   0.8752   0.8953     H
C        0.665   0.9221   0.8634     C
H       0.6757   0.7607   0.6725     H
N       0.6873   0.3415   0.9548     N
C       0.6911    0.168   0.8273     C
N       0.6974    0.816   0.7684     N
C       0.7024   0.5443   0.6207     C
N       0.7027   0.2569   0.7209     N
C        0.703   0.6735   0.2494     C
C       0.7055   0.2444   0.3081     C
O       0.7073   0.4659   0.6142     O
H       0.7111   0.3002   0.2868     H
H       0.7135   0.6236   0.2202     H
C       0.7188   0.3977    0.069     C
H       0.7211   0.2194   0.8505     H
H       0.7259   0.8722   0.3288     H
H       0.7375   0.0495   0.3657     H
C       0.7377   0.5094   0.8741     C
H        0.741   0.6588    0.295     H
C       0.7415    0.606   0.4992     C
H       0.7455   0.0463   0.9953     H
H       0.7457   0.2493   0.3547     H
H       0.7491   0.9689   0.0949     H
O       0.7497   0.5201   0.8089     O
O       0.7503   0.4799   0.3089     O
H       0.7509   0.0311   0.5949     H
H       0.7543   0.7507   0.8547     H
H       0.7545   0.9537   0.4953     H
C       0.7585    0.394   0.9992     C
H        0.759   0.3412    0.795     H
C       0.7623   0.4906   0.3741     C
H       0.7625   0.9505   0.8657     H
H       0.7741   0.1278   0.8288     H
H       0.7789   0.7806   0.3505     H
C       0.7812   0.6023    0.569     C
H       0.7865   0.3764   0.7202     H
H       0.7889   0.6998   0.7868     H
O       0.7927   0.5341   0.1142     O
C       0.7945   0.7556   0.8081     C
C        0.797   0.3265   0.7494     C
N       0.7973   0.7431   0.2209     N
C       0.7976   0.4557   0.1207     C
N       0.8026    0.184   0.2684     N
C       0.8089    0.832   0.3273     C
N       0.8127   0.6585   0.4548     N
H       0.8243   0.2393   0.1725     H
C        0.835   0.0779   0.3634     C
H        0.836   0.1248   0.3953     H
H       0.8393   0.7085   0.1205     H
C       0.8431   0.0088   0.5787     C
C       0.8458   0.8128    0.256     C
C        0.846   0.9624   0.5191     C
C       0.8465   0.1935   0.2013     C
C       0.8538   0.7482   0.1555     C
O       0.8554   0.4169   0.1712     O
C         0.86   0.1096   0.2939     C
O       0.8829   0.4833   0.4055     O
C       0.8861   0.4885   0.9107     C
C       0.8929   0.4416   0.9716     C
H       0.8973   0.8559   0.3497     H
C       0.9004   0.6527   0.5923     C
H       0.9151   0.0385   0.3753     H
H       0.9285   0.6509   0.6386     H
C       0.9294   0.1226   0.1849     C
C       0.9295   0.7063   0.4789     C
N       0.9313   0.8611   0.2131     N
C       0.9337   0.8206    0.151     C
N       0.9358   0.0698   0.2422     N
H       0.9416   0.2384   0.9365     H
Zn     0.94295  0.46223  0.25761    Zn
C       0.9598   0.7832   0.8116     C
H       0.9661   0.8335   0.8407     H
C       0.9672   0.3027   0.7547     C
H       0.9743   0.1115   0.1423     H
N       0.9747    0.929   0.4937     N
H       0.9753    0.054   0.6551     H
C       0.9763   0.0224   0.6145     C
H       0.9771   0.2536   0.7848     H
C       0.9771   0.7048   0.5483     C
H       0.9781   0.8496   0.7238     H
H       0.9811   0.7419   0.4483     H
H       0.9816   0.2385    0.666     H
H       0.9833   0.8403   0.1115     H
