data_I
_chemical_name_common  '/home/zhangsd/repos/MofS-CGCNN/CGCNN_MT/data/TS_external_test/clean_cifs/FUBNOH_clean'
_cell_length_a 16.84460
_cell_length_b 15.16380
_cell_length_c  8.37020
_cell_angle_alpha 90.00000
_cell_angle_beta  116.29000
_cell_angle_gamma 90.00000
_space_group_name_H-M_alt      'P 1'


loop_
_space_group_symop_operation_xyz
  'x, y, z' 

loop_
_atom_site_label
_atom_site_fract_x
_atom_site_fract_y
_atom_site_fract_z
_atom_site_type_symbol
Zn         0.0  0.01637     0.75    Zn
N          0.0   0.1193     0.25     N
C          0.0   0.3013     0.25     C
H          0.0   0.3627     0.25     H
H          0.0   0.6373     0.75     H
C          0.0   0.6987     0.75     C
N          0.0   0.8807     0.75     N
Zn         0.0  0.98363     0.25    Zn
C      0.06648  0.16472   0.3777     C
C      0.06648  0.83528   0.8777     C
C      0.07022  0.25636   0.3811     C
C      0.07022  0.74364   0.8811     C
O      0.08836  0.09055   0.9335     O
O      0.08836  0.90945   0.4335     O
O      0.10011  0.00924   0.6374     O
O      0.10011  0.99076   0.1374     O
H       0.1119   0.1335   0.4676     H
H       0.1119   0.8665   0.9676     H
C      0.12487   0.0588   0.0896     C
C      0.12487   0.9412   0.5896     C
H       0.1413     0.41   0.3721     H
H       0.1413     0.59   0.8721     H
C      0.14837  0.30289   0.5204     C
C      0.14837  0.69711   0.0204     C
C       0.1736   0.3847   0.4837     C
C       0.1736   0.6153   0.9837     C
H       0.1826   0.2117   0.7157     H
H       0.1826   0.7883   0.2157     H
H       0.1977   0.2139   0.0732     H
H       0.1977   0.7861   0.5732     H
C        0.198   0.2665   0.6884     C
C        0.198   0.7335   0.1884     C
C      0.20569   0.1073   0.2234     C
C      0.20569   0.8927   0.7234     C
C         0.23   0.1889    0.185     C
C         0.23   0.8111    0.685     C
H       0.2384   0.0162   0.4173     H
H       0.2384   0.9838   0.9173     H
C       0.2457   0.4291     0.61     C
C       0.2457   0.5709     0.11     C
C       0.2543   0.0709     0.39     C
C       0.2543   0.9291     0.89     C
H       0.2616   0.4838   0.5827     H
H       0.2616   0.5162   0.0827     H
C         0.27   0.3111    0.815     C
C         0.27   0.6889    0.315     C
C      0.29431   0.3927   0.7766     C
C      0.29431   0.6073   0.2766     C
C        0.302   0.2335   0.3116     C
C        0.302   0.7665   0.8116     C
H       0.3023   0.2861   0.9268     H
H       0.3023   0.7139   0.4268     H
H       0.3174   0.2883   0.2843     H
H       0.3174   0.7117   0.7843     H
C       0.3264   0.1153   0.5163     C
C       0.3264   0.8847   0.0163     C
C      0.35163  0.19711   0.4796     C
C      0.35163  0.80289   0.9796     C
H       0.3587     0.09   0.6279     H
H       0.3587     0.91   0.1279     H
C      0.37513   0.4412   0.9104     C
C      0.37513   0.5588   0.4104     C
H       0.3881   0.3665   0.5324     H
H       0.3881   0.6335   0.0324     H
O      0.39989  0.49076   0.3626     O
O      0.39989  0.50924   0.8626     O
O      0.41164  0.40945   0.0665     O
O      0.41164  0.59055   0.5665     O
C      0.42978  0.24364   0.6189     C
C      0.42978  0.75636   0.1189     C
C      0.43352  0.33528   0.6223     C
C      0.43352  0.66472   0.1223     C
H          0.5   0.1373     0.75     H
C          0.5   0.1987     0.75     C
N          0.5   0.3807     0.75     N
Zn         0.5  0.48363     0.25    Zn
Zn         0.5  0.51637     0.75    Zn
N          0.5   0.6193     0.25     N
C          0.5   0.8013     0.25     C
H          0.5   0.8627     0.25     H
C      0.56648  0.33528   0.8777     C
C      0.56648  0.66472   0.3777     C
C      0.57022  0.24364   0.8811     C
C      0.57022  0.75636   0.3811     C
O      0.58836  0.40945   0.4335     O
O      0.58836  0.59055   0.9335     O
O      0.60011  0.49076   0.1374     O
O      0.60011  0.50924   0.6374     O
H       0.6119   0.3665   0.9676     H
H       0.6119   0.6335   0.4676     H
C      0.62487   0.4412   0.5896     C
C      0.62487   0.5588   0.0896     C
H       0.6413     0.09   0.8721     H
H       0.6413     0.91   0.3721     H
C      0.64837  0.19711   0.0204     C
C      0.64837  0.80289   0.5204     C
C       0.6736   0.1153   0.9837     C
C       0.6736   0.8847   0.4837     C
H       0.6826   0.2883   0.2157     H
H       0.6826   0.7117   0.7157     H
H       0.6977   0.2861   0.5732     H
H       0.6977   0.7139   0.0732     H
C        0.698   0.2335   0.1884     C
C        0.698   0.7665   0.6884     C
C      0.70569   0.3927   0.7234     C
C      0.70569   0.6073   0.2234     C
C         0.73   0.3111    0.685     C
C         0.73   0.6889    0.185     C
H       0.7384   0.4838   0.9173     H
H       0.7384   0.5162   0.4173     H
C       0.7457   0.0709     0.11     C
C       0.7457   0.9291     0.61     C
C       0.7543   0.4291     0.89     C
C       0.7543   0.5709     0.39     C
H       0.7616   0.0162   0.0827     H
H       0.7616   0.9838   0.5827     H
C         0.77   0.1889    0.315     C
C         0.77   0.8111    0.815     C
C      0.79431   0.1073   0.2766     C
C      0.79431   0.8927   0.7766     C
C        0.802   0.2665   0.8116     C
C        0.802   0.7335   0.3116     C
H       0.8023   0.2139   0.4268     H
H       0.8023   0.7861   0.9268     H
H       0.8174   0.2117   0.7843     H
H       0.8174   0.7883   0.2843     H
C       0.8264   0.3847   0.0163     C
C       0.8264   0.6153   0.5163     C
C      0.85163  0.30289   0.9796     C
C      0.85163  0.69711   0.4796     C
H       0.8587     0.41   0.1279     H
H       0.8587     0.59   0.6279     H
C      0.87513   0.0588   0.4104     C
C      0.87513   0.9412   0.9104     C
H       0.8881   0.1335   0.0324     H
H       0.8881   0.8665   0.5324     H
O      0.89989  0.00924   0.8626     O
O      0.89989  0.99076   0.3626     O
O      0.91164  0.09055   0.5665     O
O      0.91164  0.90945   0.0665     O
C      0.92978  0.25636   0.1189     C
C      0.92978  0.74364   0.6189     C
C      0.93352  0.16472   0.1223     C
C      0.93352  0.83528   0.6223     C
