data_I
_chemical_name_common  '/home/zhangsd/repos/MofS-CGCNN/CGCNN_MT/data/TS_external_test/clean_cifs/GAJTOC_clean'
_cell_length_a 12.83450
_cell_length_b 12.83450
_cell_length_c 34.87400
_cell_angle_alpha 82.50040
_cell_angle_beta  82.50040
_cell_angle_gamma 63.72600
_space_group_name_H-M_alt      'P 1'


loop_
_space_group_symop_operation_xyz
  'x, y, z' 

loop_
_atom_site_label
_atom_site_fract_x
_atom_site_fract_y
_atom_site_fract_z
_atom_site_type_symbol
C       0.0046   0.0788  0.87665     C
H       0.0049   0.0991    0.174     H
N       0.0081   0.3017  0.38047     N
C       0.0157   0.3897  0.31595     C
C       0.0166    0.059  0.15224     C
O      0.01781  0.47121  0.08606     O
N       0.0223   0.0241  0.84484     N
N       0.0241   0.0223  0.34484     N
C       0.0273   0.0905  0.58694     C
O      0.02972  0.53012  0.85071     O
H       0.0433   0.1291   0.5641     H
H       0.0488   0.3818   0.2905     H
S      0.05038  0.19268  0.87453     S
C       0.0506   0.9428   0.0891     C
C       0.0508   0.4922  0.88517     C
C       0.0525   0.2971   0.3436     C
C       0.0572   0.9494   0.4109     C
C        0.059   0.0166  0.65224     C
H       0.0611   0.9015   0.0678     H
C       0.0707   0.5065  0.67326     C
C       0.0726    0.088  0.11909     C
C       0.0764   0.5954   0.6098     C
C       0.0788   0.0046  0.37665     C
C        0.088   0.0726  0.61909     C
C       0.0905   0.0273  0.08694     C
S      0.09203  0.62735  0.37321     S
H       0.0971   0.4423   0.6913     H
H       0.0985   0.9389   0.4322     H
H       0.0991   0.0049    0.674     H
O      0.10329  0.21849  0.15139     O
S      0.10524   0.5137  0.42033     S
H       0.1087   0.5897   0.5842     H
C       0.1146   0.1798  0.11935     C
C       0.1188   0.4976  0.63523     C
H       0.1291   0.0433   0.0641     H
Gd     0.13073  0.34827  0.18443    Gd
H       0.1327   0.6137   0.9375     H
H       0.1395   0.3651    0.948     H
O      0.15746  0.21086  0.08833     O
O      0.15886  0.51266  0.00486     O
S      0.16477  0.16535  0.82723     S
S      0.16535  0.16477  0.32723     S
C        0.169   0.3972  0.89138     C
O      0.17016  0.54356  0.25037     O
O      0.17592  0.50272  0.15682     O
C       0.1798   0.1146  0.61935     C
S      0.19268  0.05038  0.37453     S
C       0.1969   0.3415  0.92756     C
Gd     0.20377  0.36086   0.0586    Gd
H       0.2045   0.6635   0.1798     H
C       0.2064   0.6112  0.93103     C
C       0.2067   0.6689  0.37639     C
O      0.21086  0.15746  0.58833     O
C       0.2133   0.3853  0.62201     C
C       0.2177   0.5313  0.12494     C
O      0.21849  0.10329  0.65139     O
C       0.2223   0.3813  0.40581     C
N       0.2255   0.6629  0.89585     N
O       0.2273   0.4907  0.09354     O
O      0.22954  0.36314  0.23376     O
N       0.2302   0.7238  0.34294     N
O      0.23924  0.37984  0.58587     O
H       0.2399   0.3955   0.8362     H
C        0.241   0.6834   0.1572     C
H       0.2423   0.6091   0.4307     H
H       0.2434    0.421   0.3485     H
H       0.2436   0.4358   0.7435     H
C       0.2454   0.4398  0.24768     C
N      0.25126  0.55406  0.77166     N
S       0.2516  0.71668  0.80748     S
C       0.2547   0.3603  0.86124     C
N       0.2556   0.3012  0.43537     N
C        0.258   0.6252  0.12474     C
O      0.26056  0.30416  0.64684     O
C       0.2615   0.6479  0.40857     C
C       0.2623   0.4961  0.99439     C
C       0.2704   0.3626  0.36846     C
S      0.27619  0.63661  0.65829     S
N       0.2762   0.7698  0.15706     N
S      0.28332   0.7484  0.69252     S
C       0.2881   0.5557  0.95752     C
C        0.292   0.4498  0.75765     C
C       0.2971   0.0525   0.8436     C
N       0.3012   0.2556  0.93537     N
N       0.3017   0.0081  0.88047     N
O      0.30416  0.26056  0.14684     O
C       0.3151   0.6537  0.09195     C
C       0.3166    0.759   0.3428     C
C       0.3215   0.5731  0.79195     C
H       0.3287   0.6145   0.0698     H
H       0.3293   0.5489   0.2876     H
C       0.3311   0.7933  0.12361     C
C       0.3317   0.6585  0.88801     C
H       0.3365   0.7955   0.3202     H
N       0.3371   0.7745  0.60415     N
C       0.3415   0.1969  0.42756     C
C       0.3415   0.6683  0.61199     C
O       0.3442   0.4266  0.01406     O
C       0.3463   0.6849  0.40805     C
Gd     0.34827  0.13073  0.68444    Gd
C       0.3521   0.7385  0.09143     C
C       0.3603   0.2547  0.36124     C
Gd     0.36086  0.20377   0.5586    Gd
C       0.3614   0.4028  0.26311     C
C       0.3626   0.2704  0.86846     C
O      0.36314  0.22954  0.73376     O
S      0.36339  0.72381  0.84171     S
H       0.3651   0.1395    0.448     H
S      0.37265  0.90797  0.12679     S
C       0.3748    0.742  0.37526     C
O      0.37984  0.23924  0.08587     O
C       0.3813   0.2223  0.90581     C
H       0.3818   0.0488   0.7905     H
C       0.3853   0.2133  0.12201     C
C       0.3853   0.4733  0.28389     C
H       0.3855   0.6713   0.4302     H
H       0.3863   0.8673   0.5625     H
H       0.3878   0.5116   0.5944     H
C       0.3888   0.7936  0.56897     C
C       0.3897   0.0157  0.81595     C
C       0.3899   0.5831  0.58766     C
H       0.3909   0.7577   0.0693     H
H       0.3955   0.2399   0.3362     H
C       0.3958   0.5576  0.94741     C
C       0.3972    0.169  0.39138     C
C       0.4028   0.3614  0.76311     C
C       0.4046   0.9236   0.8902     C
H       0.4103   0.8913   0.9158     H
C       0.4169   0.6101  0.91234     C
H        0.421   0.2434   0.8485     H
O       0.4266   0.3442  0.51406     O
C       0.4269   0.6785  0.70805     C
C        0.433   0.4906  0.79905     C
H       0.4358   0.2436   0.2435     H
C       0.4398   0.2454  0.74768     C
H       0.4423   0.0971   0.1913     H
C       0.4424   0.6042  0.55259     C
C       0.4443   0.7119  0.54248     C
N      0.44594  0.74874  0.72834     N
C       0.4498    0.292  0.25765     C
H       0.4511   0.6707   0.2124     H
H        0.454    0.523   0.9645     H
O      0.45644  0.82984  0.24963     O
C       0.4687   0.7823  0.37506     C
O      0.46988  0.97028  0.64929     O
O      0.47121  0.01781  0.58606     O
C       0.4733   0.3853  0.78389     C
H        0.477    0.546   0.5355     H
H       0.4792   0.5064   0.8137     H
S       0.4863  0.89476  0.07967     S
O      0.48734  0.84114  0.49514     O
H       0.4884   0.6122   0.9056     H
C       0.4906    0.433  0.29905     C
O       0.4907   0.2273  0.59354     O
C       0.4922   0.0508  0.38517     C
C       0.4935   0.9293  0.82674     C
H       0.4936   0.5208   0.6863     H
C       0.4961   0.2623  0.49439     C
O      0.49728  0.82408  0.34318     O
C       0.4976   0.1188  0.13523     C
C       0.5024   0.8812  0.86477     C
O      0.50272  0.17592  0.65682     O
C       0.5039   0.7377  0.50561     C
H       0.5064   0.4792   0.3137     H
C       0.5065   0.0707  0.17326     C
C       0.5078   0.9492  0.61483     C
O       0.5093   0.7727  0.40646     O
C       0.5094    0.567  0.70095     C
H       0.5116   0.3878   0.0944     H
O      0.51266  0.15886  0.50486     O
S       0.5137  0.10524  0.92033     S
H       0.5208   0.4936   0.1863     H
H        0.523    0.454   0.4645     H
C       0.5267   0.6147  0.21611     C
O      0.52879  0.98219  0.41394     O
O      0.53012  0.02972  0.35071     O
C       0.5313   0.2177  0.62494     C
O      0.54356  0.17016  0.75037     O
H        0.546    0.477   0.0355     H
H       0.5489   0.3293   0.7876     H
C       0.5502    0.708  0.74235     C
N      0.55406  0.25126  0.27166     N
C       0.5557   0.2881  0.45752     C
C       0.5576   0.3958  0.44741     C
H       0.5577   0.9029   0.8087     H
C       0.5602   0.7546  0.25232     C
H       0.5642   0.7564   0.7565     H
C        0.567   0.5094  0.20095     C
C       0.5731   0.3215  0.29195     C
O       0.5734   0.6558  0.48594     O
H        0.579   0.7566   0.1515     H
C       0.5831   0.3899  0.08766     C
H       0.5897   0.1087   0.0842     H
C       0.5954   0.0764   0.1098     C
C       0.5972   0.6386  0.23689     C
C       0.6028    0.831  0.60862     C
C       0.6042   0.4424  0.05259     C
H       0.6045   0.7601   0.6638     H
H       0.6091   0.2423   0.9307     H
C       0.6101   0.4169  0.41234     C
C       0.6103   0.9843  0.18405     C
C       0.6112   0.2064  0.43103     C
H       0.6122   0.4884   0.4056     H
H       0.6137   0.1327   0.4375     H
H       0.6145   0.3287   0.5698     H
C       0.6147   0.5267  0.71611     C
C       0.6147   0.7867  0.87799     C
H       0.6182   0.9512   0.2095     H
C       0.6187   0.7777  0.09419     C
O      0.62016  0.76076  0.91413     O
C       0.6252    0.258  0.62474     C
S      0.62735  0.09203  0.87321     S
H       0.6349   0.8605    0.552     H
S      0.63661  0.27619  0.15829     S
O      0.63686  0.77046  0.26624     O
C       0.6374   0.7296  0.13154     C
C       0.6386   0.5972  0.73689     C
Gd     0.63914  0.79623   0.4414    Gd
C       0.6397   0.7453  0.63876     C
C       0.6479   0.2615  0.90857     C
Gd     0.65173  0.86927  0.31557    Gd
C       0.6537   0.3151  0.59195     C
O       0.6558   0.5734  0.98594     O
C       0.6585   0.3317  0.38801     C
C       0.6585   0.8031  0.57244     C
N       0.6629   0.2255  0.39585     N
H       0.6635   0.2045   0.6798     H
C       0.6683   0.3415  0.11199     C
C       0.6689   0.2067  0.87639     C
H       0.6707   0.4511   0.7124     H
H       0.6713   0.3855   0.9302     H
C       0.6785   0.4269  0.20805     C
C       0.6834    0.241   0.6572     C
C       0.6849   0.3463  0.90805     C
O      0.69584  0.73944  0.85316     O
N       0.6983   0.9919  0.11953     N
N       0.6988   0.7444  0.06463     N
C       0.7029   0.9475   0.1564     C
C        0.708   0.5502  0.24235     C
C       0.7119   0.4443  0.04248     C
S      0.71668   0.2516  0.30748     S
N       0.7238   0.2302  0.84294     N
S      0.72381  0.36339  0.34171     S
C       0.7296   0.6374  0.63154     C
C       0.7377   0.5039  0.00561     C
C       0.7385   0.3521  0.59143     C
O      0.73944  0.69584  0.35316     O
C        0.742   0.3748  0.87526     C
N       0.7444   0.6988  0.56463     N
C       0.7453   0.6397  0.13876     C
S       0.7484  0.28332  0.19252     S
N      0.74874  0.44594  0.22834     N
C       0.7546   0.5602  0.75232     C
H       0.7564   0.5642   0.2565     H
H       0.7566    0.579   0.6515     H
H       0.7577   0.3909   0.5693     H
C        0.759   0.3166   0.8428     C
H       0.7601   0.6045   0.1638     H
O      0.76076  0.62016  0.41413     O
N       0.7698   0.2762  0.65706     N
O      0.77046  0.63686  0.76624     O
O       0.7727   0.5093  0.90646     O
N       0.7745   0.3371  0.10415     N
C       0.7777   0.6187  0.59419     C
O      0.78151  0.89671  0.34861     O
C       0.7823   0.4687  0.87506     C
C       0.7867   0.6147  0.37799     C
O      0.78914  0.84254  0.41167     O
C       0.7933   0.3311  0.62361     C
C       0.7936   0.3888  0.06897     C
H       0.7955   0.3365   0.8202     H
Gd     0.79623  0.63914   0.9414    Gd
C       0.8031   0.6585  0.07244     C
S      0.80732  0.94962  0.62547     S
C       0.8202   0.8854  0.38065     C
O      0.82408  0.49728  0.84318     O
O      0.82984  0.45644  0.74963     O
C        0.831   0.6028  0.10862     C
S      0.83465  0.83523  0.67277     S
S      0.83523  0.83465  0.17277     S
O      0.84114  0.48734  0.99514     O
O      0.84254  0.78914  0.91167     O
H       0.8605   0.6349    0.052     H
H       0.8673   0.3863   0.0625     H
Gd     0.86927  0.65173  0.81557    Gd
H       0.8709   0.9567   0.9359     H
C       0.8812   0.5024  0.36477     C
C       0.8854   0.8202  0.88065     C
H       0.8913   0.4103   0.4158     H
S      0.89476   0.4863  0.57967     S
O      0.89671  0.78151  0.84861     O
H       0.9009   0.9951    0.326     H
H       0.9015   0.0611   0.5678     H
H       0.9029   0.5577   0.3087     H
S      0.90797  0.37265  0.62679     S
C       0.9095   0.9727  0.91306     C
C        0.912   0.9274  0.38091     C
C       0.9212   0.9954  0.62335     C
C       0.9236   0.4046   0.3902     C
C       0.9274    0.912  0.88091     C
C       0.9293   0.4935  0.32674     C
H       0.9389   0.0985   0.9322     H
C        0.941   0.9834  0.34776     C
C       0.9428   0.0506   0.5891     C
C       0.9475   0.7029   0.6564     C
C       0.9492   0.5078  0.11483     C
C       0.9494   0.0572   0.9109     C
S      0.94962  0.80732  0.12547     S
H       0.9512   0.6182   0.7095     H
H       0.9567   0.8709   0.4359     H
O      0.97028  0.46988  0.14929     O
C       0.9727   0.9095  0.41306     C
N       0.9759   0.9777  0.65516     N
N       0.9777   0.9759  0.15516     N
O      0.98219  0.52879  0.91394     O
C       0.9834    0.941  0.84776     C
C       0.9843   0.6103  0.68405     C
N       0.9919   0.6983  0.61953     N
H       0.9951   0.9009    0.826     H
C       0.9954   0.9212  0.12335     C
