data_I
_chemical_name_common  '/home/zhangsd/repos/MofS-CGCNN/CGCNN_MT/data/TS_external_test/clean_cifs/HEBTAL_clean'
_cell_length_a  7.33520
_cell_length_b 11.32000
_cell_length_c 17.67600
_cell_angle_alpha 90.00000
_cell_angle_beta  90.12000
_cell_angle_gamma 90.00000
_space_group_name_H-M_alt      'P 1'


loop_
_space_group_symop_operation_xyz
  'x, y, z' 

loop_
_atom_site_label
_atom_site_fract_x
_atom_site_fract_y
_atom_site_fract_z
_atom_site_type_symbol
Co         0.0      0.0      0.5    Co
Co         0.0      0.5      0.0    Co
H        0.039   0.5078   0.1915     H
H        0.039   0.9922   0.6915     H
C       0.0451    0.035  0.73635     C
C       0.0451    0.465  0.23635     C
C       0.0664  0.15904  0.87204     C
C       0.0664  0.34096  0.37204     C
H       0.0752   0.1995   0.9177     H
H       0.0752   0.3005   0.4177     H
O       0.0823  0.62399   0.0729     O
O       0.0823  0.87601   0.5729     O
C      0.09259  0.67339  0.67346     C
C      0.09259  0.82661  0.17346     C
C      0.10196  0.61031  0.74355     C
C      0.10196  0.88969  0.24355     C
O      0.13034  0.58055  0.90803     O
O      0.13034  0.91945  0.40803     O
C       0.1951  0.02432  0.78158     C
C       0.1951  0.47568  0.28158     C
C       0.2057  0.08736  0.85015     C
C       0.2057  0.41264  0.35015     C
C      0.23394  0.67147  0.08414     C
C      0.23394  0.82853  0.58414     C
C      0.24434  0.74477  0.65072     C
C      0.24434  0.75523  0.15072     C
C      0.26333  0.62197  0.78913     C
C      0.26333  0.87803  0.28913     C
C      0.27349  0.57457  0.86923     C
C      0.27349  0.92543  0.36923     C
H       0.2906   0.5247   0.2671     H
H       0.2906   0.9753   0.7671     H
H        0.308   0.0832   0.8823     H
H        0.308   0.4168   0.3823     H
O       0.3778   0.6525  0.04748     O
O       0.3778   0.8475  0.54748     O
C       0.4006  0.74585  0.69327     C
C       0.4006  0.75415  0.19327     C
C       0.4093  0.68417  0.76254     C
C       0.4093  0.81583  0.26254     C
O      0.42577  0.53864  0.89176     O
O      0.42577  0.96136  0.39176     O
H        0.479   0.1901    0.708     H
H        0.479   0.3099    0.208     H
H        0.494   0.2049   0.3229     H
H        0.494   0.2951   0.8229     H
Co         0.5      0.0      0.5    Co
Co         0.5      0.5      0.0    Co
H        0.506   0.7049   0.1771     H
H        0.506   0.7951   0.6771     H
H        0.521   0.6901    0.792     H
H        0.521   0.8099    0.292     H
O      0.57423  0.03864  0.60824     O
O      0.57423  0.46136  0.10824     O
C       0.5907  0.18417  0.73746     C
C       0.5907  0.31583  0.23746     C
C       0.5994  0.24585  0.80673     C
C       0.5994  0.25415  0.30673     C
O       0.6222   0.1525  0.45252     O
O       0.6222   0.3475  0.95252     O
H        0.692   0.5832   0.6177     H
H        0.692   0.9168   0.1177     H
H       0.7094   0.0247   0.2329     H
H       0.7094   0.4753   0.7329     H
C      0.72651  0.07457  0.63077     C
C      0.72651  0.42543  0.13077     C
C      0.73667  0.12197  0.71087     C
C      0.73667  0.37803  0.21087     C
C      0.75566  0.24477  0.84928     C
C      0.75566  0.25523  0.34928     C
C      0.76606  0.17147  0.41586     C
C      0.76606  0.32853  0.91586     C
C       0.7943  0.58736  0.64985     C
C       0.7943  0.91264  0.14985     C
C       0.8049  0.52432  0.71842     C
C       0.8049  0.97568  0.21842     C
O      0.86966  0.08055  0.59197     O
O      0.86966  0.41945  0.09197     O
C      0.89804  0.11031  0.75645     C
C      0.89804  0.38969  0.25645     C
C      0.90741  0.17339  0.82654     C
C      0.90741  0.32661  0.32654     C
O       0.9177  0.12399   0.4271     O
O       0.9177  0.37601   0.9271     O
H       0.9248   0.6995   0.5823     H
H       0.9248   0.8005   0.0823     H
C       0.9336  0.65904  0.62796     C
C       0.9336  0.84096  0.12796     C
C       0.9549    0.535  0.76365     C
C       0.9549    0.965  0.26365     C
H        0.961   0.0078   0.3085     H
H        0.961   0.4922   0.8085     H
