data_I
_chemical_name_common  '/home/zhangsd/repos/MofS-CGCNN/CGCNN_MT/data/TS_external_test/clean_cifs/IRAHUF_clean'
_cell_length_a 15.85000
_cell_length_b 10.13570
_cell_length_c 18.50600
_cell_angle_alpha 90.00000
_cell_angle_beta  90.00000
_cell_angle_gamma 90.00000
_space_group_name_H-M_alt      'P 1'


loop_
_space_group_symop_operation_xyz
  'x, y, z' 

loop_
_atom_site_label
_atom_site_fract_x
_atom_site_fract_y
_atom_site_fract_z
_atom_site_type_symbol
F      0.00294   0.0918  0.19666     F
F      0.00294   0.4082  0.69666     F
Ga     0.00855  0.15319  0.09447    Ga
Ga     0.00855  0.34681  0.59447    Ga
O       0.0127   0.1518  0.73334     O
O       0.0127   0.3482  0.23334     O
P      0.01529  0.13661  0.92199     P
P      0.01529  0.36339  0.42199     P
O       0.0212   0.2064  0.99482     O
O       0.0212   0.2936  0.49482     O
Ga     0.04125  0.18495    0.282    Ga
Ga     0.04125  0.31505    0.782    Ga
O      0.05238   0.5033   0.4289     O
O      0.05238   0.9967   0.9289     O
O      0.06088   0.7027  0.88532     O
O      0.06088   0.7973  0.38532     O
P      0.06267  0.62125  0.81458     P
P      0.06267  0.87875  0.31458     P
O       0.0635   0.0247  0.33631     O
O       0.0635   0.4753  0.83631     O
O      0.06959   0.2135  0.86787     O
O      0.06959   0.2865  0.36787     O
F      0.07636    0.673  0.18639     F
F      0.07636    0.827  0.68639     F
O      0.07725   0.6226  0.59998     O
O      0.07725   0.8774  0.09998     O
O      0.12155   0.1839   0.1077     O
O      0.12155   0.3161   0.6077     O
O      0.14594   0.6535  0.77537     O
O      0.14594   0.8465  0.27537     O
Ga     0.14981  0.66565  0.67455    Ga
Ga     0.14981  0.83435  0.17455    Ga
O        0.155   0.1932  0.24227     O
O        0.155   0.3068  0.74227     O
P      0.18552  0.14991  0.16751     P
P      0.18552  0.35009  0.66751     P
O       0.2074   0.0025  0.16684     O
O       0.2074   0.4975  0.66684     O
O      0.23515   0.7267  0.14587     O
O      0.23515   0.7733  0.64587     O
O      0.26485   0.2267  0.14587     O
O      0.26485   0.2733  0.64587     O
O       0.2926   0.5025  0.16684     O
O       0.2926   0.9975  0.66684     O
P      0.31448  0.64991  0.16751     P
P      0.31448  0.85009  0.66751     P
O        0.345   0.6932  0.24227     O
O        0.345   0.8068  0.74227     O
Ga     0.35019  0.16565  0.67455    Ga
Ga     0.35019  0.33435  0.17455    Ga
O      0.35406   0.1535  0.77537     O
O      0.35406   0.3465  0.27537     O
O      0.37845   0.6839   0.1077     O
O      0.37845   0.8161   0.6077     O
O      0.42275   0.1226  0.59998     O
O      0.42275   0.3774  0.09998     O
F      0.42364    0.173  0.18639     F
F      0.42364    0.327  0.68639     F
O      0.43041   0.7135  0.86787     O
O      0.43041   0.7865  0.36787     O
O       0.4365   0.5247  0.33631     O
O       0.4365   0.9753  0.83631     O
P      0.43733  0.12125  0.81458     P
P      0.43733  0.37875  0.31458     P
O      0.43912   0.2027  0.88532     O
O      0.43912   0.2973  0.38532     O
O      0.44762   0.0033   0.4289     O
O      0.44762   0.4967   0.9289     O
Ga     0.45875  0.68495    0.282    Ga
Ga     0.45875  0.81505    0.782    Ga
O       0.4788   0.7064  0.99482     O
O       0.4788   0.7936  0.49482     O
P      0.48471  0.63661  0.92199     P
P      0.48471  0.86339  0.42199     P
O       0.4873   0.6518  0.73334     O
O       0.4873   0.8482  0.23334     O
Ga     0.49145  0.65319  0.09447    Ga
Ga     0.49145  0.84681  0.59447    Ga
F      0.49706   0.5918  0.19666     F
F      0.49706   0.9082  0.69666     F
F      0.50294   0.0918  0.30334     F
F      0.50294   0.4082  0.80334     F
Ga     0.50855  0.15319  0.40553    Ga
Ga     0.50855  0.34681  0.90553    Ga
O       0.5127   0.1518  0.76666     O
O       0.5127   0.3482  0.26666     O
P      0.51529  0.13661  0.57801     P
P      0.51529  0.36339  0.07801     P
O       0.5212   0.2064  0.50518     O
O       0.5212   0.2936  0.00518     O
Ga     0.54125  0.18495    0.218    Ga
Ga     0.54125  0.31505    0.718    Ga
O      0.55238   0.5033   0.0711     O
O      0.55238   0.9967   0.5711     O
O      0.56088   0.7027  0.61468     O
O      0.56088   0.7973  0.11468     O
P      0.56267  0.62125  0.68542     P
P      0.56267  0.87875  0.18542     P
O       0.5635   0.0247  0.16369     O
O       0.5635   0.4753  0.66369     O
O      0.56959   0.2135  0.63213     O
O      0.56959   0.2865  0.13213     O
F      0.57636    0.673  0.31361     F
F      0.57636    0.827  0.81361     F
O      0.57725   0.6226  0.90002     O
O      0.57725   0.8774  0.40002     O
O      0.62155   0.1839   0.3923     O
O      0.62155   0.3161   0.8923     O
O      0.64594   0.6535  0.72463     O
O      0.64594   0.8465  0.22463     O
Ga     0.64981  0.66565  0.82545    Ga
Ga     0.64981  0.83435  0.32545    Ga
O        0.655   0.1932  0.25773     O
O        0.655   0.3068  0.75773     O
P      0.68552  0.14991  0.33249     P
P      0.68552  0.35009  0.83249     P
O       0.7074   0.0025  0.33316     O
O       0.7074   0.4975  0.83316     O
O      0.73515   0.7267  0.35413     O
O      0.73515   0.7733  0.85413     O
O      0.76485   0.2267  0.35413     O
O      0.76485   0.2733  0.85413     O
O       0.7926   0.5025  0.33316     O
O       0.7926   0.9975  0.83316     O
P      0.81448  0.64991  0.33249     P
P      0.81448  0.85009  0.83249     P
O        0.845   0.6932  0.25773     O
O        0.845   0.8068  0.75773     O
Ga     0.85019  0.16565  0.82545    Ga
Ga     0.85019  0.33435  0.32545    Ga
O      0.85406   0.1535  0.72463     O
O      0.85406   0.3465  0.22463     O
O      0.87845   0.6839   0.3923     O
O      0.87845   0.8161   0.8923     O
O      0.92275   0.1226  0.90002     O
O      0.92275   0.3774  0.40002     O
F      0.92364    0.173  0.31361     F
F      0.92364    0.327  0.81361     F
O      0.93041   0.7135  0.63213     O
O      0.93041   0.7865  0.13213     O
O       0.9365   0.5247  0.16369     O
O       0.9365   0.9753  0.66369     O
P      0.93733  0.12125  0.68542     P
P      0.93733  0.37875  0.18542     P
O      0.93912   0.2027  0.61468     O
O      0.93912   0.2973  0.11468     O
O      0.94762   0.0033   0.0711     O
O      0.94762   0.4967   0.5711     O
Ga     0.95875  0.68495    0.218    Ga
Ga     0.95875  0.81505    0.718    Ga
O       0.9788   0.7064  0.50518     O
O       0.9788   0.7936  0.00518     O
P      0.98471  0.63661  0.57801     P
P      0.98471  0.86339  0.07801     P
O       0.9873   0.6518  0.76666     O
O       0.9873   0.8482  0.26666     O
Ga     0.99145  0.65319  0.40553    Ga
Ga     0.99145  0.84681  0.90553    Ga
F      0.99706   0.5918  0.30334     F
F      0.99706   0.9082  0.80334     F
