data_I
_chemical_name_common  '/home/zhangsd/repos/MofS-CGCNN/CGCNN_MT/data/TS_external_test/clean_cifs/OGAGIN_clean'
_cell_length_a  9.77140
_cell_length_b  9.97970
_cell_length_c 22.92290
_cell_angle_alpha 90.00000
_cell_angle_beta  91.53500
_cell_angle_gamma 90.00000
_space_group_name_H-M_alt      'P 1'


loop_
_space_group_symop_operation_xyz
  'x, y, z' 

loop_
_atom_site_label
_atom_site_fract_x
_atom_site_fract_y
_atom_site_fract_z
_atom_site_type_symbol
C      0.00772    0.039  0.87449     C
N      0.01817  0.22139  0.94222     N
H       0.0194   0.0783   0.6081     H
O      0.02115  0.62301  0.93091     O
C       0.0238  0.17336  0.60816     C
O      0.02551  0.84724  0.56117     O
H       0.0373   0.9517   0.8643     H
C      0.04061  0.44413  0.60805     C
H       0.0441   0.5392   0.6068     H
C      0.04586  0.62421  0.43035     C
H       0.0543   0.9752   0.2423     H
N      0.05513  0.75909  0.43079     N
C      0.05727  0.09781  0.92539     C
C       0.0746  0.71468   0.0917     C
C      0.08516  0.89327  0.16191     C
H       0.1007   0.5743   0.4574     H
H       0.1053   0.6289   0.0798     H
Zn     0.10752  0.31796  0.01087    Zn
C      0.11109  0.23525   0.6482     C
H        0.121   0.0496   0.9494     H
C      0.12259  0.37468  0.64852     C
C       0.1276   0.7679  0.14326     C
P      0.13098  0.16294  0.44619     P
C       0.1349  0.95615  0.21839     C
Zn     0.15362  0.85883   0.4963    Zn
H       0.1631   0.1831   0.6754     H
P      0.17224  0.58749  0.94015     P
O      0.17393  0.29316  0.47479     O
H       0.1757   0.5336   0.7008     H
H       0.1781   0.0431   0.2093     H
H       0.1785  0.16485   0.3947     H
H        0.182   0.3542   0.7682     H
H       0.1931   0.7187   0.1659     H
O      0.19313   0.0416  0.47651     O
H       0.1938   0.7875   0.2656     H
O      0.19595  0.48194  0.98692     O
H       0.1973   0.9716   0.3321     H
H       0.2108   0.5343   0.8917     H
C      0.21956  0.44845  0.68944     C
C      0.23645  0.87385  0.25507     C
O      0.24016  0.20861  0.05027     O
O      0.25984  0.70861  0.94973     O
C      0.26355  0.37385  0.74493     C
C      0.28044  0.94845  0.31056     C
H       0.2892   0.0343   0.1083     H
H       0.3027   0.4716   0.6679     H
O      0.30405  0.98194  0.01308     O
H       0.3062   0.2875   0.7344     H
O      0.30687   0.5416  0.52349     O
H       0.3069   0.2187   0.8341     H
H        0.318   0.8542   0.2318     H
H       0.3215  0.66485   0.6053     H
H       0.3219   0.5431   0.7907     H
H       0.3243   0.0336   0.2992     H
O      0.32607  0.79316  0.52521     O
P      0.32776  0.08749  0.05985     P
H       0.3369   0.6831   0.3246     H
Zn     0.34638  0.35883   0.5037    Zn
C       0.3651  0.45615  0.78161     C
P      0.36902  0.66294  0.55381     P
C       0.3724   0.2679  0.85674     C
C      0.37741  0.87468  0.35148     C
H        0.379   0.5496   0.0506     H
C      0.38891  0.73525   0.3518     C
Zn     0.39248  0.81796  0.98913    Zn
H       0.3947   0.1289   0.9202     H
H       0.3993   0.0743   0.5426     H
C      0.41484  0.39327  0.83809     C
C       0.4254  0.21468   0.9083     C
C      0.44273  0.59781  0.07461     C
N      0.44487  0.25909  0.56921     N
H       0.4457   0.4752   0.7577     H
C      0.45414  0.12421  0.56965     C
H       0.4559   0.0392   0.3932     H
C      0.45939  0.94413  0.39195     C
H       0.4627   0.4517   0.1357     H
O      0.47449  0.34724  0.43883     O
C       0.4762  0.67336  0.39184     C
O      0.47885  0.12301  0.06909     O
H       0.4806   0.5783   0.3919     H
N      0.48183  0.72139  0.05778     N
C      0.49228    0.539  0.12551     C
C      0.50772    0.461  0.87449     C
N      0.51817  0.27861  0.94222     N
H       0.5194   0.4217   0.6081     H
O      0.52115  0.87699  0.93091     O
C       0.5238  0.32664  0.60816     C
O      0.52551  0.65276  0.56117     O
H       0.5373   0.5483   0.8643     H
C      0.54061  0.05587  0.60805     C
H       0.5441   0.9608   0.6068     H
C      0.54586  0.87579  0.43035     C
H       0.5543   0.5248   0.2423     H
N      0.55513  0.74091  0.43079     N
C      0.55727  0.40219  0.92539     C
C       0.5746  0.78532   0.0917     C
C      0.58516  0.60673  0.16191     C
H       0.6007   0.9257   0.4574     H
H       0.6053   0.8711   0.0798     H
Zn     0.60752  0.18204  0.01087    Zn
C      0.61109  0.26475   0.6482     C
H        0.621   0.4504   0.9494     H
C      0.62259  0.12532  0.64852     C
C       0.6276   0.7321  0.14326     C
P      0.63098  0.33706  0.44619     P
C       0.6349  0.54385  0.21839     C
Zn     0.65362  0.64117   0.4963    Zn
H       0.6631   0.3169   0.6754     H
P      0.67224  0.91251  0.94015     P
O      0.67393  0.20684  0.47479     O
H       0.6757   0.9664   0.7008     H
H       0.6781   0.4569   0.2093     H
H       0.6785  0.33515   0.3947     H
H        0.682   0.1458   0.7682     H
H       0.6931   0.7813   0.1659     H
O      0.69313   0.4584  0.47651     O
H       0.6938   0.7125   0.2656     H
O      0.69595  0.01806  0.98692     O
H       0.6973   0.5284   0.3321     H
H       0.7108   0.9657   0.8917     H
C      0.71956  0.05155  0.68944     C
C      0.73645  0.62615  0.25507     C
O      0.74016  0.29139  0.05027     O
O      0.75984  0.79139  0.94973     O
C      0.76355  0.12615  0.74493     C
C      0.78044  0.55155  0.31056     C
H       0.7892   0.4657   0.1083     H
H       0.8027   0.0284   0.6679     H
O      0.80405  0.51806  0.01308     O
H       0.8062   0.2125   0.7344     H
O      0.80687   0.9584  0.52349     O
H       0.8069   0.2813   0.8341     H
H        0.818   0.6458   0.2318     H
H       0.8215  0.83515   0.6053     H
H       0.8219   0.9569   0.7907     H
H       0.8243   0.4664   0.2992     H
O      0.82607  0.70684  0.52521     O
P      0.82776  0.41251  0.05985     P
H       0.8369   0.8169   0.3246     H
Zn     0.84638  0.14117   0.5037    Zn
C       0.8651  0.04385  0.78161     C
P      0.86902  0.83706  0.55381     P
C       0.8724   0.2321  0.85674     C
C      0.87741  0.62532  0.35148     C
H        0.879   0.9504   0.0506     H
C      0.88891  0.76475   0.3518     C
Zn     0.89248  0.68204  0.98913    Zn
H       0.8947   0.3711   0.9202     H
H       0.8993   0.4257   0.5426     H
C      0.91484  0.10673  0.83809     C
C       0.9254  0.28532   0.9083     C
C      0.94273  0.90219  0.07461     C
N      0.94487  0.24091  0.56921     N
H       0.9457   0.0248   0.7577     H
C      0.95414  0.37579  0.56965     C
H       0.9559   0.4608   0.3932     H
C      0.95939  0.55587  0.39195     C
H       0.9627   0.0483   0.1357     H
O      0.97449  0.15276  0.43883     O
C       0.9762  0.82664  0.39184     C
O      0.97885  0.37699  0.06909     O
H       0.9806   0.9217   0.3919     H
N      0.98183  0.77861  0.05778     N
C      0.99228    0.961  0.12551     C
