data_I
_chemical_name_common  '/home/zhangsd/repos/MofS-CGCNN/CGCNN_MT/data/TS_external_test/clean_cifs/ORULEU_clean'
_cell_length_a 11.54500
_cell_length_b 20.22500
_cell_length_c 14.39000
_cell_angle_alpha 90.00000
_cell_angle_beta  90.52800
_cell_angle_gamma 90.00000
_space_group_name_H-M_alt      'P 1'


loop_
_space_group_symop_operation_xyz
  'x, y, z' 

loop_
_atom_site_label
_atom_site_fract_x
_atom_site_fract_y
_atom_site_fract_z
_atom_site_type_symbol
H       0.0028   0.5195   0.2783     H
C      0.01172  0.65564  0.35489     C
O       0.0177  0.74382    0.871     O
H       0.0221   0.5364   0.5845     H
O       0.0337  0.66478  0.43872     O
O       0.0449  0.84392   0.9333     O
C       0.0476  0.51634    0.719     C
H       0.0523   0.3197   0.8141     H
C       0.0635  0.55017   0.6367     C
H       0.0683     0.62    0.949     H
H       0.0705   0.4622   0.8775     H
C       0.0766  0.79599   0.8854     C
O       0.0801  0.63397  0.29518     O
N       0.0981   0.5017     0.88     N
C       0.1073   0.5924   0.9904     C
C       0.1079  0.53669   0.7973     C
C       0.1083  0.32739   0.6819     C
H       0.1161   0.7668   0.7135     H
C        0.117  0.31391    0.777     C
H       0.1285   0.6596   0.0898     H
C       0.1301  0.52684   0.9669     C
N       0.1359  0.60212  0.62836     N
H        0.141    0.137    0.088     H
C       0.1432  0.61553   0.0755     C
Co      0.1478  0.25533  0.09642    Co
O       0.1486  0.29687  0.97164     O
C       0.1825  0.48666   0.0335     C
O        0.183  0.54205   0.4597     O
C      0.18404  0.59052  0.78913     C
C       0.1843  0.78362   0.7389     C
Co     0.18808  0.63856  0.49943    Co
C       0.1886  0.80002   0.8329     C
C       0.1923  0.62074   0.7048     C
O       0.1943   0.7365   0.5546     O
H       0.1951    0.442   0.0219     H
O      0.19691  0.16218  0.10261     O
N       0.1984  0.57837  0.13963     N
H       0.2008   0.4407   0.5547     H
C       0.2072  0.32203  0.62589     C
C       0.2088  0.34346   0.5262     C
C         0.21  0.41049   0.5066     C
C       0.2154   0.5146   0.1177     C
C       0.2193  0.29859   0.4529     C
H       0.2196   0.2534    0.465     H
C         0.22  0.29195   0.8173     C
C       0.2247  0.43359   0.4165     C
C       0.2256   0.2738   0.9184     C
O       0.2259  0.29922  0.20062     O
C       0.2266  0.50665   0.3984     C
H       0.2275   0.6051   0.8398     H
C       0.2294  0.32132   0.3615     C
O       0.2298  0.02695  0.17615     O
C        0.231  0.27378   0.2814     C
C       0.2337  0.38882   0.3438     C
O       0.2357  0.21383  0.29888     O
H       0.2412   0.6571   0.7004     H
H       0.2426    0.404   0.2833     H
Co     0.24613  0.12178  0.23127    Co
H       0.2487   0.9876   0.3385     H
H       0.2513   0.4876   0.1615     H
Co     0.25387  0.62178  0.26873    Co
H       0.2574    0.904   0.2167     H
H       0.2588   0.1571   0.7996     H
O       0.2643  0.71383  0.20112     O
C       0.2663  0.88882   0.1562     C
C        0.269  0.77378   0.2186     C
O       0.2702  0.52695  0.32385     O
C       0.2706  0.82132   0.1385     C
H       0.2725   0.1051   0.6602     H
C       0.2734  0.00665   0.1016     C
O       0.2741  0.79922  0.29938     O
C       0.2744   0.7738   0.5816     C
C       0.2753  0.93359   0.0835     C
C         0.28  0.79195   0.6827     C
H       0.2804   0.7534    0.035     H
C       0.2807  0.79859   0.0471     C
C       0.2846   0.0146   0.3823     C
C         0.29  0.91049   0.9934     C
C       0.2912  0.84346   0.9738     C
C       0.2928  0.82203  0.87411     C
H       0.2992   0.9407   0.9453     H
N       0.3016  0.07837  0.36037     N
O      0.30309  0.66218  0.39739     O
H       0.3049    0.942   0.4781     H
O       0.3057   0.2365   0.9454     O
C       0.3077  0.12074   0.7952     C
C       0.3114  0.30002   0.6671     C
Co     0.31192  0.13856  0.00057    Co
C       0.3157  0.28362   0.7611     C
C      0.31596  0.09052  0.71087     C
O        0.317  0.04205   0.0403     O
C       0.3175  0.98666   0.4665     C
O       0.3514  0.79687  0.52836     O
Co      0.3522  0.75533  0.40358    Co
C       0.3568  0.11553   0.4245     C
H        0.359    0.637    0.412     H
N       0.3641  0.10212  0.87164     N
C       0.3699  0.02684   0.5331     C
H       0.3715   0.1596   0.4102     H
C        0.383  0.81391    0.723     C
H       0.3839   0.2668   0.7865     H
C       0.3917  0.82739   0.8181     C
C       0.3921  0.03669   0.7027     C
C       0.3927   0.0924   0.5096     C
N       0.4019   0.0017     0.62     N
O       0.4199  0.13397  0.20482     O
C       0.4234  0.29599   0.6146     C
H       0.4295   0.9622   0.6225     H
H       0.4317     0.12    0.551     H
C       0.4365  0.05017   0.8633     C
H       0.4477   0.8197   0.6859     H
C       0.4524  0.01634    0.781     C
O       0.4551  0.34392   0.5667     O
O       0.4663  0.16478  0.06128     O
H       0.4779   0.0364   0.9155     H
O       0.4823  0.24382    0.629     O
C      0.48828  0.15564  0.14511     C
H       0.4972   0.0195   0.2217     H
H       0.5028   0.9805   0.7783     H
C      0.51172  0.84436  0.85489     C
O       0.5177  0.75618    0.371     O
H       0.5221   0.9636   0.0845     H
O       0.5337  0.83522  0.93872     O
O       0.5449  0.65608   0.4333     O
C       0.5476  0.98366    0.219     C
H       0.5523   0.1803   0.3141     H
C       0.5635  0.94983   0.1367     C
H       0.5683     0.88    0.449     H
H       0.5705   0.0378   0.3775     H
C       0.5766  0.70401   0.3854     C
O       0.5801  0.86603  0.79518     O
N       0.5981   0.9983     0.38     N
C       0.6073   0.9076   0.4904     C
C       0.6079  0.96331   0.2973     C
C       0.6083  0.17261   0.1819     C
H       0.6161   0.7332   0.2135     H
C        0.617  0.18609    0.277     C
H       0.6285   0.8404   0.5898     H
C       0.6301  0.97316   0.4669     C
N       0.6359  0.89788  0.12836     N
H        0.641    0.363    0.588     H
C       0.6432  0.88447   0.5755     C
Co      0.6478  0.24467  0.59642    Co
O       0.6486  0.20313  0.47164     O
C       0.6825  0.01334   0.5335     C
O        0.683  0.95795   0.9597     O
C      0.68404  0.90948  0.28913     C
C       0.6843  0.71638   0.2389     C
Co     0.68808  0.86144  0.99943    Co
C       0.6886  0.69998   0.3329     C
C       0.6923  0.87926   0.2048     C
O       0.6943   0.7635   0.0546     O
H       0.6951    0.058   0.5219     H
O      0.69691  0.33782  0.60261     O
N       0.6984  0.92163  0.63963     N
H       0.7008   0.0593   0.0547     H
C       0.7072  0.17797  0.12589     C
C       0.7088  0.15654   0.0262     C
C         0.71  0.08951   0.0066     C
C       0.7154   0.9854   0.6177     C
C       0.7193  0.20141   0.9529     C
H       0.7196   0.2466    0.965     H
C         0.72  0.20805   0.3173     C
C       0.7247  0.06641   0.9165     C
C       0.7256   0.2262   0.4184     C
O       0.7259  0.20078  0.70062     O
C       0.7266  0.99335   0.8984     C
H       0.7275   0.8949   0.3398     H
C       0.7294  0.17868   0.8615     C
O       0.7298  0.47305  0.67615     O
C        0.731  0.22622   0.7814     C
C       0.7337  0.11118   0.8438     C
O       0.7357  0.28617  0.79888     O
H       0.7412   0.8429   0.2004     H
H       0.7426    0.096   0.7833     H
Co     0.74613  0.37822  0.73127    Co
H       0.7487   0.5124   0.8385     H
H       0.7513   0.0124   0.6615     H
Co     0.75387  0.87822  0.76873    Co
H       0.7574    0.596   0.7167     H
H       0.7588   0.3429   0.2996     H
O       0.7643  0.78617  0.70112     O
C       0.7663  0.61118   0.6562     C
C        0.769  0.72622   0.7186     C
O       0.7702  0.97305  0.82385     O
C       0.7706  0.67868   0.6385     C
H       0.7725   0.3949   0.1602     H
C       0.7734  0.49335   0.6016     C
O       0.7741  0.70078  0.79938     O
C       0.7744   0.7262   0.0816     C
C       0.7753  0.56641   0.5835     C
C         0.78  0.70805   0.1827     C
H       0.7804   0.7466    0.535     H
C       0.7807  0.70141   0.5471     C
C       0.7846   0.4854   0.8823     C
C         0.79  0.58951   0.4934     C
C       0.7912  0.65654   0.4738     C
C       0.7928  0.67797  0.37411     C
H       0.7992   0.5593   0.4453     H
N       0.8016  0.42163  0.86037     N
O      0.80309  0.83782  0.89739     O
H       0.8049    0.558   0.9781     H
O       0.8057   0.2635   0.4454     O
C       0.8077  0.37926   0.2952     C
C       0.8114  0.19998   0.1671     C
Co     0.81192  0.36144  0.50057    Co
C       0.8157  0.21638   0.2611     C
C      0.81596  0.40948  0.21087     C
O        0.817  0.45795   0.5403     O
C       0.8175  0.51334   0.9665     C
O       0.8514  0.70313  0.02836     O
Co      0.8522  0.74467  0.90358    Co
C       0.8568  0.38447   0.9245     C
H        0.859    0.863    0.912     H
N       0.8641  0.39788  0.37164     N
C       0.8699  0.47316   0.0331     C
H       0.8715   0.3404   0.9102     H
C        0.883  0.68609    0.223     C
H       0.8839   0.2332   0.2865     H
C       0.8917  0.67261   0.3181     C
C       0.8921  0.46331   0.2027     C
C       0.8927   0.4076   0.0096     C
N       0.9019   0.4983     0.12     N
O       0.9199  0.36603  0.70482     O
C       0.9234  0.20401   0.1146     C
H       0.9295   0.5378   0.1225     H
H       0.9317     0.38    0.051     H
C       0.9365  0.44983   0.3633     C
H       0.9477   0.6803   0.1859     H
C       0.9524  0.48366    0.281     C
O       0.9551  0.15608   0.0667     O
O       0.9663  0.33522  0.56128     O
H       0.9779   0.4636   0.4155     H
O       0.9823  0.25618    0.129     O
C      0.98828  0.34436  0.64511     C
H       0.9972   0.4805   0.7217     H
