data_I
_chemical_name_common  '/home/zhangsd/repos/MofS-CGCNN/CGCNN_MT/data/TS_external_test/clean_cifs/POLBUN_clean'
_cell_length_a 10.15400
_cell_length_b 18.39300
_cell_length_c 15.77300
_cell_angle_alpha 90.00000
_cell_angle_beta  90.00000
_cell_angle_gamma 90.00000
_space_group_name_H-M_alt      'P 1'


loop_
_space_group_symop_operation_xyz
  'x, y, z' 

loop_
_atom_site_label
_atom_site_fract_x
_atom_site_fract_y
_atom_site_fract_z
_atom_site_type_symbol
O       0.0011   0.0666   0.5555     O
O       0.0011   0.4334   0.0555     O
O        0.005   0.6618   0.2105     O
O        0.005   0.8382   0.7105     O
O        0.023   0.6582   0.5558     O
O        0.023   0.8418   0.0558     O
F       0.0844   0.6961   0.0014     F
F       0.0844   0.8039   0.5014     F
P       0.1204    0.183   0.9372     P
P       0.1204    0.317   0.4372     P
O       0.1208    0.099   0.4232     O
O       0.1208    0.401   0.9232     O
O       0.1403   0.2258   0.8538     O
O       0.1403   0.2742   0.3538     O
P       0.1405   0.0759   0.5164     P
P       0.1405   0.4241   0.0164     P
Ga       0.149   0.5943   0.0036    Ga
Ga       0.149   0.9057   0.5036    Ga
P       0.1505   0.6683   0.1845     P
P       0.1505   0.8317   0.6845     P
O       0.1569   0.2292   0.0142     O
O       0.1569   0.2708   0.5142     O
Ga      0.1634    0.174   0.3512    Ga
Ga      0.1634    0.326   0.8512    Ga
F       0.1733   0.6858   0.4193     F
F       0.1733   0.8142   0.9193     F
Ga      0.1801   0.7179   0.5381    Ga
Ga      0.1801   0.7821   0.0381    Ga
O       0.1836   0.7454   0.1546     O
O       0.1836   0.7546   0.6546     O
O       0.1861     0.61    0.118     O
O       0.1861     0.89    0.618     O
O       0.2086   0.1145   0.9314     O
O       0.2086   0.3855   0.4314     O
O        0.214   0.0037   0.5198     O
O        0.214   0.4963   0.0198     O
O       0.2154   0.1332   0.5686     O
O       0.2154   0.3668   0.0686     O
O       0.2352   0.6462   0.2606     O
O       0.2352   0.8538   0.7606     O
O       0.2648   0.1462   0.2606     O
O       0.2648   0.3538   0.7606     O
O       0.2846   0.6332   0.5686     O
O       0.2846   0.8668   0.0686     O
O        0.286   0.5037   0.5198     O
O        0.286   0.9963   0.0198     O
O       0.2914   0.6145   0.9314     O
O       0.2914   0.8855   0.4314     O
O       0.3139     0.11    0.118     O
O       0.3139     0.39    0.618     O
O       0.3164   0.2454   0.1546     O
O       0.3164   0.2546   0.6546     O
Ga      0.3199   0.2179   0.5381    Ga
Ga      0.3199   0.2821   0.0381    Ga
F       0.3267   0.1858   0.4193     F
F       0.3267   0.3142   0.9193     F
Ga      0.3366    0.674   0.3512    Ga
Ga      0.3366    0.826   0.8512    Ga
O       0.3431   0.7292   0.0142     O
O       0.3431   0.7708   0.5142     O
P       0.3495   0.1683   0.1845     P
P       0.3495   0.3317   0.6845     P
Ga       0.351   0.0943   0.0036    Ga
Ga       0.351   0.4057   0.5036    Ga
P       0.3595   0.5759   0.5164     P
P       0.3595   0.9241   0.0164     P
O       0.3597   0.7258   0.8538     O
O       0.3597   0.7742   0.3538     O
O       0.3792    0.599   0.4232     O
O       0.3792    0.901   0.9232     O
P       0.3796    0.683   0.9372     P
P       0.3796    0.817   0.4372     P
F       0.4156   0.1961   0.0014     F
F       0.4156   0.3039   0.5014     F
O        0.477   0.1582   0.5558     O
O        0.477   0.3418   0.0558     O
O        0.495   0.1618   0.2105     O
O        0.495   0.3382   0.7105     O
O       0.4989   0.5666   0.5555     O
O       0.4989   0.9334   0.0555     O
O       0.5011   0.0666   0.9445     O
O       0.5011   0.4334   0.4445     O
O        0.505   0.6618   0.2895     O
O        0.505   0.8382   0.7895     O
O        0.523   0.6582   0.9442     O
O        0.523   0.8418   0.4442     O
F       0.5844   0.6961   0.4986     F
F       0.5844   0.8039   0.9986     F
P       0.6204    0.183   0.5628     P
P       0.6204    0.317   0.0628     P
O       0.6208    0.099   0.0768     O
O       0.6208    0.401   0.5768     O
O       0.6403   0.2258   0.6462     O
O       0.6403   0.2742   0.1462     O
P       0.6405   0.0759   0.9836     P
P       0.6405   0.4241   0.4836     P
Ga       0.649   0.5943   0.4964    Ga
Ga       0.649   0.9057   0.9964    Ga
P       0.6505   0.6683   0.3155     P
P       0.6505   0.8317   0.8155     P
O       0.6569   0.2292   0.4858     O
O       0.6569   0.2708   0.9858     O
Ga      0.6634    0.174   0.1488    Ga
Ga      0.6634    0.326   0.6488    Ga
F       0.6733   0.6858   0.0807     F
F       0.6733   0.8142   0.5807     F
Ga      0.6801   0.7179   0.9619    Ga
Ga      0.6801   0.7821   0.4619    Ga
O       0.6836   0.7454   0.3454     O
O       0.6836   0.7546   0.8454     O
O       0.6861     0.61    0.382     O
O       0.6861     0.89    0.882     O
O       0.7086   0.1145   0.5686     O
O       0.7086   0.3855   0.0686     O
O        0.714   0.0037   0.9802     O
O        0.714   0.4963   0.4802     O
O       0.7154   0.1332   0.9314     O
O       0.7154   0.3668   0.4314     O
O       0.7352   0.6462   0.2394     O
O       0.7352   0.8538   0.7394     O
O       0.7648   0.1462   0.2394     O
O       0.7648   0.3538   0.7394     O
O       0.7846   0.6332   0.9314     O
O       0.7846   0.8668   0.4314     O
O        0.786   0.5037   0.9802     O
O        0.786   0.9963   0.4802     O
O       0.7914   0.6145   0.5686     O
O       0.7914   0.8855   0.0686     O
O       0.8139     0.11    0.382     O
O       0.8139     0.39    0.882     O
O       0.8164   0.2454   0.3454     O
O       0.8164   0.2546   0.8454     O
Ga      0.8199   0.2179   0.9619    Ga
Ga      0.8199   0.2821   0.4619    Ga
F       0.8267   0.1858   0.0807     F
F       0.8267   0.3142   0.5807     F
Ga      0.8366    0.674   0.1488    Ga
Ga      0.8366    0.826   0.6488    Ga
O       0.8431   0.7292   0.4858     O
O       0.8431   0.7708   0.9858     O
P       0.8495   0.1683   0.3155     P
P       0.8495   0.3317   0.8155     P
Ga       0.851   0.0943   0.4964    Ga
Ga       0.851   0.4057   0.9964    Ga
P       0.8595   0.5759   0.9836     P
P       0.8595   0.9241   0.4836     P
O       0.8597   0.7258   0.6462     O
O       0.8597   0.7742   0.1462     O
O       0.8792    0.599   0.0768     O
O       0.8792    0.901   0.5768     O
P       0.8796    0.683   0.5628     P
P       0.8796    0.817   0.0628     P
F       0.9156   0.1961   0.4986     F
F       0.9156   0.3039   0.9986     F
O        0.977   0.1582   0.9442     O
O        0.977   0.3418   0.4442     O
O        0.995   0.1618   0.2895     O
O        0.995   0.3382   0.7895     O
O       0.9989   0.5666   0.9445     O
O       0.9989   0.9334   0.4445     O
