data_I
_chemical_name_common  '/home/zhangsd/repos/MofS-CGCNN/CGCNN_MT/data/TS_external_test/clean_cifs/QAVYUJ_clean'
_cell_length_a  7.29180
_cell_length_b  9.34000
_cell_length_c 14.12900
_cell_angle_alpha 83.81600
_cell_angle_beta  85.46100
_cell_angle_gamma 72.64600
_space_group_name_H-M_alt      'P 1'


loop_
_space_group_symop_operation_xyz
  'x, y, z' 

loop_
_atom_site_label
_atom_site_fract_x
_atom_site_fract_y
_atom_site_fract_z
_atom_site_type_symbol
H       0.0105    0.559   0.1411     H
C       0.0238   0.4291   0.2662     C
C       0.0698   0.4642   0.1706     C
H       0.0815   0.2631    0.374     H
C       0.1114   0.2869   0.3101     C
C       0.1274   0.4575   0.6798     C
O       0.1617   0.4825   0.5924     O
H       0.1627    0.462   0.9961     H
H       0.1936   0.8292   0.9021     H
C       0.2041    0.358    0.119     C
H       0.2165   0.8778   0.7347     H
O       0.2246   0.3403    0.726     O
C       0.2443   0.1802    0.258     C
C       0.2644    0.762   0.8593     C
N       0.2657    0.398   0.0244     N
N       0.2746   0.7936    0.765     N
O       0.2788   0.9896   0.3884     O
C       0.2886   0.2157   0.1629     C
H       0.2998   0.3141   0.9934     H
C       0.3407   0.0273   0.3066     C
O       0.3515   0.6657   0.2601     O
N       0.3681    0.623   0.8836     N
O       0.3736   0.6435   0.1039     O
H       0.3757   0.1435   0.1281     H
C       0.3927   0.6701   0.7246     C
O       0.4046   0.8096   0.5782     O
C       0.4154   0.5949   0.1893     C
C       0.4441   0.6812   0.6211     C
C       0.4507   0.5625   0.7995     C
O       0.4775    0.437   0.4208     O
O       0.4801   0.9391   0.2651     O
La     0.49383  0.71445  0.40404    La
Ni         0.5      0.5      0.0    Ni
La     0.50617  0.28555  0.59596    La
O       0.5199   0.0609   0.7349     O
O       0.5225    0.563   0.5792     O
C       0.5493   0.4375   0.2005     C
C       0.5559   0.3188   0.3789     C
C       0.5846   0.4051   0.8107     C
O       0.5954   0.1904   0.4218     O
C       0.6073   0.3299   0.2754     C
H       0.6243   0.8565   0.8719     H
O       0.6264   0.3565   0.8961     O
N       0.6319    0.377   0.1164     N
O       0.6485   0.3343   0.7399     O
C       0.6593   0.9727   0.6934     C
H       0.7002   0.6859   0.0066     H
C       0.7114   0.7843   0.8371     C
O       0.7212   0.0104   0.6116     O
N       0.7254   0.2064    0.235     N
N       0.7343    0.602   0.9756     N
C       0.7356    0.238   0.1407     C
C       0.7557   0.8198    0.742     C
O       0.7754   0.6597    0.274     O
H       0.7835   0.1222   0.2653     H
C       0.7959    0.642    0.881     C
H       0.8064   0.1708   0.0979     H
H       0.8373    0.538   0.0039     H
O       0.8383   0.5175   0.4076     O
C       0.8726   0.5425   0.3202     C
C       0.8886   0.7131   0.6899     C
H       0.9185   0.7369    0.626     H
C       0.9302   0.5358   0.8294     C
C       0.9762   0.5709   0.7338     C
H       0.9895    0.441   0.8589     H
