data_I
_chemical_name_common  '/home/zhangsd/repos/MofS-CGCNN/CGCNN_MT/data/TS_external_test/clean_cifs/TUMDAI_clean'
_cell_length_a  9.81870
_cell_length_b 17.63980
_cell_length_c 12.07120
_cell_angle_alpha 90.00000
_cell_angle_beta  97.58200
_cell_angle_gamma 90.00000
_space_group_name_H-M_alt      'P 1'


loop_
_space_group_symop_operation_xyz
  'x, y, z' 

loop_
_atom_site_label
_atom_site_fract_x
_atom_site_fract_y
_atom_site_fract_z
_atom_site_type_symbol
N       0.0141  0.93318   0.0992     N
C       0.0146   0.8827   0.1793     C
N       0.0311  0.18496   0.8648     N
N       0.0342  0.10222   0.0004     N
C       0.0472   0.2561   0.8086     C
Zn     0.04872  0.04668   0.1564    Zn
C       0.0507   0.6308   0.2759     C
C       0.0588   0.9025   0.2965     C
C        0.061    0.173   0.9779     C
C       0.0663   0.6991   0.2204     C
O       0.0677   0.8271   0.7583     O
N       0.0681   0.8495   0.3745     N
H       0.0719   0.2814   0.0356     H
C       0.0788   0.3919   0.7028     C
N       0.0894  0.97612   0.3104     N
H       0.0895   0.4387   0.6659     H
H       0.1012   0.2195   0.1328     H
C       0.1171    0.873   0.4779     C
C       0.1174   0.2331   0.0569     C
H       0.1226   0.8376   0.5376     H
C       0.1428   0.9975   0.4131     C
O       0.1491  0.93688   0.8186     O
H       0.1539   0.7143    0.203     H
C         0.16   0.9465   0.5008     C
C       0.1647   0.8706   0.7824     C
O       0.1666  0.52942   0.3795     O
H       0.1695   0.0489   0.4261     H
C       0.1758   0.5833   0.3142     C
C       0.1768    0.277   0.7875     C
C        0.193   0.3465   0.7355     C
H       0.1995   0.9615   0.5736     H
O       0.2143  0.10366    0.221     O
H       0.2164   0.2381   0.0545     H
H       0.2466   0.7447    0.692     H
H       0.2534   0.2447    0.808     H
H       0.2836   0.7381   0.4455     H
O       0.2857  0.60366    0.279     O
H       0.3005   0.4615   0.9264     H
C        0.307   0.8465   0.7645     C
C       0.3232    0.777   0.7125     C
C       0.3242   0.0833   0.1858     C
H       0.3305   0.5489   0.0739     H
O       0.3334  0.02942   0.1205     O
C       0.3353   0.3706   0.7176     C
C         0.34   0.4465   0.9992     C
H       0.3461   0.2143    0.297     H
O       0.3509  0.43688   0.6814     O
C       0.3572   0.4975   0.0869     C
H       0.3774   0.3376   0.9624     H
C       0.3826   0.7331   0.4431     C
C       0.3829    0.373   0.0221     C
H       0.3988   0.7195   0.3672     H
H       0.4105   0.9387   0.8341     H
N       0.4106  0.47612   0.1896     N
C       0.4212   0.8919   0.7972     C
H       0.4281   0.7814   0.4644     H
N       0.4319   0.3495   0.1255     N
O       0.4323   0.3271   0.7417     O
C       0.4337   0.1991   0.2796     C
C        0.439    0.673   0.5221     C
C       0.4412   0.4025   0.2035     C
C       0.4493   0.1308   0.2241     C
Zn     0.45128  0.54668   0.3436    Zn
C       0.4528   0.7561   0.6914     C
N       0.4658  0.60222   0.4996     N
N       0.4689  0.68496   0.6352     N
C       0.4854   0.3827   0.3207     C
N       0.4859  0.43318   0.4008     N
N       0.5141  0.56682   0.5992     N
C       0.5146   0.6173   0.6793     C
N       0.5311  0.31504   0.3648     N
N       0.5342  0.39778   0.5004     N
C       0.5472   0.2439   0.3086     C
Zn     0.54872  0.45332   0.6564    Zn
C       0.5507   0.8692   0.7759     C
C       0.5588   0.5975   0.7965     C
C        0.561    0.327   0.4779     C
C       0.5663   0.8009   0.7204     C
O       0.5677   0.6729   0.2583     O
N       0.5681   0.6505   0.8745     N
H       0.5719   0.2186   0.5356     H
C       0.5788   0.1081   0.2028     C
N       0.5894  0.52388   0.8104     N
H       0.5895   0.0613   0.1659     H
H       0.6012   0.2805   0.6328     H
C       0.6171    0.627   0.9779     C
C       0.6174   0.2669   0.5569     C
H       0.6226   0.6624   0.0376     H
C       0.6428   0.5025   0.9131     C
O       0.6491  0.56312   0.3186     O
H       0.6539   0.7857    0.703     H
C         0.66   0.5535   0.0008     C
C       0.6647   0.6294   0.2824     C
O     0.66666667  0.97058   0.8795     O
H       0.6695   0.4511   0.9261     H
C       0.6758   0.9167   0.8142     C
C       0.6768    0.223   0.2875     C
C        0.693   0.1535   0.2355     C
H       0.6995   0.5385   0.0736     H
O       0.7143  0.39634    0.721     O
H       0.7164   0.2619   0.5545     H
H       0.7466   0.7553    0.192     H
H       0.7534   0.2553    0.308     H
H       0.7836   0.7619   0.9455     H
O       0.7857  0.89634    0.779     O
H       0.8005   0.0385   0.4264     H
C        0.807   0.6535   0.2645     C
C       0.8232    0.723   0.2125     C
C       0.8242   0.4167   0.6858     C
H       0.8305   0.9511   0.5739     H
O       0.8334  0.47058   0.6205     O
C       0.8353   0.1294   0.2176     C
C         0.84   0.0535   0.4992     C
H       0.8461   0.2857    0.797     H
O       0.8509  0.06312   0.1814     O
C       0.8572   0.0025   0.5869     C
H       0.8774   0.1624   0.4624     H
C       0.8826   0.7669   0.9431     C
C       0.8829    0.127   0.5221     C
H       0.8988   0.7805   0.8672     H
H       0.9105   0.5613   0.3341     H
N       0.9106  0.02388   0.6896     N
C       0.9212   0.6081   0.2972     C
H       0.9281   0.7186   0.9644     H
N       0.9319   0.1505   0.6255     N
O       0.9323   0.1729   0.2417     O
C       0.9337   0.3009   0.7796     C
C        0.939    0.827   0.0221     C
C       0.9412   0.0975   0.7035     C
C       0.9493   0.3692   0.7241     C
Zn     0.95128  0.95332   0.8436    Zn
C       0.9528   0.7439   0.1914     C
N       0.9658  0.89778   0.9996     N
N       0.9689  0.81504   0.1352     N
C       0.9854   0.1173   0.8207     C
N       0.9859  0.06682   0.9008     N
