data_I
_chemical_name_common  '/home/zhangsd/repos/MofS-CGCNN/ML/data/SSD/clean_cifs/ABESUX_clean'
_cell_length_a 15.51200
_cell_length_b 13.79530
_cell_length_c 13.01990
_cell_angle_alpha 90.00000
_cell_angle_beta  90.00000
_cell_angle_gamma 90.00000
_space_group_name_H-M_alt      'P 1'


loop_
_space_group_symop_operation_xyz
  'x, y, z' 

loop_
_atom_site_label
_atom_site_fract_x
_atom_site_fract_y
_atom_site_fract_z
_atom_site_type_symbol
U          0.0  0.11612  0.24394     U
U          0.0  0.88388  0.74394     U
O       0.0952   0.2387    0.306     O
O       0.0952   0.7613    0.806     O
O       0.1374   0.0534   0.2135     O
O       0.1374   0.9466   0.7135     O
P       0.1867   0.2421   0.3445     P
P       0.1867   0.7579   0.8445     P
O       0.1975   0.3278   0.4205     O
O       0.1975   0.6722   0.9205     O
O        0.209   0.1536   0.4141     O
O        0.209   0.8464   0.9141     O
O       0.2109   0.0682   0.6011     O
O       0.2109   0.9318   0.1011     O
O       0.2185   0.4922   0.2641     O
O       0.2185   0.5078   0.7641     O
P       0.2227   0.0182   0.1757     P
P       0.2227   0.9818   0.6757     P
U      0.22309  0.23857  0.58577     U
U      0.22309  0.76143  0.08577     U
O       0.2327    0.407   0.6027     O
O       0.2327    0.593   0.1027     O
U      0.24452  0.49013  0.43733     U
U      0.24452  0.50987  0.93733     U
O       0.2459   0.2482   0.7568     O
O       0.2459   0.7518   0.2568     O
O       0.2541   0.2518   0.2568     O
O       0.2541   0.7482   0.7568     O
U      0.25548  0.00987  0.93733     U
U      0.25548  0.99013  0.43733     U
O       0.2673    0.093   0.1027     O
O       0.2673    0.907   0.6027     O
U      0.27691  0.26143  0.08577     U
U      0.27691  0.73857  0.58577     U
P       0.2773   0.4818   0.6757     P
P       0.2773   0.5182   0.1757     P
O       0.2815   0.0078   0.7641     O
O       0.2815   0.9922   0.2641     O
O       0.2891   0.4318   0.1011     O
O       0.2891   0.5682   0.6011     O
O        0.291   0.3464   0.9141     O
O        0.291   0.6536   0.4141     O
O       0.3025   0.1722   0.9205     O
O       0.3025   0.8278   0.4205     O
P       0.3133   0.2579   0.8445     P
P       0.3133   0.7421   0.3445     P
O       0.3626   0.4466   0.7135     O
O       0.3626   0.5534   0.2135     O
O       0.4048   0.2613    0.806     O
O       0.4048   0.7387    0.306     O
U          0.5  0.38388  0.74394     U
U          0.5  0.61612  0.24394     U
O       0.5952   0.2613    0.806     O
O       0.5952   0.7387    0.306     O
O       0.6374   0.4466   0.7135     O
O       0.6374   0.5534   0.2135     O
P       0.6867   0.2579   0.8445     P
P       0.6867   0.7421   0.3445     P
O       0.6975   0.1722   0.9205     O
O       0.6975   0.8278   0.4205     O
O        0.709   0.3464   0.9141     O
O        0.709   0.6536   0.4141     O
O       0.7109   0.4318   0.1011     O
O       0.7109   0.5682   0.6011     O
O       0.7185   0.0078   0.7641     O
O       0.7185   0.9922   0.2641     O
P       0.7227   0.4818   0.6757     P
P       0.7227   0.5182   0.1757     P
U      0.72309  0.26143  0.08577     U
U      0.72309  0.73857  0.58577     U
O       0.7327    0.093   0.1027     O
O       0.7327    0.907   0.6027     O
U      0.74452  0.00987  0.93733     U
U      0.74452  0.99013  0.43733     U
O       0.7459   0.2518   0.2568     O
O       0.7459   0.7482   0.7568     O
O       0.7541   0.2482   0.7568     O
O       0.7541   0.7518   0.2568     O
U      0.75548  0.49013  0.43733     U
U      0.75548  0.50987  0.93733     U
O       0.7673    0.407   0.6027     O
O       0.7673    0.593   0.1027     O
U      0.77691  0.23857  0.58577     U
U      0.77691  0.76143  0.08577     U
P       0.7773   0.0182   0.1757     P
P       0.7773   0.9818   0.6757     P
O       0.7815   0.4922   0.2641     O
O       0.7815   0.5078   0.7641     O
O       0.7891   0.0682   0.6011     O
O       0.7891   0.9318   0.1011     O
O        0.791   0.1536   0.4141     O
O        0.791   0.8464   0.9141     O
O       0.8025   0.3278   0.4205     O
O       0.8025   0.6722   0.9205     O
P       0.8133   0.2421   0.3445     P
P       0.8133   0.7579   0.8445     P
O       0.8626   0.0534   0.2135     O
O       0.8626   0.9466   0.7135     O
O       0.9048   0.2387    0.306     O
O       0.9048   0.7613    0.806     O
