data_I
_chemical_name_common  '/home/zhangsd/repos/MofS-CGCNN/ML/data/SSD/clean_cifs/ABEXEM_clean'
_cell_length_a 11.04170
_cell_length_b 12.13500
_cell_length_c 19.65090
_cell_angle_alpha 90.00000
_cell_angle_beta  90.00000
_cell_angle_gamma 90.00000
_space_group_name_H-M_alt      'P 1'


loop_
_space_group_symop_operation_xyz
  'x, y, z' 

loop_
_atom_site_label
_atom_site_fract_x
_atom_site_fract_y
_atom_site_fract_z
_atom_site_type_symbol
N          0.0   0.4911   0.6963     N
N          0.0   0.5089   0.1963     N
H       0.0076   0.7526   0.7242     H
C       0.0196   0.3198   0.2264     C
O       0.0385   0.1155   0.4261     O
C       0.0413   0.5941   0.6965     C
O       0.0431   0.2361    0.719     O
C       0.0527    0.824   0.9223     C
O        0.053   0.1563   0.8217     O
O       0.0827   0.7507   0.9631     O
C       0.0865   0.2242   0.7775     C
O       0.0912   0.8853   0.4483     O
C       0.1017   0.5275   0.2306     C
N       0.1066   0.9192    0.817     N
O       0.1127   0.4246   0.5045     O
La     0.11641  0.98193  0.33513    La
C       0.1266   0.3499   0.2606     C
H       0.1297   0.5998   0.2316     H
La     0.13583  0.34041  0.62136    La
C       0.1375   0.8424   0.8627     C
H        0.155   0.9875   0.7322     H
C       0.1613   0.6154   0.6581     C
O       0.1671   0.1628   0.2894     O
N       0.1672   0.4531   0.2636     N
O       0.1737   0.8502   0.5505     O
C       0.1763   0.9327    0.763     C
C        0.178   0.8872   0.4912     C
C       0.1927   0.2978   0.7963     C
C       0.2008   0.4384    0.468     C
O       0.2008   0.7918   0.3222     O
O       0.2027   0.7103   0.6627     O
O       0.2041   0.4943   0.4131     O
C       0.2042    0.261   0.2938     C
O       0.2098   0.5345   0.6286     O
N       0.2251   0.3736   0.7497     N
H       0.2337   0.2322    0.888     H
C       0.2413    0.782   0.8549     C
C       0.2587    0.282   0.8549     C
H       0.2663   0.7322    0.888     H
N       0.2749   0.8736   0.7497     N
O       0.2902   0.0345   0.6286     O
C       0.2958    0.761   0.2938     C
O       0.2959   0.9943   0.4131     O
O       0.2973   0.2103   0.6627     O
O       0.2992   0.2918   0.3222     O
C       0.2992   0.9384    0.468     C
C       0.3073   0.7978   0.7963     C
C        0.322   0.3872   0.4912     C
C       0.3237   0.4327    0.763     C
O       0.3263   0.3502   0.5505     O
N       0.3328   0.9531   0.2636     N
O       0.3329   0.6628   0.2894     O
C       0.3387   0.1154   0.6581     C
H        0.345   0.4875   0.7322     H
C       0.3625   0.3424   0.8627     C
La     0.36417  0.84041  0.62136    La
H       0.3703   0.0998   0.2316     H
C       0.3734   0.8499   0.2606     C
La     0.38359  0.48193  0.33513    La
O       0.3873   0.9246   0.5045     O
N       0.3934   0.4192    0.817     N
C       0.3983   0.0275   0.2306     C
O       0.4088   0.3853   0.4483     O
C       0.4135   0.7242   0.7775     C
O       0.4173   0.2507   0.9631     O
O        0.447   0.6563   0.8217     O
C       0.4473    0.324   0.9223     C
O       0.4569   0.7361    0.719     O
C       0.4587   0.0941   0.6965     C
O       0.4615   0.6155   0.4261     O
C       0.4804   0.8198   0.2264     C
H       0.4924   0.2526   0.7242     H
N          0.5   0.0089   0.1963     N
N          0.5   0.9911   0.6963     N
H       0.5076   0.7474   0.2242     H
C       0.5196   0.1802   0.7264     C
O       0.5385   0.3845   0.9261     O
C       0.5413   0.9059   0.1965     C
O       0.5431   0.2639    0.219     O
C       0.5527    0.676   0.4223     C
O        0.553   0.3437   0.3217     O
O       0.5827   0.7493   0.4631     O
C       0.5865   0.2758   0.2775     C
O       0.5912   0.6147   0.9483     O
C       0.6017   0.9725   0.7306     C
N       0.6066   0.5808    0.317     N
O       0.6127   0.0754   0.0045     O
La     0.61641  0.51807  0.83513    La
C       0.6266   0.1501   0.7606     C
H       0.6297   0.9002   0.7316     H
La     0.63583  0.15959  0.12136    La
C       0.6375   0.6576   0.3627     C
H        0.655   0.5125   0.2322     H
C       0.6613   0.8846   0.1581     C
O       0.6671   0.3372   0.7894     O
N       0.6672   0.0469   0.7636     N
O       0.6737   0.6498   0.0505     O
C       0.6763   0.5673    0.263     C
C        0.678   0.6128   0.9912     C
C       0.6927   0.2022   0.2963     C
C       0.7008   0.0616    0.968     C
O       0.7008   0.7082   0.8222     O
O       0.7027   0.7897   0.1627     O
O       0.7041   0.0057   0.9131     O
C       0.7042    0.239   0.7938     C
O       0.7098   0.9655   0.1286     O
N       0.7251   0.1264   0.2497     N
H       0.7337   0.2678    0.388     H
C       0.7413    0.718   0.3549     C
C       0.7587    0.218   0.3549     C
H       0.7663   0.7678    0.388     H
N       0.7749   0.6264   0.2497     N
O       0.7902   0.4655   0.1286     O
C       0.7958    0.739   0.7938     C
O       0.7959   0.5057   0.9131     O
O       0.7973   0.2897   0.1627     O
O       0.7992   0.2082   0.8222     O
C       0.7992   0.5616    0.968     C
C       0.8073   0.7022   0.2963     C
C        0.822   0.1128   0.9912     C
C       0.8237   0.0673    0.263     C
O       0.8263   0.1498   0.0505     O
N       0.8328   0.5469   0.7636     N
O       0.8329   0.8372   0.7894     O
C       0.8387   0.3846   0.1581     C
H        0.845   0.0125   0.2322     H
C       0.8625   0.1576   0.3627     C
La     0.86417  0.65959  0.12136    La
H       0.8703   0.4002   0.7316     H
C       0.8734   0.6501   0.7606     C
La     0.88359  0.01807  0.83513    La
O       0.8873   0.5754   0.0045     O
N       0.8934   0.0808    0.317     N
C       0.8983   0.4725   0.7306     C
O       0.9088   0.1147   0.9483     O
C       0.9135   0.7758   0.2775     C
O       0.9173   0.2493   0.4631     O
O        0.947   0.8437   0.3217     O
C       0.9473    0.176   0.4223     C
O       0.9569   0.7639    0.219     O
C       0.9587   0.4059   0.1965     C
O       0.9615   0.8845   0.9261     O
C       0.9804   0.6802   0.7264     C
H       0.9924   0.2474   0.2242     H
