data_I
_chemical_name_common  '/home/zhangsd/repos/MofS-CGCNN/ML/data/SSD/clean_cifs/ACOLEL_clean'
_cell_length_a 17.65600
_cell_length_b 19.40840
_cell_length_c 20.50400
_cell_angle_alpha 106.26100
_cell_angle_beta  90.00000
_cell_angle_gamma 117.05500
_space_group_name_H-M_alt      'P 1'


loop_
_space_group_symop_operation_xyz
  'x, y, z' 

loop_
_atom_site_label
_atom_site_fract_x
_atom_site_fract_y
_atom_site_fract_z
_atom_site_type_symbol
H       0.0012   0.0398   0.0786     H
H       0.0028    0.342   0.1676     H
C      0.00357  0.45814   0.0876     C
H       0.0037   0.5618   0.6608     H
H       0.0065    0.992   0.4021     H
N      0.00677  0.58654  0.52663     N
H       0.0094    0.036   0.6885     H
H       0.0095   0.6944   0.7349     H
Mn     0.00966  0.81442  0.64789    Mn
C      0.01928  0.34296  0.59502     C
C      0.01932  0.34664   0.0111     C
O      0.02352  0.09886  0.82602     O
C      0.02609  0.46958   0.4586     C
H       0.0266    0.036   0.1885     H
C      0.02741  0.73142   0.2303     C
H        0.028   0.3664   0.4063     H
H        0.028   0.7394   0.3543     H
N      0.02851  0.71362  0.58875     N
C      0.03446  0.08572  0.67974     C
H        0.035   0.7612   0.0517     H
C      0.03561  0.08782  0.11361     C
C      0.03634  0.15408   0.8031     C
H       0.0375    0.842   0.2589     H
N      0.03782  0.41304  0.65041     N
H       0.0386   0.0398   0.5786     H
O      0.04054  0.21734  0.84252     O
C      0.04215   0.4699    0.265     C
C      0.04746  0.60432    0.189     C
C      0.04777  0.16254   0.0335     C
C      0.04887  0.60394    0.694     C
H        0.051   0.8034   0.8282     H
C      0.05104  0.60048    0.323     C
C      0.05126  0.08572  0.17974     C
C      0.05221  0.08782  0.61361     C
C      0.05299  0.67998    0.735     C
C      0.05383  0.15766  0.73303     C
H       0.0555   0.3896   0.8019     H
H       0.0597   0.3312   0.5724     H
C      0.06787  0.81374     0.26     C
H       0.0682   0.4368    0.253     H
C      0.07157  0.16194   0.1002     C
C      0.07208  0.68656   0.2304     C
H       0.0731   0.3636   0.0343     H
O      0.07534  0.09886  0.32602     O
C      0.07954  0.66948   0.9697     C
O      0.08119  0.22486  0.01711     O
C      0.08203  0.74526   0.3656     C
C      0.08483  0.54506   0.9131     C
H       0.0853    0.503   0.4658     H
C      0.08745   0.5079   0.1199     C
C      0.09037  0.16194   0.6002     C
C      0.09045   0.5511   0.3042     C
C      0.09091  0.23102   0.7188     C
C       0.0919    0.645   0.5235     C
C      0.09423  0.79046   0.0536     C
H       0.0971   0.9696    0.329     H
H       0.1019   0.9364   0.8978     H
C      0.10383  0.15766  0.23303     C
H       0.1041    0.279   0.7539     H
O      0.10453  0.09914  0.48913     O
N      0.10457  0.68054   0.3575     N
C      0.10501  0.72382   0.5623     C
C      0.10863  0.23446   0.6541     C
C      0.10994  0.83768     0.84     C
H       0.1106    0.894   0.1249     H
C      0.11073  0.58106   0.1705     C
C      0.11477  0.16254   0.5335     C
H       0.1158   0.5164   0.9036     H
C      0.11774  0.15408   0.3031     C
C      0.12053  0.62406   0.9586     C
H       0.1245   0.9808   0.7367     H
C      0.12583  0.23446   0.1541     C
N      0.12787  0.60634   0.7146     N
H        0.129   0.4918   0.1074     H
H       0.1319   0.6334   0.5001     H
N      0.13548  0.72816   0.7753     N
C      0.13749  0.75458   0.0125     C
C      0.13952  0.87004   0.0974     C
N      0.13958   0.8758  0.69513     N
C      0.14011  0.23102   0.2188     C
C      0.14046  0.91752   0.8817     C
O      0.14367  0.22486  0.51711     O
H       0.1484    0.045   0.9757     H
H        0.149   0.5726   0.3179     H
H       0.1515   0.3172   0.1082     H
N      0.15299  0.31164  0.64757     N
C      0.15466  0.85792   0.2925     C
H       0.1549   0.7728   0.5689     H
C        0.155    0.989   0.3438     C
C      0.15592  0.73364   0.2691     C
C      0.15612  0.81624   0.3933     C
N      0.15865  0.31164  0.14757     N
H       0.1606   0.8678   0.4023     H
C      0.16111  0.95782   0.7322     C
Mn     0.16363  0.51092  0.69396    Mn
H       0.1657   0.3172   0.6082     H
C      0.16634  0.80868   0.8157     C
H       0.1675   0.6144   0.1919     H
H       0.1679    0.354   0.6829     H
H       0.1749    0.279   0.2539     H
H       0.1754   0.6466   0.9825     H
O       0.1768  0.21734  0.34252     O
H       0.1783   0.3938   0.8604     H
O      0.17987   0.4529  0.76486     O
H       0.1804   0.9308   0.5089     H
C      0.18126  0.68412    0.764     C
H       0.1846   0.7056   0.2761     H
Mn     0.18508  0.16838  0.42295    Mn
H        0.186   0.0968   0.8196     H
H       0.1861    0.354   0.1829     H
H       0.1873   0.0138   0.2112     H
C      0.19305   0.7161   0.3825     C
H        0.195    0.397   0.9738     H
C       0.1962    0.813   0.2957     C
N      0.19918  0.94256   0.3336     N
H       0.2002   0.0628   0.5721     H
H        0.202    0.397   0.4738     H
H       0.2052   0.1794   0.0448     H
C      0.20686  0.08052   0.9811     C
C       0.2096   0.4432    0.895     C
C      0.21254  0.86668   0.7015     C
O       0.2128   0.4612  0.60751     O
H       0.2155   0.3938   0.3604     H
H        0.216    0.819    0.682     H
N      0.21639  0.07238  0.38135     N
C      0.22044  0.44508   0.9626     C
H       0.2238    0.688   0.3828     H
C      0.22464  0.44508   0.4626     C
C      0.22603  0.79826   0.0153     C
N      0.22684  0.80168   0.4069     N
C      0.22806  0.91372   0.1003     C
C      0.22863  0.96966  0.89957     C
C       0.2307   0.5162   0.8078     C
C       0.2331    0.978   0.5231     C
C       0.2336   0.4432    0.395     C
C      0.23415   0.5177   0.5835     C
H       0.2366   0.7022   0.7848     H
C       0.2418   0.1606   0.0236     C
C       0.2429   0.0372   0.2007     C
O      0.24311  0.58418  0.62419     O
C      0.24436  0.05072   0.5593     C
C      0.24523  0.51466   0.8797     C
C      0.24587  0.12414   0.8258     C
N      0.24738  0.99696  0.76046     N
O       0.2484   0.4612  0.10751     O
C      0.24896  0.51752   0.5124     C
H        0.253   0.8394   0.3168     H
C      0.25445   0.8599   0.8333     C
H       0.2549   0.7742   0.9879     H
H       0.2593    0.233   0.8846     H
C      0.26245   0.0549   0.9466     C
H       0.2663   0.2072   0.6102     H
C      0.26856  0.51752   0.0124     C
C      0.26943  0.51466   0.3797     C
C      0.27131  0.87782   0.0592     C
H       0.2715   0.3312   0.0724     H
O      0.27248  0.57884  0.79036     O
O      0.27303   0.4529  0.26486     O
N       0.2761   0.9997  0.14576     N
C      0.28162  0.94244  0.74308     C
C      0.28308  0.99276  0.36478     C
C      0.28355   0.5177   0.0835     C
C      0.28382  0.58964   0.4973     C
C       0.2855   0.5162   0.3078     C
C      0.28572  0.94064   0.8749     C
C      0.28892  0.08304   0.7969     C
C      0.28948  0.20596   0.8644     C
H       0.2905   0.3636   0.5343     H
H       0.2925   0.8404   0.8173     H
C      0.29481  0.59062    0.931     C
C      0.29532  0.07384   0.3963     C
C      0.29581  0.59062    0.431     C
H       0.2995   0.6384   0.5322     H
N      0.30218  0.27716  0.45539     N
H       0.3023   0.1508   0.2709     H
C      0.30582  0.58964   0.9973     C
O      0.30636  0.57884  0.29036     O
C      0.30737  0.11294   0.2342     C
N      0.31501  0.98322   0.5092     N
H       0.3169   0.2544   0.2372     H
C      0.32368  0.34296  0.09502     C
C      0.32386  0.23192    0.629     C
H       0.3253   0.9768   0.3654     H
C      0.32732  0.34664   0.5111     C
O       0.3274  0.81676  0.54865     O
N      0.32773  0.66466   0.4221     N
C      0.32901  0.21302   0.0354     C
H       0.3305    0.907   0.0611     H
H       0.3327   0.6694    0.882     H
N       0.3331   0.1078   0.5759     N
H       0.3341   0.3896   0.3019     H
H       0.3367   0.6694    0.382     H
N      0.33693  0.66466   0.9221     N
H       0.3375   0.9534   0.7559     H
H       0.3384   0.3664   0.9063     H
Mn     0.33863   0.8853  0.47626    Mn
H       0.3389   0.6384   0.0322     H
H        0.339    0.707   0.4565     H
H       0.3392    0.342   0.6676     H
O      0.34107  0.58418  0.12419     O
H       0.3447   0.9752   0.8862     H
H       0.3457   0.1188   0.4217     H
H        0.347    0.758   0.6396     H
Mn     0.34729  0.51092  0.19396    Mn
C       0.3517   0.1114   0.9575     C
H       0.3628   0.4918   0.6074     H
C      0.36363  0.05506   0.1488     C
N      0.36413  0.29386  0.07953     N
C       0.3667   0.3108   0.6667     C
C      0.36751  0.29842  0.26328     C
H        0.368    0.707   0.9565     H
H       0.3686   0.4368    0.753     H
H       0.3696   0.7558   0.7494     H
C      0.37011  0.19002     0.62     C
C      0.37484  0.06468   0.5458     C
N      0.37522  0.41304  0.15041     N
C      0.37706  0.37432   0.3004     C
C      0.37797  0.12354   0.8027     C
C      0.37838  0.27336   0.4343     C
C      0.38041  0.24782   0.8727     C
H        0.381   0.2342   0.3972     H
C       0.3815   0.8068   0.6741     C
O      0.38152  0.81844  0.38105     O
C      0.38585   0.1877   0.9998     C
H       0.3862   0.7558   0.2494     H
N      0.38633  0.12626  0.20421     N
H       0.3881   0.0942   0.9338     H
C      0.39108  0.87636    0.587     C
C      0.39467  0.80474   0.7396     C
C      0.39608  0.38776   0.9232     C
H       0.4003    0.046   0.1191     H
H       0.4006   0.5164   0.4036     H
H       0.4072   0.0958   0.7815     H
C      0.40834  0.88028  0.36162     C
C      0.41007  0.80474   0.2396     C
H        0.411    0.758   0.1396     H
O      0.41324  0.94218  0.40223     O
C       0.4167   0.8772  0.65768     C
H       0.4177    0.503   0.9658     H
N      0.41905   0.3881  0.52755     N
C      0.42045   0.5079   0.6199     C
C      0.42276  0.20512   0.8399     C
H       0.4236   0.5726   0.8179     H
C       0.4253   0.8068   0.1741     C
C      0.42775   0.4699    0.765     C
C      0.43187  0.87954   0.2921     C
C      0.43345   0.3367   0.9123     C
H       0.4343   0.0862   0.5492     H
O      0.43692  0.81844  0.88105     O
O      0.43985  0.93968  0.57318     O
C      0.44349  0.46958   0.9586     C
C      0.44386  0.33512   0.1221     C
H       0.4445    0.223   0.0059     H
N      0.44622  0.29924  0.27155     N
H       0.4469   0.6144   0.6919     H
C      0.44767  0.87954   0.7921     C
C      0.44886  0.34192  0.48177     C
C      0.44975   0.3507   0.7051     C
C      0.45027  0.40994   0.1679     C
C       0.4527   0.2232   0.6541     C
C      0.45457  0.45814   0.5876     C
C      0.46023  0.54506   0.4131     C
C       0.4605   0.8772  0.15768     C
C      0.46065   0.5511   0.8042     C
N      0.46108  0.42456  0.33508     N
H       0.4642    0.688   0.8828     H
H       0.4656   0.7022   0.2848     H
C      0.46895   0.9521   0.7088     C
C      0.46972  0.95284   0.2754     C
C      0.47033  0.58106   0.6705     C
H       0.4712   0.6466   0.4825     H
C      0.47194  0.88028  0.86162     C
N      0.47847  0.60634   0.2146     N
H       0.4813   0.1922   0.6479     H
H       0.4823   0.2322   0.8433     H
C      0.48312  0.95284   0.7754     C
C      0.48315   0.9521   0.2088     C
C      0.48356  0.43792   0.7438     C
H        0.485   0.3176   0.1211     H
C      0.48528  0.87636    0.087     C
H       0.4858   0.0022   0.3096     H
O      0.48936  0.81676  0.04865     O
C      0.49239  0.30358   0.6979     C
H       0.4957   0.4488   0.2025     H
H       0.4994   0.0324   0.6607     H
O      0.49983  0.93968  0.07318     O
H       0.5015   0.6334   0.0001     H
C      0.50286  0.68412    0.264     C
C      0.50353  0.62406   0.4586     C
C      0.50487  0.37774   0.3165     C
N      0.50534  0.02768   0.7006     N
H       0.5061   0.3538    0.482     H
C      0.51181  0.51122   0.3826     C
Mn     0.51326  0.23158  0.25022    Mn
O      0.51512  0.17092  0.31942     O
H       0.5164   0.0022   0.8096     H
H       0.5193   0.7742   0.4879     H
C      0.51993  0.36926   0.9377     C
H        0.521   0.7056   0.7761     H
N      0.52234  0.02768   0.2006     N
C      0.52305   0.7161   0.8825     C
O      0.52894  0.94218  0.90223     O
H       0.5294   0.1102   0.4129     H
C      0.53024  0.50228   0.9838     C
H        0.533   0.0324   0.1607     H
H        0.534   0.0704   0.7354     H
H       0.5364   0.0704   0.2354     H
C      0.53989  0.48118   0.6071     C
H       0.5455   0.3356   0.9308     H
Mn     0.54667   0.8853  0.97626    Mn
H       0.5471    0.326   0.7222     H
H       0.5479   0.8404   0.3173     H
H       0.5493   0.1106   0.0227     H
C      0.54944  0.60048    0.823     C
C       0.5531    0.645   0.0235     C
C      0.55507  0.60394    0.194     C
O      0.55609   0.1712  0.16039     O
C      0.55686  0.60432    0.689     C
H       0.5581   0.5618   0.1608     H
H       0.5613   0.1106   0.5227     H
H       0.5624   0.3954   0.3313     H
H       0.5628   0.4474    0.586     H
C      0.56339  0.15898   0.4475     C
C      0.56794  0.45188   0.9732     C
C      0.57215   0.4875   0.7614     C
C      0.57223  0.79826   0.5153     C
C      0.57396  0.23392   0.3631     C
N      0.57484  0.80168   0.9069     N
N      0.57597  0.68054   0.8575     N
H       0.5765    0.907   0.5611     H
C      0.57772  0.73364   0.7691     C
C      0.57891  0.15962   0.0135     C
N      0.57977  0.58654  0.02663     N
C      0.58071  0.15962   0.5135     C
H       0.5808   0.1102   0.9129     H
C       0.5833   0.2294   0.1364     C
H       0.5864   0.8394   0.8168     H
C      0.58994  0.66948   0.4697     C
O      0.59065  0.29402  0.17642     O
C      0.59139  0.55418    0.658     C
N      0.59268  0.72816   0.2753     N
C      0.59559  0.15898   0.9475     C
C      0.59873  0.23426    0.434     C
C      0.59902  0.55424   0.3952     C
H        0.603    0.819    0.182     H
C      0.60474  0.56848   0.8012     C
C      0.60545   0.8599   0.3333     C
C      0.60599  0.23298   0.0665     C
C      0.60651  0.87782   0.5592     C
H       0.6093   0.4664   0.7466     H
C      0.61448  0.68656   0.7304     C
O      0.61511   0.1712  0.66039     O
O       0.6157  0.29626  0.34906     O
H       0.6159   0.9534   0.2559     H
C       0.6168    0.813   0.7957     C
C      0.61709  0.75458   0.5125     C
H       0.6179   0.7728   0.0689     H
C      0.61881  0.72382   0.0623     C
H       0.6257   0.4734     0.99     H
C      0.62699  0.23298   0.5665     C
C      0.62699  0.67998    0.235     C
H       0.6305   0.9752   0.3862     H
H        0.631   0.5294   0.3745     H
C      0.63553  0.23426    0.934     C
C      0.64134  0.63388   0.4377     C
C       0.6421   0.3052   0.0524     C
C      0.64234  0.80868   0.3157     C
H       0.6457    0.046   0.6191     H
C       0.6461   0.2294   0.6364     C
C      0.64819  0.30518  0.48483     C
H       0.6486   0.5694   0.6711     H
H       0.6515   0.9768   0.8654     H
H       0.6519   0.0862   0.0492     H
C      0.65414  0.86668   0.2015     C
C      0.65492  0.94064   0.3749     C
O       0.6558  0.17092  0.81942     O
H       0.6566   0.3538    0.087     H
C      0.65699  0.30518  0.98483     C
C      0.65996  0.23392   0.8631     C
C      0.66008  0.62936   0.0673     C
C      0.66012  0.81624   0.8933     C
C      0.66082  0.94244  0.24308     C
C       0.6631   0.3052   0.5524     C
C      0.66323  0.74526   0.8656     C
H       0.6639   0.6016   0.8134     H
N      0.66821  0.98322   0.0092     N
H       0.6776   0.3916   0.4444     H
O      0.68056  0.29626  0.84906     O
H       0.6849   0.6944   0.2349     H
N      0.68511  0.71362  0.08875     N
N      0.68533  0.38346  0.48438     N
C      0.68566  0.91372   0.6003     C
H       0.6886   0.0958   0.2815     H
C      0.68984  0.06468   0.0458     C
C      0.69143  0.05506   0.6488     C
H       0.6921   0.6062   0.0786     H
C      0.69623  0.79046   0.5536     C
H       0.6972   0.3538    0.587     H
N      0.69813  0.38346  0.98438     N
H       0.7011   0.6634   0.4453     H
C      0.70326  0.85792   0.7925     C
O      0.70337  0.29402  0.67642     O
C      0.70401  0.73142   0.7303     C
H       0.7061   0.0942   0.4338     H
H       0.7072   0.8678   0.9023     H
C      0.70968  0.99276  0.86478     C
H       0.7104   0.4278   0.0206     H
H       0.7109   0.1922   0.1479     H
H       0.7114   0.7394   0.8543     H
H        0.714   0.3916   0.9444     H
H       0.7174   0.4278   0.5206     H
Mn     0.71832  0.23158  0.75022    Mn
N       0.7236   0.9997  0.64576     N
H       0.7262   0.7612   0.5517     H
C      0.72774  0.83768     0.34     C
C      0.73052  0.87004   0.5974     C
H       0.7343   0.7046   0.7099     H
N      0.73622   0.8758  0.19513     N
N      0.73993  0.12626  0.70421     N
C      0.74103  0.96966  0.39957     C
N      0.74338  0.94256   0.8336     N
C       0.7449    0.978   0.0231     C
C      0.74557  0.12354   0.3027     C
C      0.74587  0.81374     0.76     C
N      0.74958  0.99696  0.26046     N
H       0.7499   0.2322   0.3433     H
H       0.7504   0.9308   0.0089     H
H       0.7524   0.8034   0.3282     H
C       0.7597   0.1114   0.4575     C
C       0.7705   0.2232   0.1541     C
H       0.7731   0.1188   0.9217     H
N       0.7747   0.1078   0.0759     N
C      0.77706  0.91752   0.3817     C
H       0.7785    0.223   0.5059     H
C      0.77852  0.07384   0.8963     C
H       0.7789    0.326   0.2222     H
C      0.78236  0.20512   0.3399     C
H       0.7834    0.894   0.6249     H
H       0.7901   0.3356   0.4308     H
C      0.79245   0.0549   0.4466     C
C      0.79412  0.08304   0.2969     C
C       0.7943   0.0372   0.7007     C
C      0.79671  0.95782   0.2322     C
C      0.80185   0.1877   0.4998     C
H       0.8045    0.842   0.7589     H
Mn     0.80476  0.81442  0.14789    Mn
C      0.80557  0.11294   0.7342     C
C      0.80636  0.05072   0.0593     C
C      0.81119  0.30358   0.1979     C
O      0.81498  0.74164  0.21065     O
H       0.8171     0.68   0.3017     H
C      0.81991  0.19002     0.12     C
H       0.8265   0.0138   0.7112     H
H       0.8325   0.6768   0.9111     H
H       0.8326   0.3176   0.6211     H
H        0.833   0.3954   0.8313     H
C        0.834    0.989   0.8438     C
H       0.8345   0.9364   0.3978     H
H       0.8443   0.6768   0.4111     H
H       0.8477   0.3538    0.982     H
H       0.8477   0.4734     0.49     H
O      0.84817  0.73966  0.04928     O
H       0.8485   0.1508   0.7709     H
C      0.84933  0.36926   0.4377     C
C      0.85163  0.72826   0.3366     C
N      0.85302  0.29924  0.77155     N
H       0.8532   0.2342   0.8972     H
N      0.85599  0.07238  0.88135     N
H       0.8563   0.9808   0.2367     H
H       0.8571   0.4664   0.2466     H
C      0.85888  0.72656  0.90269     C
H       0.8626   0.0628   0.0721     H
H       0.8629     0.68   0.8017     H
C      0.86399  0.79638  0.02683     C
O      0.86722   0.8601  0.06647     O
C      0.86741  0.24782   0.3727     C
C      0.86768  0.72656  0.40269     C
C       0.8702   0.8058   0.2566     C
H       0.8725   0.9696    0.829     H
C      0.87287  0.37774   0.8165     C
C      0.87366  0.08052   0.4811     C
C      0.87663  0.72826   0.8366     C
C      0.87827  0.12414   0.3258     C
C      0.87973  0.79726   0.9557     C
C      0.88394  0.45188   0.4732     C
C      0.88401  0.21302   0.5354     C
H       0.8846   0.4474    0.086     H
C      0.88762  0.80304   0.3227     C
C      0.89126  0.33512   0.6221     C
O      0.89149  0.73966  0.54928     O
C      0.89306  0.34192  0.98177     C
C      0.89498  0.27336   0.9343     C
H       0.8966    0.045   0.4757     H
H       0.8984   0.5294   0.8745     H
C      0.90095   0.3507   0.2051     C
C      0.90325   0.3367   0.4123     C
O      0.90374  0.86742  0.23835     O
C      0.90806  0.23192    0.129     C
H       0.9108   0.0968   0.3196     H
H       0.9141   0.6062   0.5786     H
C      0.91535   0.4875   0.2614     C
C      0.91542  0.80304   0.8227     C
C      0.91648  0.20596   0.3644     C
C      0.91739  0.87058   0.9434     C
C      0.91753  0.79726   0.4557     C
C       0.9188   0.1606   0.5236     C
H       0.9208   0.5694   0.1711     H
O      0.92666  0.74164  0.71065     O
N      0.92973  0.29386  0.57953     N
C      0.93091  0.29842  0.76328     C
C      0.93239  0.79638  0.52683     C
H       0.9326   0.9186    0.979     H
C      0.93365   0.8733  0.87506     C
C       0.9356   0.8058   0.7566     C
H       0.9375   0.2544   0.7372     H
H       0.9377   0.6016   0.3134     H
C      0.93965   0.8733  0.37506     C
H       0.9409   0.2072   0.1102     H
C      0.94129  0.48118   0.1071     C
C       0.9441   0.3108   0.1667     C
H       0.9531   0.4488   0.7025     H
C      0.95319  0.87058   0.4434     C
C      0.95436  0.43792   0.2438     C
C      0.95522  0.55424   0.8952     C
C      0.95967  0.40994   0.6679     C
H       0.9623   0.6634   0.9453     H
C      0.96279  0.55418    0.158     C
N      0.96348  0.42456  0.83508     N
O      0.96368  0.86742  0.73835     O
C      0.96374  0.56848   0.3012     C
H       0.9638   0.9554   0.3293     H
N      0.96905   0.3881  0.02755     N
C      0.96928  0.62936   0.5673     C
H       0.9703   0.7046   0.2099     H
C      0.97204  0.50228   0.4838     C
H       0.9737    0.233   0.3846     H
H       0.9742   0.1794   0.5448     H
N      0.97433   0.9498  0.36793     N
N      0.97498  0.27716  0.95539     N
N      0.97547   0.9498  0.86793     N
Mn      0.9833  0.16838  0.92295    Mn
H       0.9855    0.992   0.9021     H
H        0.986   0.9186    0.479     H
H       0.9916   0.9554   0.8293     H
C      0.99168  0.38776   0.4232     C
C      0.99254  0.63388   0.9377     C
O      0.99288   0.8601  0.56647     O
O      0.99461  0.09914  0.98913     O
C      0.99726  0.37432   0.8004     C
C      0.99941  0.51122   0.8826     C
