data_I
_chemical_name_common  '/home/zhangsd/repos/MofS-CGCNN/ML/data/SSD/clean_cifs/ACOLOV_clean'
_cell_length_a 11.36700
_cell_length_b 24.37300
_cell_length_c 36.59600
_cell_angle_alpha 97.68500
_cell_angle_beta  90.00000
_cell_angle_gamma 90.00000
_space_group_name_H-M_alt      'P 1'


loop_
_space_group_symop_operation_xyz
  'x, y, z' 

loop_
_atom_site_label
_atom_site_fract_x
_atom_site_fract_y
_atom_site_fract_z
_atom_site_type_symbol
C          0.0   0.3073  0.36739     C
C          0.0   0.6927  0.63261     C
C        0.002   0.6749  0.47489     C
O        0.003   0.2675  0.14273     O
C       0.0115   0.0574   0.6676     C
H       0.0127   0.9485   0.6466     H
C       0.0138   0.3199   0.4875     C
H       0.0168   0.8623   0.5428     H
C       0.0177   0.8034   0.8029     C
C       0.0214   0.8435   0.6571     C
C       0.0233   0.1113   0.6615     C
C       0.0253   0.8347   0.7741     C
O       0.0259   0.2101  0.35189     O
H       0.0265   0.9475   0.6893     H
C       0.0288   0.0573   0.3311     C
H         0.03   0.1858   0.5134     H
C       0.0305   0.3074  0.40796     C
H       0.0337   0.5021   0.3945     H
O       0.0341  0.59468   0.6238     O
O       0.0358   0.6663  0.29013     O
O       0.0405   0.6761  0.39793     O
C        0.045   0.4982   0.6125     C
O       0.0459   0.2197  0.64705     O
H       0.0473    0.318     0.77     H
C       0.0562   0.7952   0.3463     C
C       0.0569   0.7473   0.6487     C
C       0.0582   0.1526   0.4612     C
H       0.0588   0.3401   0.2455     H
H       0.0617    0.335   0.5406     H
O        0.064   0.1196  0.27091     O
H       0.0652   0.3426    0.418     H
H       0.0672   0.4158    0.603     H
H       0.0686   0.8531   0.6368     H
C       0.0708   0.3373  0.70137     C
H       0.0712   0.8449   0.6787     H
C       0.0728   0.8538    0.339     C
O       0.0763   0.7013  0.57356     O
H       0.0776   0.0352   0.6689     H
C       0.0794   0.1509   0.2426     C
C       0.0802   0.6947   0.5359     C
C       0.0809   0.1159   0.3353     C
Cd     0.08209  0.29894  0.09142    Cd
H       0.0823   0.7454   0.6738     H
O       0.0842   0.3199  0.30996     O
H       0.0862   0.2782   0.4108     H
H       0.0863   0.7927   0.8139     H
C       0.0864   0.6461   0.6372     C
C       0.0871   0.1808    0.495     C
H       0.0875   0.3261   0.4778     H
C       0.0891   0.2122  0.18442     C
C       0.0953   0.2456  0.15228     C
H       0.0979   0.8459    0.766     H
H        0.098   0.1249   0.6576     H
C       0.0992   0.9636   0.3283     C
C       0.1012   0.5488   0.6243     C
O       0.1038   0.1182  0.40041     O
C       0.1054   0.4489   0.6111     C
O       0.1062   0.3446  0.66968     O
H       0.1066    0.647    0.663     H
O        0.107    0.397   0.1307     O
C       0.1112   0.6839  0.45945     C
C       0.1148   0.3155   0.3472     C
O       0.1226   0.0184   0.3243     O
H       0.1253   0.7545   0.6342     H
C       0.1266   0.3231   0.7653     C
C       0.1289   0.6786    0.419     C
Cd     0.13271   0.2837  0.61863    Cd
C       0.1382    0.336  0.25064     C
C       0.1401   0.1463   0.4328     C
Cd     0.14314  0.67245  0.34208    Cd
H       0.1445   0.2099   0.9789     H
H       0.1446   0.4992   0.1415     H
C       0.1469   0.1256   0.3005     C
O       0.1474   0.7653  0.34563     O
O       0.1534    0.233  0.56427     O
H       0.1542    0.349   0.3583     H
H       0.1579   0.6511   0.6235     H
C       0.1607   0.3348    0.731     C
H       0.1671   0.2843   0.3483     H
C       0.1683   0.1237   0.3675     C
C       0.1733   0.3243  0.28498     C
O        0.174   0.2561  0.04263     O
H       0.1807   0.1624   0.3035     H
C       0.1826   0.8761   0.3333     C
H       0.1843   0.3123    0.816     H
C        0.186   0.1662   0.2303     C
C       0.1877   0.7056   0.5212     C
O       0.1889   0.2477  0.13578     O
C       0.1928   0.1968   0.2005     C
H       0.1939   0.1625   0.9199     H
C       0.1952     0.93   0.3278     C
H       0.1973   0.3499   0.2013     H
C        0.198    0.202   0.5026     C
C       0.2033   0.6994   0.4833     C
H       0.2043   0.1601   0.3694     H
C       0.2085   0.3188  0.79268     C
C       0.2097   0.3964    0.118     C
H         0.21   0.0988   0.2955     H
C       0.2158   0.5485   0.6363     C
C       0.2198   0.1956   0.9746     C
C       0.2211   0.3415  0.22422     C
H       0.2229   0.7058   0.9737     H
C       0.2231   0.4988   0.1342     C
C       0.2232   0.4483   0.6215     C
C       0.2273   0.2331   0.5396     C
O       0.2297   0.6769   0.4057     O
H       0.2299    0.096   0.3638     H
H       0.2304    0.944   0.8237     H
H       0.2346   0.2065   0.6916     H
H       0.2455   0.1564   0.7417     H
O       0.2476   0.3529  0.59876     O
H       0.2477   0.5815   0.1457     H
H        0.249   0.8538   0.3331     H
C       0.2495   0.1669   0.9387     C
H       0.2498   0.7172   0.0368     H
H       0.2502   0.7172   0.5368     H
C       0.2505   0.1669   0.4387     C
H        0.251   0.8538   0.8331     H
H       0.2523   0.5815   0.6457     H
O       0.2524   0.3529  0.09876     O
H       0.2545   0.1564   0.2417     H
H       0.2654   0.2065   0.1916     H
H       0.2696    0.944   0.3237     H
H       0.2701    0.096   0.8638     H
O       0.2703   0.6769   0.9057     O
C       0.2727   0.2331   0.0396     C
C       0.2768   0.4483   0.1215     C
C       0.2769   0.4988   0.6342     C
H       0.2771   0.7058   0.4737     H
C       0.2789   0.3415  0.72422     C
C       0.2802   0.1956   0.4746     C
C       0.2842   0.5485   0.1363     C
H         0.29   0.0988   0.7955     H
C       0.2903   0.3964    0.618     C
C       0.2915   0.3188  0.29268     C
H       0.2957   0.1601   0.8694     H
C       0.2967   0.6994   0.9833     C
C        0.302    0.202   0.0026     C
H       0.3027   0.3499   0.7013     H
C       0.3048     0.93   0.8278     C
H       0.3061   0.1625   0.4199     H
C       0.3072   0.1968   0.7005     C
O       0.3111   0.2477  0.63578     O
C       0.3123   0.7056   0.0212     C
C        0.314   0.1662   0.7303     C
H       0.3157   0.3123    0.316     H
C       0.3174   0.8761   0.8333     C
H       0.3193   0.1624   0.8035     H
O        0.326   0.2561  0.54263     O
C       0.3267   0.3243  0.78498     C
C       0.3317   0.1237   0.8675     C
H       0.3329   0.2843   0.8483     H
C       0.3393   0.3348    0.231     C
H       0.3421   0.6511   0.1235     H
H       0.3458    0.349   0.8583     H
O       0.3466    0.233  0.06427     O
O       0.3526   0.7653  0.84563     O
C       0.3531   0.1256   0.8005     C
H       0.3554   0.4992   0.6415     H
H       0.3555   0.2099   0.4789     H
Cd     0.35686  0.67245  0.84208    Cd
C       0.3599   0.1463   0.9328     C
C       0.3618    0.336  0.75064     C
Cd     0.36729   0.2837  0.11863    Cd
C       0.3711   0.6786    0.919     C
C       0.3734   0.3231   0.2653     C
H       0.3747   0.7545   0.1342     H
O       0.3774   0.0184   0.8243     O
C       0.3852   0.3155   0.8472     C
C       0.3888   0.6839  0.95945     C
O        0.393    0.397   0.6307     O
H       0.3934    0.647    0.163     H
O       0.3938   0.3446  0.16968     O
C       0.3946   0.4489   0.1111     C
O       0.3962   0.1182  0.90041     O
C       0.3988   0.5488   0.1243     C
C       0.4008   0.9636   0.8283     C
H        0.402   0.1249   0.1576     H
H       0.4021   0.8459    0.266     H
C       0.4047   0.2456  0.65228     C
C       0.4109   0.2122  0.68442     C
H       0.4125   0.3261   0.9778     H
C       0.4129   0.1808    0.995     C
C       0.4136   0.6461   0.1372     C
H       0.4137   0.7927   0.3139     H
H       0.4138   0.2782   0.9108     H
O       0.4158   0.3199  0.80996     O
H       0.4177   0.7454   0.1738     H
Cd     0.41791  0.29894  0.59142    Cd
C       0.4191   0.1159   0.8353     C
C       0.4198   0.6947   0.0359     C
C       0.4206   0.1509   0.7426     C
H       0.4224   0.0352   0.1689     H
O       0.4237   0.7013  0.07356     O
C       0.4272   0.8538    0.839     C
H       0.4288   0.8449   0.1787     H
C       0.4292   0.3373  0.20137     C
H       0.4314   0.8531   0.1368     H
H       0.4328   0.4158    0.103     H
H       0.4348   0.3426    0.918     H
O        0.436   0.1196  0.77091     O
H       0.4383    0.335   0.0406     H
H       0.4412   0.3401   0.7455     H
C       0.4418   0.1526   0.9612     C
C       0.4431   0.7473   0.1487     C
C       0.4438   0.7952   0.8463     C
H       0.4527    0.318     0.27     H
O       0.4541   0.2197  0.14705     O
C        0.455   0.4982   0.1125     C
O       0.4595   0.6761  0.89793     O
O       0.4642   0.6663  0.79013     O
O       0.4659  0.59468   0.1238     O
H       0.4663   0.5021   0.8945     H
C       0.4695   0.3074  0.90796     C
H         0.47   0.1858   0.0134     H
C       0.4712   0.0573   0.8311     C
H       0.4735   0.9475   0.1893     H
O       0.4741   0.2101  0.85189     O
C       0.4747   0.8347   0.2741     C
C       0.4767   0.1113   0.1615     C
C       0.4786   0.8435   0.1571     C
C       0.4823   0.8034   0.3029     C
H       0.4832   0.8623   0.0428     H
C       0.4862   0.3199   0.9875     C
H       0.4873   0.9485   0.1466     H
C       0.4885   0.0574   0.1676     C
O        0.497   0.2675  0.64273     O
C        0.498   0.6749  0.97489     C
C          0.5   0.3073  0.86739     C
C          0.5   0.6927  0.13261     C
C        0.502   0.3251  0.02511     C
O        0.503   0.7325  0.35727     O
C       0.5115   0.9426   0.8324     C
H       0.5127   0.0515   0.8534     H
C       0.5138   0.6801   0.0125     C
H       0.5168   0.1377   0.9572     H
C       0.5177   0.1966   0.6971     C
C       0.5214   0.1565   0.8429     C
C       0.5233   0.8887   0.8385     C
C       0.5253   0.1653   0.7259     C
O       0.5259   0.7899  0.14811     O
H       0.5265   0.0525   0.8107     H
C       0.5288   0.9427   0.1689     C
H         0.53   0.8142   0.9866     H
C       0.5305   0.6926  0.09204     C
H       0.5337   0.4979   0.1055     H
O       0.5341  0.40532   0.8762     O
O       0.5358   0.3337  0.20987     O
O       0.5405   0.3239  0.10207     O
C        0.545   0.5018   0.8875     C
O       0.5459   0.7803  0.85295     O
H       0.5473    0.682     0.73     H
C       0.5562   0.2048   0.1537     C
C       0.5569   0.2527   0.8513     C
C       0.5582   0.8474   0.0388     C
H       0.5588   0.6599   0.2545     H
H       0.5617    0.665   0.9594     H
O        0.564   0.8804  0.22909     O
H       0.5652   0.6574    0.082     H
H       0.5672   0.5842    0.897     H
H       0.5686   0.1469   0.8632     H
C       0.5708   0.6627  0.79863     C
H       0.5712   0.1551   0.8213     H
C       0.5728   0.1462    0.161     C
O       0.5763   0.2987  0.92644     O
H       0.5776   0.9648   0.8311     H
C       0.5794   0.8491   0.2574     C
C       0.5802   0.3053   0.9641     C
C       0.5809   0.8841   0.1647     C
Cd     0.58209  0.70106  0.40858    Cd
H       0.5823   0.2546   0.8262     H
O       0.5842   0.6801  0.19004     O
H       0.5862   0.7218   0.0892     H
H       0.5863   0.2073   0.6861     H
C       0.5864   0.3539   0.8628     C
C       0.5871   0.8192    0.005     C
H       0.5875   0.6739   0.0222     H
C       0.5891   0.7878  0.31558     C
C       0.5953   0.7544  0.34772     C
H       0.5979   0.1541    0.734     H
H        0.598   0.8751   0.8424     H
C       0.5992   0.0364   0.1717     C
C       0.6012   0.4512   0.8757     C
O       0.6038   0.8818  0.09959     O
C       0.6054   0.5511   0.8889     C
O       0.6062   0.6554  0.83032     O
H       0.6066    0.353    0.837     H
O        0.607    0.603   0.3693     O
C       0.6112   0.3161  0.04055     C
C       0.6148   0.6845   0.1528     C
O       0.6226   0.9816   0.1757     O
H       0.6253   0.2455   0.8658     H
C       0.6266   0.6769   0.7347     C
C       0.6289   0.3214    0.081     C
Cd     0.63271   0.7163  0.88137    Cd
C       0.6382    0.664  0.24936     C
C       0.6401   0.8537   0.0672     C
Cd     0.64314  0.32755  0.15792    Cd
H       0.6445   0.7901   0.5211     H
H       0.6446   0.5008   0.3585     H
C       0.6469   0.8744   0.1995     C
O       0.6474   0.2347  0.15437     O
O       0.6534    0.767  0.93573     O
H       0.6542    0.651   0.1417     H
H       0.6579   0.3489   0.8765     H
C       0.6607   0.6652    0.769     C
H       0.6671   0.7157   0.1517     H
C       0.6683   0.8763   0.1325     C
C       0.6733   0.6757  0.21502     C
O        0.674   0.7439  0.45737     O
H       0.6807   0.8376   0.1965     H
C       0.6826   0.1239   0.1667     C
H       0.6843   0.6877    0.684     H
C        0.686   0.8338   0.2697     C
C       0.6877   0.2944   0.9788     C
O       0.6889   0.7523  0.36422     O
C       0.6928   0.8032   0.2995     C
H       0.6939   0.8375   0.5801     H
C       0.6952     0.07   0.1722     C
H       0.6973   0.6501   0.2987     H
C        0.698    0.798   0.9974     C
C       0.7033   0.3006   0.0167     C
H       0.7043   0.8399   0.1306     H
C       0.7085   0.6812  0.70732     C
C       0.7097   0.6036    0.382     C
H         0.71   0.9012   0.2045     H
C       0.7158   0.4515   0.8637     C
C       0.7198   0.8044   0.5254     C
C       0.7211   0.6585  0.27578     C
H       0.7229   0.2942   0.5263     H
C       0.7231   0.5012   0.3658     C
C       0.7232   0.5517   0.8785     C
C       0.7273   0.7669   0.9604     C
O       0.7297   0.3231   0.0943     O
H       0.7299    0.904   0.1362     H
H       0.7304    0.056   0.6763     H
H       0.7346   0.7935   0.8084     H
H       0.7455   0.8436   0.7583     H
O       0.7476   0.6471  0.90124     O
H       0.7477   0.4185   0.3543     H
H        0.749   0.1462   0.1669     H
C       0.7495   0.8331   0.5613     C
H       0.7498   0.2828   0.4632     H
H       0.7502   0.2828   0.9632     H
C       0.7505   0.8331   0.0613     C
H        0.751   0.1462   0.6669     H
H       0.7523   0.4185   0.8543     H
O       0.7524   0.6471  0.40124     O
H       0.7545   0.8436   0.2583     H
H       0.7654   0.7935   0.3084     H
H       0.7696    0.056   0.1763     H
H       0.7701    0.904   0.6362     H
O       0.7703   0.3231   0.5943     O
C       0.7727   0.7669   0.4604     C
C       0.7768   0.5517   0.3785     C
C       0.7769   0.5012   0.8658     C
H       0.7771   0.2942   0.0263     H
C       0.7789   0.6585  0.77578     C
C       0.7802   0.8044   0.0254     C
C       0.7842   0.4515   0.3637     C
H         0.79   0.9012   0.7045     H
C       0.7903   0.6036    0.882     C
C       0.7915   0.6812  0.20732     C
H       0.7957   0.8399   0.6306     H
C       0.7967   0.3006   0.5167     C
C        0.802    0.798   0.4974     C
H       0.8027   0.6501   0.7987     H
C       0.8048     0.07   0.6722     C
H       0.8061   0.8375   0.0801     H
C       0.8072   0.8032   0.7995     C
O       0.8111   0.7523  0.86422     O
C       0.8123   0.2944   0.4788     C
C        0.814   0.8338   0.7697     C
H       0.8157   0.6877    0.184     H
C       0.8174   0.1239   0.6667     C
H       0.8193   0.8376   0.6965     H
O        0.826   0.7439  0.95737     O
C       0.8267   0.6757  0.71502     C
C       0.8317   0.8763   0.6325     C
H       0.8329   0.7157   0.6517     H
C       0.8393   0.6652    0.269     C
H       0.8421   0.3489   0.3765     H
H       0.8458    0.651   0.6417     H
O       0.8466    0.767  0.43573     O
O       0.8526   0.2347  0.65437     O
C       0.8531   0.8744   0.6995     C
H       0.8554   0.5008   0.8585     H
H       0.8555   0.7901   0.0211     H
Cd     0.85686  0.32755  0.65792    Cd
C       0.8599   0.8537   0.5672     C
C       0.8618    0.664  0.74936     C
Cd     0.86729   0.7163  0.38137    Cd
C       0.8711   0.3214    0.581     C
C       0.8734   0.6769   0.2347     C
H       0.8747   0.2455   0.3658     H
O       0.8774   0.9816   0.6757     O
C       0.8852   0.6845   0.6528     C
C       0.8888   0.3161  0.54055     C
O        0.893    0.603   0.8693     O
H       0.8934    0.353    0.337     H
O       0.8938   0.6554  0.33032     O
C       0.8946   0.5511   0.3889     C
O       0.8962   0.8818  0.59959     O
C       0.8988   0.4512   0.3757     C
C       0.9008   0.0364   0.6717     C
H        0.902   0.8751   0.3424     H
H       0.9021   0.1541    0.234     H
C       0.9047   0.7544  0.84772     C
C       0.9109   0.7878  0.81558     C
H       0.9125   0.6739   0.5222     H
C       0.9129   0.8192    0.505     C
C       0.9136   0.3539   0.3628     C
H       0.9137   0.2073   0.1861     H
H       0.9138   0.7218   0.5892     H
O       0.9158   0.6801  0.69004     O
H       0.9177   0.2546   0.3262     H
Cd     0.91791  0.70106  0.90858    Cd
C       0.9191   0.8841   0.6647     C
C       0.9198   0.3053   0.4641     C
C       0.9206   0.8491   0.7574     C
H       0.9224   0.9648   0.3311     H
O       0.9237   0.2987  0.42644     O
C       0.9272   0.1462    0.661     C
H       0.9288   0.1551   0.3213     H
C       0.9292   0.6627  0.29863     C
H       0.9314   0.1469   0.3632     H
H       0.9328   0.5842    0.397     H
H       0.9348   0.6574    0.582     H
O        0.936   0.8804  0.72909     O
H       0.9383    0.665   0.4594     H
H       0.9412   0.6599   0.7545     H
C       0.9418   0.8474   0.5388     C
C       0.9431   0.2527   0.3513     C
C       0.9438   0.2048   0.6537     C
H       0.9527    0.682     0.23     H
O       0.9541   0.7803  0.35295     O
C        0.955   0.5018   0.3875     C
O       0.9595   0.3239  0.60207     O
O       0.9642   0.3337  0.70987     O
O       0.9659  0.40532   0.3762     O
H       0.9663   0.4979   0.6055     H
C       0.9695   0.6926  0.59204     C
H         0.97   0.8142   0.4866     H
C       0.9712   0.9427   0.6689     C
H       0.9735   0.0525   0.3107     H
O       0.9741   0.7899  0.64811     O
C       0.9747   0.1653   0.2259     C
C       0.9767   0.8887   0.3385     C
C       0.9786   0.1565   0.3429     C
C       0.9823   0.1966   0.1971     C
H       0.9832   0.1377   0.4572     H
C       0.9862   0.6801   0.5125     C
H       0.9873   0.0515   0.3534     H
C       0.9885   0.9426   0.3324     C
O        0.997   0.7325  0.85727     O
C        0.998   0.3251  0.52511     C
