data_I
_chemical_name_common  '/home/zhangsd/repos/MofS-CGCNN/ML/data/SSD/clean_cifs/ADOGEH_clean'
_cell_length_a 26.33360
_cell_length_b 26.33360
_cell_length_c 26.33360
_cell_angle_alpha 90.00000
_cell_angle_beta  90.00000
_cell_angle_gamma 90.00000
_space_group_name_H-M_alt      'P 1'


loop_
_space_group_symop_operation_xyz
  'x, y, z' 

loop_
_atom_site_label
_atom_site_fract_x
_atom_site_fract_y
_atom_site_fract_z
_atom_site_type_symbol
Cu         0.0   0.2147   0.2147    Cu
Cu         0.0   0.2147   0.7853    Cu
Cu         0.0   0.2853   0.2853    Cu
Cu         0.0   0.2853   0.7147    Cu
Cu         0.0   0.7147   0.2853    Cu
Cu         0.0   0.7147   0.7147    Cu
Cu         0.0   0.7853   0.2147    Cu
Cu         0.0   0.7853   0.7853    Cu
O       0.0523   0.1834   0.2569     O
O       0.0523   0.1834   0.7431     O
O       0.0523   0.2431   0.3166     O
O       0.0523   0.2431   0.6834     O
O       0.0523   0.2569   0.1834     O
O       0.0523   0.2569   0.8166     O
O       0.0523   0.3166   0.2431     O
O       0.0523   0.3166   0.7569     O
O       0.0523   0.6834   0.2431     O
O       0.0523   0.6834   0.7569     O
O       0.0523   0.7431   0.1834     O
O       0.0523   0.7431   0.8166     O
O       0.0523   0.7569   0.3166     O
O       0.0523   0.7569   0.6834     O
O       0.0523   0.8166   0.2569     O
O       0.0523   0.8166   0.7431     O
C       0.0692   0.2032   0.2968     C
C       0.0692   0.2032   0.7032     C
C       0.0692   0.2968   0.2032     C
C       0.0692   0.2968   0.7968     C
C       0.0692   0.7032   0.2032     C
C       0.0692   0.7032   0.7968     C
C       0.0692   0.7968   0.2968     C
C       0.0692   0.7968   0.7032     C
H       0.0839   0.1239   0.2434     H
H       0.0839   0.1239   0.7566     H
H       0.0839   0.2434   0.1239     H
H       0.0839   0.2434   0.8761     H
H       0.0839   0.2566   0.3761     H
H       0.0839   0.2566   0.6239     H
H       0.0839   0.3761   0.2566     H
H       0.0839   0.3761   0.7434     H
H       0.0839   0.6239   0.2566     H
H       0.0839   0.6239   0.7434     H
H       0.0839   0.7434   0.3761     H
H       0.0839   0.7434   0.6239     H
H       0.0839   0.7566   0.1239     H
H       0.0839   0.7566   0.8761     H
H       0.0839   0.8761   0.2434     H
H       0.0839   0.8761   0.7566     H
N       0.1091   0.1091   0.2577     N
N       0.1091   0.1091   0.7423     N
N       0.1091   0.2423   0.3909     N
N       0.1091   0.2423   0.6091     N
N       0.1091   0.2577   0.1091     N
N       0.1091   0.2577   0.8909     N
N       0.1091   0.3909   0.2423     N
N       0.1091   0.3909   0.7577     N
N       0.1091   0.6091   0.2423     N
N       0.1091   0.6091   0.7577     N
N       0.1091   0.7423   0.1091     N
N       0.1091   0.7423   0.8909     N
N       0.1091   0.7577   0.3909     N
N       0.1091   0.7577   0.6091     N
N       0.1091   0.8909   0.2577     N
N       0.1091   0.8909   0.7423     N
C       0.1122   0.1774   0.3226     C
C       0.1122   0.1774   0.6774     C
C       0.1122   0.3226   0.1774     C
C       0.1122   0.3226   0.8226     C
C       0.1122   0.6774   0.1774     C
C       0.1122   0.6774   0.8226     C
C       0.1122   0.8226   0.3226     C
C       0.1122   0.8226   0.6774     C
H       0.1185   0.1185   0.2731     H
H       0.1185   0.1185   0.7269     H
H       0.1185   0.2269   0.3815     H
H       0.1185   0.2269   0.6185     H
H       0.1185   0.2731   0.1185     H
H       0.1185   0.2731   0.8815     H
H       0.1185   0.3815   0.2269     H
H       0.1185   0.3815   0.7731     H
H       0.1185   0.6185   0.2269     H
H       0.1185   0.6185   0.7731     H
H       0.1185   0.7269   0.1185     H
H       0.1185   0.7269   0.8815     H
H       0.1185   0.7731   0.3815     H
H       0.1185   0.7731   0.6185     H
H       0.1185   0.8815   0.2731     H
H       0.1185   0.8815   0.7269     H
H       0.1239   0.0839   0.2434     H
H       0.1239   0.0839   0.7566     H
H       0.1239   0.2434   0.0839     H
H       0.1239   0.2434   0.9161     H
H       0.1239   0.2566   0.4161     H
H       0.1239   0.2566   0.5839     H
H       0.1239   0.4161   0.2566     H
H       0.1239   0.4161   0.7434     H
H       0.1239   0.5839   0.2566     H
H       0.1239   0.5839   0.7434     H
H       0.1239   0.7434   0.4161     H
H       0.1239   0.7434   0.5839     H
H       0.1239   0.7566   0.0839     H
H       0.1239   0.7566   0.9161     H
H       0.1239   0.9161   0.2434     H
H       0.1239   0.9161   0.7566     H
C       0.1335   0.1335   0.3013     C
C       0.1335   0.1335   0.6987     C
C       0.1335   0.1987   0.3665     C
C       0.1335   0.1987   0.6335     C
C       0.1335   0.3013   0.1335     C
C       0.1335   0.3013   0.8665     C
C       0.1335   0.3665   0.1987     C
C       0.1335   0.3665   0.8013     C
C       0.1335   0.6335   0.1987     C
C       0.1335   0.6335   0.8013     C
C       0.1335   0.6987   0.1335     C
C       0.1335   0.6987   0.8665     C
C       0.1335   0.8013   0.3665     C
C       0.1335   0.8013   0.6335     C
C       0.1335   0.8665   0.3013     C
C       0.1335   0.8665   0.6987     C
C       0.1774   0.1122   0.3226     C
C       0.1774   0.1122   0.6774     C
C       0.1774   0.1774   0.3878     C
C       0.1774   0.1774   0.6122     C
C       0.1774   0.3226   0.1122     C
C       0.1774   0.3226   0.8878     C
C       0.1774   0.3878   0.1774     C
C       0.1774   0.3878   0.8226     C
C       0.1774   0.6122   0.1774     C
C       0.1774   0.6122   0.8226     C
C       0.1774   0.6774   0.1122     C
C       0.1774   0.6774   0.8878     C
C       0.1774   0.8226   0.3878     C
C       0.1774   0.8226   0.6122     C
C       0.1774   0.8878   0.3226     C
C       0.1774   0.8878   0.6774     C
O       0.1834   0.0523   0.2569     O
O       0.1834   0.0523   0.7431     O
O       0.1834   0.2431   0.4477     O
O       0.1834   0.2431   0.5523     O
O       0.1834   0.2569   0.0523     O
O       0.1834   0.2569   0.9477     O
O       0.1834   0.4477   0.2431     O
O       0.1834   0.4477   0.7569     O
O       0.1834   0.5523   0.2431     O
O       0.1834   0.5523   0.7569     O
O       0.1834   0.7431   0.0523     O
O       0.1834   0.7431   0.9477     O
O       0.1834   0.7569   0.4477     O
O       0.1834   0.7569   0.5523     O
O       0.1834   0.9477   0.2569     O
O       0.1834   0.9477   0.7431     O
C       0.1987   0.1335   0.3665     C
C       0.1987   0.1335   0.6335     C
C       0.1987   0.3665   0.1335     C
C       0.1987   0.3665   0.8665     C
C       0.1987   0.6335   0.1335     C
C       0.1987   0.6335   0.8665     C
C       0.1987   0.8665   0.3665     C
C       0.1987   0.8665   0.6335     C
C       0.2032   0.0692   0.2968     C
C       0.2032   0.0692   0.7032     C
C       0.2032   0.2032   0.4308     C
C       0.2032   0.2032   0.5692     C
C       0.2032   0.2968   0.0692     C
C       0.2032   0.2968   0.9308     C
C       0.2032   0.4308   0.2032     C
C       0.2032   0.4308   0.7968     C
C       0.2032   0.5692   0.2032     C
C       0.2032   0.5692   0.7968     C
C       0.2032   0.7032   0.0692     C
C       0.2032   0.7032   0.9308     C
C       0.2032   0.7968   0.4308     C
C       0.2032   0.7968   0.5692     C
C       0.2032   0.9308   0.2968     C
C       0.2032   0.9308   0.7032     C
Cu      0.2147      0.0   0.2147    Cu
Cu      0.2147      0.0   0.7853    Cu
Cu      0.2147   0.2147      0.0    Cu
Cu      0.2147   0.2853      0.5    Cu
Cu      0.2147      0.5   0.2853    Cu
Cu      0.2147      0.5   0.7147    Cu
Cu      0.2147   0.7147      0.5    Cu
Cu      0.2147   0.7853      0.0    Cu
H       0.2269   0.1185   0.3815     H
H       0.2269   0.1185   0.6185     H
H       0.2269   0.3815   0.1185     H
H       0.2269   0.3815   0.8815     H
H       0.2269   0.6185   0.1185     H
H       0.2269   0.6185   0.8815     H
H       0.2269   0.8815   0.3815     H
H       0.2269   0.8815   0.6185     H
N       0.2423   0.1091   0.3909     N
N       0.2423   0.1091   0.6091     N
N       0.2423   0.3909   0.1091     N
N       0.2423   0.3909   0.8909     N
N       0.2423   0.6091   0.1091     N
N       0.2423   0.6091   0.8909     N
N       0.2423   0.8909   0.3909     N
N       0.2423   0.8909   0.6091     N
O       0.2431   0.0523   0.3166     O
O       0.2431   0.0523   0.6834     O
O       0.2431   0.1834   0.4477     O
O       0.2431   0.1834   0.5523     O
O       0.2431   0.3166   0.0523     O
O       0.2431   0.3166   0.9477     O
O       0.2431   0.4477   0.1834     O
O       0.2431   0.4477   0.8166     O
O       0.2431   0.5523   0.1834     O
O       0.2431   0.5523   0.8166     O
O       0.2431   0.6834   0.0523     O
O       0.2431   0.6834   0.9477     O
O       0.2431   0.8166   0.4477     O
O       0.2431   0.8166   0.5523     O
O       0.2431   0.9477   0.3166     O
O       0.2431   0.9477   0.6834     O
H       0.2434   0.0839   0.1239     H
H       0.2434   0.0839   0.8761     H
H       0.2434   0.1239   0.0839     H
H       0.2434   0.1239   0.9161     H
H       0.2434   0.3761   0.4161     H
H       0.2434   0.3761   0.5839     H
H       0.2434   0.4161   0.3761     H
H       0.2434   0.4161   0.6239     H
H       0.2434   0.5839   0.3761     H
H       0.2434   0.5839   0.6239     H
H       0.2434   0.6239   0.4161     H
H       0.2434   0.6239   0.5839     H
H       0.2434   0.8761   0.0839     H
H       0.2434   0.8761   0.9161     H
H       0.2434   0.9161   0.1239     H
H       0.2434   0.9161   0.8761     H
H       0.2566   0.0839   0.3761     H
H       0.2566   0.0839   0.6239     H
H       0.2566   0.1239   0.4161     H
H       0.2566   0.1239   0.5839     H
H       0.2566   0.3761   0.0839     H
H       0.2566   0.3761   0.9161     H
H       0.2566   0.4161   0.1239     H
H       0.2566   0.4161   0.8761     H
H       0.2566   0.5839   0.1239     H
H       0.2566   0.5839   0.8761     H
H       0.2566   0.6239   0.0839     H
H       0.2566   0.6239   0.9161     H
H       0.2566   0.8761   0.4161     H
H       0.2566   0.8761   0.5839     H
H       0.2566   0.9161   0.3761     H
H       0.2566   0.9161   0.6239     H
O       0.2569   0.0523   0.1834     O
O       0.2569   0.0523   0.8166     O
O       0.2569   0.1834   0.0523     O
O       0.2569   0.1834   0.9477     O
O       0.2569   0.3166   0.4477     O
O       0.2569   0.3166   0.5523     O
O       0.2569   0.4477   0.3166     O
O       0.2569   0.4477   0.6834     O
O       0.2569   0.5523   0.3166     O
O       0.2569   0.5523   0.6834     O
O       0.2569   0.6834   0.4477     O
O       0.2569   0.6834   0.5523     O
O       0.2569   0.8166   0.0523     O
O       0.2569   0.8166   0.9477     O
O       0.2569   0.9477   0.1834     O
O       0.2569   0.9477   0.8166     O
N       0.2577   0.1091   0.1091     N
N       0.2577   0.1091   0.8909     N
N       0.2577   0.3909   0.3909     N
N       0.2577   0.3909   0.6091     N
N       0.2577   0.6091   0.3909     N
N       0.2577   0.6091   0.6091     N
N       0.2577   0.8909   0.1091     N
N       0.2577   0.8909   0.8909     N
H       0.2731   0.1185   0.1185     H
H       0.2731   0.1185   0.8815     H
H       0.2731   0.3815   0.3815     H
H       0.2731   0.3815   0.6185     H
H       0.2731   0.6185   0.3815     H
H       0.2731   0.6185   0.6185     H
H       0.2731   0.8815   0.1185     H
H       0.2731   0.8815   0.8815     H
Cu      0.2853      0.0   0.2853    Cu
Cu      0.2853      0.0   0.7147    Cu
Cu      0.2853   0.2147      0.5    Cu
Cu      0.2853   0.2853      0.0    Cu
Cu      0.2853      0.5   0.2147    Cu
Cu      0.2853      0.5   0.7853    Cu
Cu      0.2853   0.7147      0.0    Cu
Cu      0.2853   0.7853      0.5    Cu
C       0.2968   0.0692   0.2032     C
C       0.2968   0.0692   0.7968     C
C       0.2968   0.2032   0.0692     C
C       0.2968   0.2032   0.9308     C
C       0.2968   0.2968   0.4308     C
C       0.2968   0.2968   0.5692     C
C       0.2968   0.4308   0.2968     C
C       0.2968   0.4308   0.7032     C
C       0.2968   0.5692   0.2968     C
C       0.2968   0.5692   0.7032     C
C       0.2968   0.7032   0.4308     C
C       0.2968   0.7032   0.5692     C
C       0.2968   0.7968   0.0692     C
C       0.2968   0.7968   0.9308     C
C       0.2968   0.9308   0.2032     C
C       0.2968   0.9308   0.7968     C
C       0.3013   0.1335   0.1335     C
C       0.3013   0.1335   0.8665     C
C       0.3013   0.3665   0.3665     C
C       0.3013   0.3665   0.6335     C
C       0.3013   0.6335   0.3665     C
C       0.3013   0.6335   0.6335     C
C       0.3013   0.8665   0.1335     C
C       0.3013   0.8665   0.8665     C
O       0.3166   0.0523   0.2431     O
O       0.3166   0.0523   0.7569     O
O       0.3166   0.2431   0.0523     O
O       0.3166   0.2431   0.9477     O
O       0.3166   0.2569   0.4477     O
O       0.3166   0.2569   0.5523     O
O       0.3166   0.4477   0.2569     O
O       0.3166   0.4477   0.7431     O
O       0.3166   0.5523   0.2569     O
O       0.3166   0.5523   0.7431     O
O       0.3166   0.7431   0.4477     O
O       0.3166   0.7431   0.5523     O
O       0.3166   0.7569   0.0523     O
O       0.3166   0.7569   0.9477     O
O       0.3166   0.9477   0.2431     O
O       0.3166   0.9477   0.7569     O
C       0.3226   0.1122   0.1774     C
C       0.3226   0.1122   0.8226     C
C       0.3226   0.1774   0.1122     C
C       0.3226   0.1774   0.8878     C
C       0.3226   0.3226   0.3878     C
C       0.3226   0.3226   0.6122     C
C       0.3226   0.3878   0.3226     C
C       0.3226   0.3878   0.6774     C
C       0.3226   0.6122   0.3226     C
C       0.3226   0.6122   0.6774     C
C       0.3226   0.6774   0.3878     C
C       0.3226   0.6774   0.6122     C
C       0.3226   0.8226   0.1122     C
C       0.3226   0.8226   0.8878     C
C       0.3226   0.8878   0.1774     C
C       0.3226   0.8878   0.8226     C
C       0.3665   0.1335   0.1987     C
C       0.3665   0.1335   0.8013     C
C       0.3665   0.1987   0.1335     C
C       0.3665   0.1987   0.8665     C
C       0.3665   0.3013   0.3665     C
C       0.3665   0.3013   0.6335     C
C       0.3665   0.3665   0.3013     C
C       0.3665   0.3665   0.6987     C
C       0.3665   0.6335   0.3013     C
C       0.3665   0.6335   0.6987     C
C       0.3665   0.6987   0.3665     C
C       0.3665   0.6987   0.6335     C
C       0.3665   0.8013   0.1335     C
C       0.3665   0.8013   0.8665     C
C       0.3665   0.8665   0.1987     C
C       0.3665   0.8665   0.8013     C
H       0.3761   0.0839   0.2566     H
H       0.3761   0.0839   0.7434     H
H       0.3761   0.2434   0.4161     H
H       0.3761   0.2434   0.5839     H
H       0.3761   0.2566   0.0839     H
H       0.3761   0.2566   0.9161     H
H       0.3761   0.4161   0.2434     H
H       0.3761   0.4161   0.7566     H
H       0.3761   0.5839   0.2434     H
H       0.3761   0.5839   0.7566     H
H       0.3761   0.7434   0.0839     H
H       0.3761   0.7434   0.9161     H
H       0.3761   0.7566   0.4161     H
H       0.3761   0.7566   0.5839     H
H       0.3761   0.9161   0.2566     H
H       0.3761   0.9161   0.7434     H
H       0.3815   0.1185   0.2269     H
H       0.3815   0.1185   0.7731     H
H       0.3815   0.2269   0.1185     H
H       0.3815   0.2269   0.8815     H
H       0.3815   0.2731   0.3815     H
H       0.3815   0.2731   0.6185     H
H       0.3815   0.3815   0.2731     H
H       0.3815   0.3815   0.7269     H
H       0.3815   0.6185   0.2731     H
H       0.3815   0.6185   0.7269     H
H       0.3815   0.7269   0.3815     H
H       0.3815   0.7269   0.6185     H
H       0.3815   0.7731   0.1185     H
H       0.3815   0.7731   0.8815     H
H       0.3815   0.8815   0.2269     H
H       0.3815   0.8815   0.7731     H
C       0.3878   0.1774   0.1774     C
C       0.3878   0.1774   0.8226     C
C       0.3878   0.3226   0.3226     C
C       0.3878   0.3226   0.6774     C
C       0.3878   0.6774   0.3226     C
C       0.3878   0.6774   0.6774     C
C       0.3878   0.8226   0.1774     C
C       0.3878   0.8226   0.8226     C
N       0.3909   0.1091   0.2423     N
N       0.3909   0.1091   0.7577     N
N       0.3909   0.2423   0.1091     N
N       0.3909   0.2423   0.8909     N
N       0.3909   0.2577   0.3909     N
N       0.3909   0.2577   0.6091     N
N       0.3909   0.3909   0.2577     N
N       0.3909   0.3909   0.7423     N
N       0.3909   0.6091   0.2577     N
N       0.3909   0.6091   0.7423     N
N       0.3909   0.7423   0.3909     N
N       0.3909   0.7423   0.6091     N
N       0.3909   0.7577   0.1091     N
N       0.3909   0.7577   0.8909     N
N       0.3909   0.8909   0.2423     N
N       0.3909   0.8909   0.7577     N
H       0.4161   0.1239   0.2566     H
H       0.4161   0.1239   0.7434     H
H       0.4161   0.2434   0.3761     H
H       0.4161   0.2434   0.6239     H
H       0.4161   0.2566   0.1239     H
H       0.4161   0.2566   0.8761     H
H       0.4161   0.3761   0.2434     H
H       0.4161   0.3761   0.7566     H
H       0.4161   0.6239   0.2434     H
H       0.4161   0.6239   0.7566     H
H       0.4161   0.7434   0.1239     H
H       0.4161   0.7434   0.8761     H
H       0.4161   0.7566   0.3761     H
H       0.4161   0.7566   0.6239     H
H       0.4161   0.8761   0.2566     H
H       0.4161   0.8761   0.7434     H
C       0.4308   0.2032   0.2032     C
C       0.4308   0.2032   0.7968     C
C       0.4308   0.2968   0.2968     C
C       0.4308   0.2968   0.7032     C
C       0.4308   0.7032   0.2968     C
C       0.4308   0.7032   0.7032     C
C       0.4308   0.7968   0.2032     C
C       0.4308   0.7968   0.7968     C
O       0.4477   0.1834   0.2431     O
O       0.4477   0.1834   0.7569     O
O       0.4477   0.2431   0.1834     O
O       0.4477   0.2431   0.8166     O
O       0.4477   0.2569   0.3166     O
O       0.4477   0.2569   0.6834     O
O       0.4477   0.3166   0.2569     O
O       0.4477   0.3166   0.7431     O
O       0.4477   0.6834   0.2569     O
O       0.4477   0.6834   0.7431     O
O       0.4477   0.7431   0.3166     O
O       0.4477   0.7431   0.6834     O
O       0.4477   0.7569   0.1834     O
O       0.4477   0.7569   0.8166     O
O       0.4477   0.8166   0.2431     O
O       0.4477   0.8166   0.7569     O
Cu         0.5   0.2147   0.2853    Cu
Cu         0.5   0.2147   0.7147    Cu
Cu         0.5   0.2853   0.2147    Cu
Cu         0.5   0.2853   0.7853    Cu
Cu         0.5   0.7147   0.2147    Cu
Cu         0.5   0.7147   0.7853    Cu
Cu         0.5   0.7853   0.2853    Cu
Cu         0.5   0.7853   0.7147    Cu
O       0.5523   0.1834   0.2431     O
O       0.5523   0.1834   0.7569     O
O       0.5523   0.2431   0.1834     O
O       0.5523   0.2431   0.8166     O
O       0.5523   0.2569   0.3166     O
O       0.5523   0.2569   0.6834     O
O       0.5523   0.3166   0.2569     O
O       0.5523   0.3166   0.7431     O
O       0.5523   0.6834   0.2569     O
O       0.5523   0.6834   0.7431     O
O       0.5523   0.7431   0.3166     O
O       0.5523   0.7431   0.6834     O
O       0.5523   0.7569   0.1834     O
O       0.5523   0.7569   0.8166     O
O       0.5523   0.8166   0.2431     O
O       0.5523   0.8166   0.7569     O
C       0.5692   0.2032   0.2032     C
C       0.5692   0.2032   0.7968     C
C       0.5692   0.2968   0.2968     C
C       0.5692   0.2968   0.7032     C
C       0.5692   0.7032   0.2968     C
C       0.5692   0.7032   0.7032     C
C       0.5692   0.7968   0.2032     C
C       0.5692   0.7968   0.7968     C
H       0.5839   0.1239   0.2566     H
H       0.5839   0.1239   0.7434     H
H       0.5839   0.2434   0.3761     H
H       0.5839   0.2434   0.6239     H
H       0.5839   0.2566   0.1239     H
H       0.5839   0.2566   0.8761     H
H       0.5839   0.3761   0.2434     H
H       0.5839   0.3761   0.7566     H
H       0.5839   0.6239   0.2434     H
H       0.5839   0.6239   0.7566     H
H       0.5839   0.7434   0.1239     H
H       0.5839   0.7434   0.8761     H
H       0.5839   0.7566   0.3761     H
H       0.5839   0.7566   0.6239     H
H       0.5839   0.8761   0.2566     H
H       0.5839   0.8761   0.7434     H
N       0.6091   0.1091   0.2423     N
N       0.6091   0.1091   0.7577     N
N       0.6091   0.2423   0.1091     N
N       0.6091   0.2423   0.8909     N
N       0.6091   0.2577   0.3909     N
N       0.6091   0.2577   0.6091     N
N       0.6091   0.3909   0.2577     N
N       0.6091   0.3909   0.7423     N
N       0.6091   0.6091   0.2577     N
N       0.6091   0.6091   0.7423     N
N       0.6091   0.7423   0.3909     N
N       0.6091   0.7423   0.6091     N
N       0.6091   0.7577   0.1091     N
N       0.6091   0.7577   0.8909     N
N       0.6091   0.8909   0.2423     N
N       0.6091   0.8909   0.7577     N
C       0.6122   0.1774   0.1774     C
C       0.6122   0.1774   0.8226     C
C       0.6122   0.3226   0.3226     C
C       0.6122   0.3226   0.6774     C
C       0.6122   0.6774   0.3226     C
C       0.6122   0.6774   0.6774     C
C       0.6122   0.8226   0.1774     C
C       0.6122   0.8226   0.8226     C
H       0.6185   0.1185   0.2269     H
H       0.6185   0.1185   0.7731     H
H       0.6185   0.2269   0.1185     H
H       0.6185   0.2269   0.8815     H
H       0.6185   0.2731   0.3815     H
H       0.6185   0.2731   0.6185     H
H       0.6185   0.3815   0.2731     H
H       0.6185   0.3815   0.7269     H
H       0.6185   0.6185   0.2731     H
H       0.6185   0.6185   0.7269     H
H       0.6185   0.7269   0.3815     H
H       0.6185   0.7269   0.6185     H
H       0.6185   0.7731   0.1185     H
H       0.6185   0.7731   0.8815     H
H       0.6185   0.8815   0.2269     H
H       0.6185   0.8815   0.7731     H
H       0.6239   0.0839   0.2566     H
H       0.6239   0.0839   0.7434     H
H       0.6239   0.2434   0.4161     H
H       0.6239   0.2434   0.5839     H
H       0.6239   0.2566   0.0839     H
H       0.6239   0.2566   0.9161     H
H       0.6239   0.4161   0.2434     H
H       0.6239   0.4161   0.7566     H
H       0.6239   0.5839   0.2434     H
H       0.6239   0.5839   0.7566     H
H       0.6239   0.7434   0.0839     H
H       0.6239   0.7434   0.9161     H
H       0.6239   0.7566   0.4161     H
H       0.6239   0.7566   0.5839     H
H       0.6239   0.9161   0.2566     H
H       0.6239   0.9161   0.7434     H
C       0.6335   0.1335   0.1987     C
C       0.6335   0.1335   0.8013     C
C       0.6335   0.1987   0.1335     C
C       0.6335   0.1987   0.8665     C
C       0.6335   0.3013   0.3665     C
C       0.6335   0.3013   0.6335     C
C       0.6335   0.3665   0.3013     C
C       0.6335   0.3665   0.6987     C
C       0.6335   0.6335   0.3013     C
C       0.6335   0.6335   0.6987     C
C       0.6335   0.6987   0.3665     C
C       0.6335   0.6987   0.6335     C
C       0.6335   0.8013   0.1335     C
C       0.6335   0.8013   0.8665     C
C       0.6335   0.8665   0.1987     C
C       0.6335   0.8665   0.8013     C
C       0.6774   0.1122   0.1774     C
C       0.6774   0.1122   0.8226     C
C       0.6774   0.1774   0.1122     C
C       0.6774   0.1774   0.8878     C
C       0.6774   0.3226   0.3878     C
C       0.6774   0.3226   0.6122     C
C       0.6774   0.3878   0.3226     C
C       0.6774   0.3878   0.6774     C
C       0.6774   0.6122   0.3226     C
C       0.6774   0.6122   0.6774     C
C       0.6774   0.6774   0.3878     C
C       0.6774   0.6774   0.6122     C
C       0.6774   0.8226   0.1122     C
C       0.6774   0.8226   0.8878     C
C       0.6774   0.8878   0.1774     C
C       0.6774   0.8878   0.8226     C
O       0.6834   0.0523   0.2431     O
O       0.6834   0.0523   0.7569     O
O       0.6834   0.2431   0.0523     O
O       0.6834   0.2431   0.9477     O
O       0.6834   0.2569   0.4477     O
O       0.6834   0.2569   0.5523     O
O       0.6834   0.4477   0.2569     O
O       0.6834   0.4477   0.7431     O
O       0.6834   0.5523   0.2569     O
O       0.6834   0.5523   0.7431     O
O       0.6834   0.7431   0.4477     O
O       0.6834   0.7431   0.5523     O
O       0.6834   0.7569   0.0523     O
O       0.6834   0.7569   0.9477     O
O       0.6834   0.9477   0.2431     O
O       0.6834   0.9477   0.7569     O
C       0.6987   0.1335   0.1335     C
C       0.6987   0.1335   0.8665     C
C       0.6987   0.3665   0.3665     C
C       0.6987   0.3665   0.6335     C
C       0.6987   0.6335   0.3665     C
C       0.6987   0.6335   0.6335     C
C       0.6987   0.8665   0.1335     C
C       0.6987   0.8665   0.8665     C
C       0.7032   0.0692   0.2032     C
C       0.7032   0.0692   0.7968     C
C       0.7032   0.2032   0.0692     C
C       0.7032   0.2032   0.9308     C
C       0.7032   0.2968   0.4308     C
C       0.7032   0.2968   0.5692     C
C       0.7032   0.4308   0.2968     C
C       0.7032   0.4308   0.7032     C
C       0.7032   0.5692   0.2968     C
C       0.7032   0.5692   0.7032     C
C       0.7032   0.7032   0.4308     C
C       0.7032   0.7032   0.5692     C
C       0.7032   0.7968   0.0692     C
C       0.7032   0.7968   0.9308     C
C       0.7032   0.9308   0.2032     C
C       0.7032   0.9308   0.7968     C
Cu      0.7147      0.0   0.2853    Cu
Cu      0.7147      0.0   0.7147    Cu
Cu      0.7147   0.2147      0.5    Cu
Cu      0.7147   0.2853      0.0    Cu
Cu      0.7147      0.5   0.2147    Cu
Cu      0.7147      0.5   0.7853    Cu
Cu      0.7147   0.7147      0.0    Cu
Cu      0.7147   0.7853      0.5    Cu
H       0.7269   0.1185   0.1185     H
H       0.7269   0.1185   0.8815     H
H       0.7269   0.3815   0.3815     H
H       0.7269   0.3815   0.6185     H
H       0.7269   0.6185   0.3815     H
H       0.7269   0.6185   0.6185     H
H       0.7269   0.8815   0.1185     H
H       0.7269   0.8815   0.8815     H
N       0.7423   0.1091   0.1091     N
N       0.7423   0.1091   0.8909     N
N       0.7423   0.3909   0.3909     N
N       0.7423   0.3909   0.6091     N
N       0.7423   0.6091   0.3909     N
N       0.7423   0.6091   0.6091     N
N       0.7423   0.8909   0.1091     N
N       0.7423   0.8909   0.8909     N
O       0.7431   0.0523   0.1834     O
O       0.7431   0.0523   0.8166     O
O       0.7431   0.1834   0.0523     O
O       0.7431   0.1834   0.9477     O
O       0.7431   0.3166   0.4477     O
O       0.7431   0.3166   0.5523     O
O       0.7431   0.4477   0.3166     O
O       0.7431   0.4477   0.6834     O
O       0.7431   0.5523   0.3166     O
O       0.7431   0.5523   0.6834     O
O       0.7431   0.6834   0.4477     O
O       0.7431   0.6834   0.5523     O
O       0.7431   0.8166   0.0523     O
O       0.7431   0.8166   0.9477     O
O       0.7431   0.9477   0.1834     O
O       0.7431   0.9477   0.8166     O
H       0.7434   0.0839   0.3761     H
H       0.7434   0.0839   0.6239     H
H       0.7434   0.1239   0.4161     H
H       0.7434   0.1239   0.5839     H
H       0.7434   0.3761   0.0839     H
H       0.7434   0.3761   0.9161     H
H       0.7434   0.4161   0.1239     H
H       0.7434   0.4161   0.8761     H
H       0.7434   0.5839   0.1239     H
H       0.7434   0.5839   0.8761     H
H       0.7434   0.6239   0.0839     H
H       0.7434   0.6239   0.9161     H
H       0.7434   0.8761   0.4161     H
H       0.7434   0.8761   0.5839     H
H       0.7434   0.9161   0.3761     H
H       0.7434   0.9161   0.6239     H
H       0.7566   0.0839   0.1239     H
H       0.7566   0.0839   0.8761     H
H       0.7566   0.1239   0.0839     H
H       0.7566   0.1239   0.9161     H
H       0.7566   0.3761   0.4161     H
H       0.7566   0.3761   0.5839     H
H       0.7566   0.4161   0.3761     H
H       0.7566   0.4161   0.6239     H
H       0.7566   0.5839   0.3761     H
H       0.7566   0.5839   0.6239     H
H       0.7566   0.6239   0.4161     H
H       0.7566   0.6239   0.5839     H
H       0.7566   0.8761   0.0839     H
H       0.7566   0.8761   0.9161     H
H       0.7566   0.9161   0.1239     H
H       0.7566   0.9161   0.8761     H
O       0.7569   0.0523   0.3166     O
O       0.7569   0.0523   0.6834     O
O       0.7569   0.1834   0.4477     O
O       0.7569   0.1834   0.5523     O
O       0.7569   0.3166   0.0523     O
O       0.7569   0.3166   0.9477     O
O       0.7569   0.4477   0.1834     O
O       0.7569   0.4477   0.8166     O
O       0.7569   0.5523   0.1834     O
O       0.7569   0.5523   0.8166     O
O       0.7569   0.6834   0.0523     O
O       0.7569   0.6834   0.9477     O
O       0.7569   0.8166   0.4477     O
O       0.7569   0.8166   0.5523     O
O       0.7569   0.9477   0.3166     O
O       0.7569   0.9477   0.6834     O
N       0.7577   0.1091   0.3909     N
N       0.7577   0.1091   0.6091     N
N       0.7577   0.3909   0.1091     N
N       0.7577   0.3909   0.8909     N
N       0.7577   0.6091   0.1091     N
N       0.7577   0.6091   0.8909     N
N       0.7577   0.8909   0.3909     N
N       0.7577   0.8909   0.6091     N
H       0.7731   0.1185   0.3815     H
H       0.7731   0.1185   0.6185     H
H       0.7731   0.3815   0.1185     H
H       0.7731   0.3815   0.8815     H
H       0.7731   0.6185   0.1185     H
H       0.7731   0.6185   0.8815     H
H       0.7731   0.8815   0.3815     H
H       0.7731   0.8815   0.6185     H
Cu      0.7853      0.0   0.2147    Cu
Cu      0.7853      0.0   0.7853    Cu
Cu      0.7853   0.2147      0.0    Cu
Cu      0.7853   0.2853      0.5    Cu
Cu      0.7853      0.5   0.2853    Cu
Cu      0.7853      0.5   0.7147    Cu
Cu      0.7853   0.7147      0.5    Cu
Cu      0.7853   0.7853      0.0    Cu
C       0.7968   0.0692   0.2968     C
C       0.7968   0.0692   0.7032     C
C       0.7968   0.2032   0.4308     C
C       0.7968   0.2032   0.5692     C
C       0.7968   0.2968   0.0692     C
C       0.7968   0.2968   0.9308     C
C       0.7968   0.4308   0.2032     C
C       0.7968   0.4308   0.7968     C
C       0.7968   0.5692   0.2032     C
C       0.7968   0.5692   0.7968     C
C       0.7968   0.7032   0.0692     C
C       0.7968   0.7032   0.9308     C
C       0.7968   0.7968   0.4308     C
C       0.7968   0.7968   0.5692     C
C       0.7968   0.9308   0.2968     C
C       0.7968   0.9308   0.7032     C
C       0.8013   0.1335   0.3665     C
C       0.8013   0.1335   0.6335     C
C       0.8013   0.3665   0.1335     C
C       0.8013   0.3665   0.8665     C
C       0.8013   0.6335   0.1335     C
C       0.8013   0.6335   0.8665     C
C       0.8013   0.8665   0.3665     C
C       0.8013   0.8665   0.6335     C
O       0.8166   0.0523   0.2569     O
O       0.8166   0.0523   0.7431     O
O       0.8166   0.2431   0.4477     O
O       0.8166   0.2431   0.5523     O
O       0.8166   0.2569   0.0523     O
O       0.8166   0.2569   0.9477     O
O       0.8166   0.4477   0.2431     O
O       0.8166   0.4477   0.7569     O
O       0.8166   0.5523   0.2431     O
O       0.8166   0.5523   0.7569     O
O       0.8166   0.7431   0.0523     O
O       0.8166   0.7431   0.9477     O
O       0.8166   0.7569   0.4477     O
O       0.8166   0.7569   0.5523     O
O       0.8166   0.9477   0.2569     O
O       0.8166   0.9477   0.7431     O
C       0.8226   0.1122   0.3226     C
C       0.8226   0.1122   0.6774     C
C       0.8226   0.1774   0.3878     C
C       0.8226   0.1774   0.6122     C
C       0.8226   0.3226   0.1122     C
C       0.8226   0.3226   0.8878     C
C       0.8226   0.3878   0.1774     C
C       0.8226   0.3878   0.8226     C
C       0.8226   0.6122   0.1774     C
C       0.8226   0.6122   0.8226     C
C       0.8226   0.6774   0.1122     C
C       0.8226   0.6774   0.8878     C
C       0.8226   0.8226   0.3878     C
C       0.8226   0.8226   0.6122     C
C       0.8226   0.8878   0.3226     C
C       0.8226   0.8878   0.6774     C
C       0.8665   0.1335   0.3013     C
C       0.8665   0.1335   0.6987     C
C       0.8665   0.1987   0.3665     C
C       0.8665   0.1987   0.6335     C
C       0.8665   0.3013   0.1335     C
C       0.8665   0.3013   0.8665     C
C       0.8665   0.3665   0.1987     C
C       0.8665   0.3665   0.8013     C
C       0.8665   0.6335   0.1987     C
C       0.8665   0.6335   0.8013     C
C       0.8665   0.6987   0.1335     C
C       0.8665   0.6987   0.8665     C
C       0.8665   0.8013   0.3665     C
C       0.8665   0.8013   0.6335     C
C       0.8665   0.8665   0.3013     C
C       0.8665   0.8665   0.6987     C
H       0.8761   0.0839   0.2434     H
H       0.8761   0.0839   0.7566     H
H       0.8761   0.2434   0.0839     H
H       0.8761   0.2434   0.9161     H
H       0.8761   0.2566   0.4161     H
H       0.8761   0.2566   0.5839     H
H       0.8761   0.4161   0.2566     H
H       0.8761   0.4161   0.7434     H
H       0.8761   0.5839   0.2566     H
H       0.8761   0.5839   0.7434     H
H       0.8761   0.7434   0.4161     H
H       0.8761   0.7434   0.5839     H
H       0.8761   0.7566   0.0839     H
H       0.8761   0.7566   0.9161     H
H       0.8761   0.9161   0.2434     H
H       0.8761   0.9161   0.7566     H
H       0.8815   0.1185   0.2731     H
H       0.8815   0.1185   0.7269     H
H       0.8815   0.2269   0.3815     H
H       0.8815   0.2269   0.6185     H
H       0.8815   0.2731   0.1185     H
H       0.8815   0.2731   0.8815     H
H       0.8815   0.3815   0.2269     H
H       0.8815   0.3815   0.7731     H
H       0.8815   0.6185   0.2269     H
H       0.8815   0.6185   0.7731     H
H       0.8815   0.7269   0.1185     H
H       0.8815   0.7269   0.8815     H
H       0.8815   0.7731   0.3815     H
H       0.8815   0.7731   0.6185     H
H       0.8815   0.8815   0.2731     H
H       0.8815   0.8815   0.7269     H
C       0.8878   0.1774   0.3226     C
C       0.8878   0.1774   0.6774     C
C       0.8878   0.3226   0.1774     C
C       0.8878   0.3226   0.8226     C
C       0.8878   0.6774   0.1774     C
C       0.8878   0.6774   0.8226     C
C       0.8878   0.8226   0.3226     C
C       0.8878   0.8226   0.6774     C
N       0.8909   0.1091   0.2577     N
N       0.8909   0.1091   0.7423     N
N       0.8909   0.2423   0.3909     N
N       0.8909   0.2423   0.6091     N
N       0.8909   0.2577   0.1091     N
N       0.8909   0.2577   0.8909     N
N       0.8909   0.3909   0.2423     N
N       0.8909   0.3909   0.7577     N
N       0.8909   0.6091   0.2423     N
N       0.8909   0.6091   0.7577     N
N       0.8909   0.7423   0.1091     N
N       0.8909   0.7423   0.8909     N
N       0.8909   0.7577   0.3909     N
N       0.8909   0.7577   0.6091     N
N       0.8909   0.8909   0.2577     N
N       0.8909   0.8909   0.7423     N
H       0.9161   0.1239   0.2434     H
H       0.9161   0.1239   0.7566     H
H       0.9161   0.2434   0.1239     H
H       0.9161   0.2434   0.8761     H
H       0.9161   0.2566   0.3761     H
H       0.9161   0.2566   0.6239     H
H       0.9161   0.3761   0.2566     H
H       0.9161   0.3761   0.7434     H
H       0.9161   0.6239   0.2566     H
H       0.9161   0.6239   0.7434     H
H       0.9161   0.7434   0.3761     H
H       0.9161   0.7434   0.6239     H
H       0.9161   0.7566   0.1239     H
H       0.9161   0.7566   0.8761     H
H       0.9161   0.8761   0.2434     H
H       0.9161   0.8761   0.7566     H
C       0.9308   0.2032   0.2968     C
C       0.9308   0.2032   0.7032     C
C       0.9308   0.2968   0.2032     C
C       0.9308   0.2968   0.7968     C
C       0.9308   0.7032   0.2032     C
C       0.9308   0.7032   0.7968     C
C       0.9308   0.7968   0.2968     C
C       0.9308   0.7968   0.7032     C
O       0.9477   0.1834   0.2569     O
O       0.9477   0.1834   0.7431     O
O       0.9477   0.2431   0.3166     O
O       0.9477   0.2431   0.6834     O
O       0.9477   0.2569   0.1834     O
O       0.9477   0.2569   0.8166     O
O       0.9477   0.3166   0.2431     O
O       0.9477   0.3166   0.7569     O
O       0.9477   0.6834   0.2431     O
O       0.9477   0.6834   0.7569     O
O       0.9477   0.7431   0.1834     O
O       0.9477   0.7431   0.8166     O
O       0.9477   0.7569   0.3166     O
O       0.9477   0.7569   0.6834     O
O       0.9477   0.8166   0.2569     O
O       0.9477   0.8166   0.7431     O
