data_I
_chemical_name_common  '/home/zhangsd/repos/MofS-CGCNN/ML/data/SSD/clean_cifs/ADUWON_clean'
_cell_length_a 30.01400
_cell_length_b 30.01400
_cell_length_c 30.01400
_cell_angle_alpha 90.00000
_cell_angle_beta  90.00000
_cell_angle_gamma 90.00000
_space_group_name_H-M_alt      'P 1'


loop_
_space_group_symop_operation_xyz
  'x, y, z' 

loop_
_atom_site_label
_atom_site_fract_x
_atom_site_fract_y
_atom_site_fract_z
_atom_site_type_symbol
Ni         0.0      0.0  0.37657    Ni
Ni         0.0      0.0  0.62343    Ni
Ni         0.0  0.37657      0.0    Ni
Ni         0.0  0.62343      0.0    Ni
H       0.0452    0.359    0.359     H
H       0.0452    0.359    0.641     H
H       0.0452    0.641    0.359     H
H       0.0452    0.641    0.641     H
O      0.04748  0.04748  0.38002     O
O      0.04748  0.04748  0.61998     O
O      0.04748  0.38002  0.04748     O
O      0.04748  0.38002  0.95252     O
O      0.04748  0.61998  0.04748     O
O      0.04748  0.61998  0.95252     O
O      0.04748  0.95252  0.38002     O
O      0.04748  0.95252  0.61998     O
O       0.0639   0.0639  0.31089     O
O       0.0639   0.0639  0.68911     O
O       0.0639  0.31089   0.0639     O
O       0.0639  0.31089   0.9361     O
O       0.0639  0.68911   0.0639     O
O       0.0639  0.68911   0.9361     O
O       0.0639   0.9361  0.31089     O
O       0.0639   0.9361  0.68911     O
C      0.06793  0.06793   0.3518     C
C      0.06793  0.06793   0.6482     C
C      0.06793   0.3518  0.06793     C
C      0.06793   0.3518  0.93207     C
C      0.06793   0.6482  0.06793     C
C      0.06793   0.6482  0.93207     C
C      0.06793  0.93207   0.3518     C
C      0.06793  0.93207   0.6482     C
H       0.0681   0.4062   0.4062     H
H       0.0681   0.4062   0.5938     H
H       0.0681   0.5938   0.4062     H
H       0.0681   0.5938   0.5938     H
C       0.0758   0.3626   0.3626     C
C       0.0758   0.3626   0.6374     C
C       0.0758   0.6374   0.3626     C
C       0.0758   0.6374   0.6374     C
C       0.0892   0.3901   0.3901     C
C       0.0892   0.3901   0.6099     C
C       0.0892   0.6099   0.3901     C
C       0.0892   0.6099   0.6099     C
H       0.0938   0.0938   0.4319     H
H       0.0938   0.0938   0.5681     H
H       0.0938   0.4319   0.0938     H
H       0.0938   0.4319   0.9062     H
H       0.0938   0.5681   0.0938     H
H       0.0938   0.5681   0.9062     H
H       0.0938   0.9062   0.4319     H
H       0.0938   0.9062   0.5681     H
H       0.0945   0.3153   0.3153     H
H       0.0945   0.3153   0.6847     H
H       0.0945   0.6847   0.3153     H
H       0.0945   0.6847   0.6847     H
C      0.10191  0.10191   0.3686     C
C      0.10191  0.10191   0.6314     C
C      0.10191   0.3686  0.10191     C
C      0.10191   0.3686  0.89809     C
C      0.10191   0.6314  0.10191     C
C      0.10191   0.6314  0.89809     C
C      0.10191  0.89809   0.3686     C
C      0.10191  0.89809   0.6314     C
C        0.105   0.3359   0.3359     C
C        0.105   0.3359   0.6641     C
C        0.105   0.6641   0.3359     C
C        0.105   0.6641   0.6641     C
C       0.1099   0.1099   0.4108     C
C       0.1099   0.1099   0.5892     C
C       0.1099   0.4108   0.1099     C
C       0.1099   0.4108   0.8901     C
C       0.1099   0.5892   0.1099     C
C       0.1099   0.5892   0.8901     C
C       0.1099   0.8901   0.4108     C
C       0.1099   0.8901   0.5892     C
O      0.11998  0.45252  0.45252     O
O      0.11998  0.45252  0.54748     O
O      0.11998  0.54748  0.45252     O
O      0.11998  0.54748  0.54748     O
H       0.1201   0.1201   0.3051     H
H       0.1201   0.1201   0.6949     H
H       0.1201   0.3051   0.1201     H
H       0.1201   0.3051   0.8799     H
H       0.1201   0.6949   0.1201     H
H       0.1201   0.6949   0.8799     H
H       0.1201   0.8799   0.3051     H
H       0.1201   0.8799   0.6949     H
Ni     0.12343      0.5      0.5    Ni
C      0.12524  0.12524   0.3352     C
C      0.12524  0.12524   0.6648     C
C      0.12524   0.3352  0.12524     C
C      0.12524   0.3352  0.87476     C
C      0.12524   0.6648  0.12524     C
C      0.12524   0.6648  0.87476     C
C      0.12524  0.87476   0.3352     C
C      0.12524  0.87476   0.6648     C
C       0.1314  0.39809  0.39809     C
C       0.1314  0.39809  0.60191     C
C       0.1314  0.60191  0.39809     C
C       0.1314  0.60191  0.60191     C
C       0.1374   0.1374   0.4242     C
C       0.1374   0.1374   0.5758     C
C       0.1374   0.4242   0.1374     C
C       0.1374   0.4242   0.8626     C
C       0.1374   0.5758   0.1374     C
C       0.1374   0.5758   0.8626     C
C       0.1374   0.8626   0.4242     C
C       0.1374   0.8626   0.5758     C
H        0.141    0.141   0.4548     H
H        0.141    0.141   0.5452     H
H        0.141   0.4548    0.141     H
H        0.141   0.4548    0.859     H
H        0.141   0.5452    0.141     H
H        0.141   0.5452    0.859     H
H        0.141    0.859   0.4548     H
H        0.141    0.859   0.5452     H
C       0.1482  0.43207  0.43207     C
C       0.1482  0.43207  0.56793     C
C       0.1482  0.56793  0.43207     C
C       0.1482  0.56793  0.56793     C
C       0.1499  0.34289  0.34289     C
C       0.1499  0.34289  0.65711     C
C       0.1499  0.65711  0.34289     C
C       0.1499  0.65711  0.65711     C
H       0.1509   0.2647   0.3018     H
H       0.1509   0.2647   0.6982     H
H       0.1509   0.3018   0.2647     H
H       0.1509   0.3018   0.7353     H
H       0.1509   0.6982   0.2647     H
H       0.1509   0.6982   0.7353     H
H       0.1509   0.7353   0.3018     H
H       0.1509   0.7353   0.6982     H
C      0.15711  0.15711   0.3501     C
C      0.15711  0.15711   0.6499     C
C      0.15711   0.3501  0.15711     C
C      0.15711   0.3501  0.84289     C
C      0.15711   0.6499  0.15711     C
C      0.15711   0.6499  0.84289     C
C      0.15711  0.84289   0.3501     C
C      0.15711  0.84289   0.6499     C
C       0.1641   0.1641    0.395     C
C       0.1641   0.1641    0.605     C
C       0.1641    0.395   0.1641     C
C       0.1641    0.395   0.8359     C
C       0.1641    0.605   0.1641     C
C       0.1641    0.605   0.8359     C
C       0.1641   0.8359    0.395     C
C       0.1641   0.8359    0.605     C
C       0.1648  0.37476  0.37476     C
C       0.1648  0.37476  0.62524     C
C       0.1648  0.62524  0.37476     C
C       0.1648  0.62524  0.62524     C
C       0.1686  0.28793  0.28793     C
C       0.1686  0.28793  0.71207     C
C       0.1686  0.71207  0.28793     C
C       0.1686  0.71207  0.71207     C
O      0.17918  0.17918  0.31775     O
O      0.17918  0.17918  0.68225     O
O      0.17918  0.31775  0.17918     O
O      0.17918  0.31775  0.82082     O
O      0.17918  0.68225  0.17918     O
O      0.17918  0.68225  0.82082     O
O      0.17918  0.82082  0.31775     O
O      0.17918  0.82082  0.68225     O
O      0.18225  0.32082  0.32082     O
O      0.18225  0.32082  0.67918     O
O      0.18225  0.67918  0.32082     O
O      0.18225  0.67918  0.67918     O
H       0.1847   0.1847   0.4055     H
H       0.1847   0.1847   0.5945     H
H       0.1847   0.4055   0.1847     H
H       0.1847   0.4055   0.8153     H
H       0.1847   0.5945   0.1847     H
H       0.1847   0.5945   0.8153     H
H       0.1847   0.8153   0.4055     H
H       0.1847   0.8153   0.5945     H
O      0.18911   0.4361   0.4361     O
O      0.18911   0.4361   0.5639     O
O      0.18911   0.5639   0.4361     O
O      0.18911   0.5639   0.5639     O
H       0.1949   0.3799   0.3799     H
H       0.1949   0.3799   0.6201     H
H       0.1949   0.6201   0.3799     H
H       0.1949   0.6201   0.6201     H
H       0.1982   0.2353   0.3491     H
H       0.1982   0.2353   0.6509     H
H       0.1982   0.3491   0.2353     H
H       0.1982   0.3491   0.7647     H
H       0.1982   0.6509   0.2353     H
H       0.1982   0.6509   0.7647     H
H       0.1982   0.7647   0.3491     H
H       0.1982   0.7647   0.6509     H
C      0.21027  0.26889  0.26889     C
C      0.21027  0.26889  0.73111     C
C      0.21027  0.73111  0.26889     C
C      0.21027  0.73111  0.73111     C
C      0.21207  0.21207   0.3314     C
C      0.21207  0.21207   0.6686     C
C      0.21207   0.3314  0.21207     C
C      0.21207   0.3314  0.78793     C
C      0.21207   0.6686  0.21207     C
C      0.21207   0.6686  0.78793     C
C      0.21207  0.78793   0.3314     C
C      0.21207  0.78793   0.6686     C
C      0.23111  0.23111  0.28973     C
C      0.23111  0.23111  0.71027     C
C      0.23111  0.28973  0.23111     C
C      0.23111  0.28973  0.76889     C
C      0.23111  0.71027  0.23111     C
C      0.23111  0.71027  0.76889     C
C      0.23111  0.76889  0.28973     C
C      0.23111  0.76889  0.71027     C
H       0.2353   0.1982   0.3491     H
H       0.2353   0.1982   0.6509     H
H       0.2353   0.3491   0.1982     H
H       0.2353   0.3491   0.8018     H
H       0.2353   0.6509   0.1982     H
H       0.2353   0.6509   0.8018     H
H       0.2353   0.8018   0.3491     H
H       0.2353   0.8018   0.6509     H
H       0.2647   0.1509   0.3018     H
H       0.2647   0.1509   0.6982     H
H       0.2647   0.3018   0.1509     H
H       0.2647   0.3018   0.8491     H
H       0.2647   0.6982   0.1509     H
H       0.2647   0.6982   0.8491     H
H       0.2647   0.8491   0.3018     H
H       0.2647   0.8491   0.6982     H
C      0.26889  0.21027  0.26889     C
C      0.26889  0.21027  0.73111     C
C      0.26889  0.26889  0.21027     C
C      0.26889  0.26889  0.78973     C
C      0.26889  0.73111  0.21027     C
C      0.26889  0.73111  0.78973     C
C      0.26889  0.78973  0.26889     C
C      0.26889  0.78973  0.73111     C
C      0.28793   0.1686  0.28793     C
C      0.28793   0.1686  0.71207     C
C      0.28793  0.28793   0.1686     C
C      0.28793  0.28793   0.8314     C
C      0.28793  0.71207   0.1686     C
C      0.28793  0.71207   0.8314     C
C      0.28793   0.8314  0.28793     C
C      0.28793   0.8314  0.71207     C
C      0.28973  0.23111  0.23111     C
C      0.28973  0.23111  0.76889     C
C      0.28973  0.76889  0.23111     C
C      0.28973  0.76889  0.76889     C
H       0.3018   0.1509   0.2647     H
H       0.3018   0.1509   0.7353     H
H       0.3018   0.2647   0.1509     H
H       0.3018   0.2647   0.8491     H
H       0.3018   0.7353   0.1509     H
H       0.3018   0.7353   0.8491     H
H       0.3018   0.8491   0.2647     H
H       0.3018   0.8491   0.7353     H
H       0.3051   0.1201   0.1201     H
H       0.3051   0.1201   0.8799     H
H       0.3051   0.8799   0.1201     H
H       0.3051   0.8799   0.8799     H
O      0.31089   0.0639   0.0639     O
O      0.31089   0.0639   0.9361     O
O      0.31089   0.9361   0.0639     O
O      0.31089   0.9361   0.9361     O
H       0.3153   0.0945   0.3153     H
H       0.3153   0.0945   0.6847     H
H       0.3153   0.3153   0.0945     H
H       0.3153   0.3153   0.9055     H
H       0.3153   0.6847   0.0945     H
H       0.3153   0.6847   0.9055     H
H       0.3153   0.9055   0.3153     H
H       0.3153   0.9055   0.6847     H
O      0.31775  0.17918  0.17918     O
O      0.31775  0.17918  0.82082     O
O      0.31775  0.82082  0.17918     O
O      0.31775  0.82082  0.82082     O
O      0.32082  0.18225  0.32082     O
O      0.32082  0.18225  0.67918     O
O      0.32082  0.32082  0.18225     O
O      0.32082  0.32082  0.81775     O
O      0.32082  0.67918  0.18225     O
O      0.32082  0.67918  0.81775     O
O      0.32082  0.81775  0.32082     O
O      0.32082  0.81775  0.67918     O
C       0.3314  0.21207  0.21207     C
C       0.3314  0.21207  0.78793     C
C       0.3314  0.78793  0.21207     C
C       0.3314  0.78793  0.78793     C
C       0.3352  0.12524  0.12524     C
C       0.3352  0.12524  0.87476     C
C       0.3352  0.87476  0.12524     C
C       0.3352  0.87476  0.87476     C
C       0.3359    0.105   0.3359     C
C       0.3359    0.105   0.6641     C
C       0.3359   0.3359    0.105     C
C       0.3359   0.3359    0.895     C
C       0.3359   0.6641    0.105     C
C       0.3359   0.6641    0.895     C
C       0.3359    0.895   0.3359     C
C       0.3359    0.895   0.6641     C
C      0.34289   0.1499  0.34289     C
C      0.34289   0.1499  0.65711     C
C      0.34289  0.34289   0.1499     C
C      0.34289  0.34289   0.8501     C
C      0.34289  0.65711   0.1499     C
C      0.34289  0.65711   0.8501     C
C      0.34289   0.8501  0.34289     C
C      0.34289   0.8501  0.65711     C
H       0.3491   0.1982   0.2353     H
H       0.3491   0.1982   0.7647     H
H       0.3491   0.2353   0.1982     H
H       0.3491   0.2353   0.8018     H
H       0.3491   0.7647   0.1982     H
H       0.3491   0.7647   0.8018     H
H       0.3491   0.8018   0.2353     H
H       0.3491   0.8018   0.7647     H
C       0.3501  0.15711  0.15711     C
C       0.3501  0.15711  0.84289     C
C       0.3501  0.84289  0.15711     C
C       0.3501  0.84289  0.84289     C
C       0.3518  0.06793  0.06793     C
C       0.3518  0.06793  0.93207     C
C       0.3518  0.93207  0.06793     C
C       0.3518  0.93207  0.93207     C
H        0.359   0.0452    0.359     H
H        0.359   0.0452    0.641     H
H        0.359    0.359   0.0452     H
H        0.359    0.359   0.9548     H
H        0.359    0.641   0.0452     H
H        0.359    0.641   0.9548     H
H        0.359   0.9548    0.359     H
H        0.359   0.9548    0.641     H
C       0.3626   0.0758   0.3626     C
C       0.3626   0.0758   0.6374     C
C       0.3626   0.3626   0.0758     C
C       0.3626   0.3626   0.9242     C
C       0.3626   0.6374   0.0758     C
C       0.3626   0.6374   0.9242     C
C       0.3626   0.9242   0.3626     C
C       0.3626   0.9242   0.6374     C
C       0.3686  0.10191  0.10191     C
C       0.3686  0.10191  0.89809     C
C       0.3686  0.89809  0.10191     C
C       0.3686  0.89809  0.89809     C
C      0.37476   0.1648  0.37476     C
C      0.37476   0.1648  0.62524     C
C      0.37476  0.37476   0.1648     C
C      0.37476  0.37476   0.8352     C
C      0.37476  0.62524   0.1648     C
C      0.37476  0.62524   0.8352     C
C      0.37476   0.8352  0.37476     C
C      0.37476   0.8352  0.62524     C
Ni     0.37657      0.0      0.0    Ni
H       0.3799   0.1949   0.3799     H
H       0.3799   0.1949   0.6201     H
H       0.3799   0.3799   0.1949     H
H       0.3799   0.3799   0.8051     H
H       0.3799   0.6201   0.1949     H
H       0.3799   0.6201   0.8051     H
H       0.3799   0.8051   0.3799     H
H       0.3799   0.8051   0.6201     H
O      0.38002  0.04748  0.04748     O
O      0.38002  0.04748  0.95252     O
O      0.38002  0.95252  0.04748     O
O      0.38002  0.95252  0.95252     O
C       0.3901   0.0892   0.3901     C
C       0.3901   0.0892   0.6099     C
C       0.3901   0.3901   0.0892     C
C       0.3901   0.3901   0.9108     C
C       0.3901   0.6099   0.0892     C
C       0.3901   0.6099   0.9108     C
C       0.3901   0.9108   0.3901     C
C       0.3901   0.9108   0.6099     C
C        0.395   0.1641   0.1641     C
C        0.395   0.1641   0.8359     C
C        0.395   0.8359   0.1641     C
C        0.395   0.8359   0.8359     C
C      0.39809   0.1314  0.39809     C
C      0.39809   0.1314  0.60191     C
C      0.39809  0.39809   0.1314     C
C      0.39809  0.39809   0.8686     C
C      0.39809  0.60191   0.1314     C
C      0.39809  0.60191   0.8686     C
C      0.39809   0.8686  0.39809     C
C      0.39809   0.8686  0.60191     C
H       0.4055   0.1847   0.1847     H
H       0.4055   0.1847   0.8153     H
H       0.4055   0.8153   0.1847     H
H       0.4055   0.8153   0.8153     H
H       0.4062   0.0681   0.4062     H
H       0.4062   0.0681   0.5938     H
H       0.4062   0.4062   0.0681     H
H       0.4062   0.4062   0.9319     H
H       0.4062   0.5938   0.0681     H
H       0.4062   0.5938   0.9319     H
H       0.4062   0.9319   0.4062     H
H       0.4062   0.9319   0.5938     H
C       0.4108   0.1099   0.1099     C
C       0.4108   0.1099   0.8901     C
C       0.4108   0.8901   0.1099     C
C       0.4108   0.8901   0.8901     C
C       0.4242   0.1374   0.1374     C
C       0.4242   0.1374   0.8626     C
C       0.4242   0.8626   0.1374     C
C       0.4242   0.8626   0.8626     C
H       0.4319   0.0938   0.0938     H
H       0.4319   0.0938   0.9062     H
H       0.4319   0.9062   0.0938     H
H       0.4319   0.9062   0.9062     H
C      0.43207   0.1482  0.43207     C
C      0.43207   0.1482  0.56793     C
C      0.43207  0.43207   0.1482     C
C      0.43207  0.43207   0.8518     C
C      0.43207  0.56793   0.1482     C
C      0.43207  0.56793   0.8518     C
C      0.43207   0.8518  0.43207     C
C      0.43207   0.8518  0.56793     C
O       0.4361  0.18911   0.4361     O
O       0.4361  0.18911   0.5639     O
O       0.4361   0.4361  0.18911     O
O       0.4361   0.4361  0.81089     O
O       0.4361   0.5639  0.18911     O
O       0.4361   0.5639  0.81089     O
O       0.4361  0.81089   0.4361     O
O       0.4361  0.81089   0.5639     O
O      0.45252  0.11998  0.45252     O
O      0.45252  0.11998  0.54748     O
O      0.45252  0.45252  0.11998     O
O      0.45252  0.45252  0.88002     O
O      0.45252  0.54748  0.11998     O
O      0.45252  0.54748  0.88002     O
O      0.45252  0.88002  0.45252     O
O      0.45252  0.88002  0.54748     O
H       0.4548    0.141    0.141     H
H       0.4548    0.141    0.859     H
H       0.4548    0.859    0.141     H
H       0.4548    0.859    0.859     H
Ni         0.5  0.12343      0.5    Ni
Ni         0.5      0.5  0.12343    Ni
Ni         0.5      0.5  0.87657    Ni
Ni         0.5  0.87657      0.5    Ni
H       0.5452    0.141    0.141     H
H       0.5452    0.141    0.859     H
H       0.5452    0.859    0.141     H
H       0.5452    0.859    0.859     H
O      0.54748  0.11998  0.45252     O
O      0.54748  0.11998  0.54748     O
O      0.54748  0.45252  0.11998     O
O      0.54748  0.45252  0.88002     O
O      0.54748  0.54748  0.11998     O
O      0.54748  0.54748  0.88002     O
O      0.54748  0.88002  0.45252     O
O      0.54748  0.88002  0.54748     O
O       0.5639  0.18911   0.4361     O
O       0.5639  0.18911   0.5639     O
O       0.5639   0.4361  0.18911     O
O       0.5639   0.4361  0.81089     O
O       0.5639   0.5639  0.18911     O
O       0.5639   0.5639  0.81089     O
O       0.5639  0.81089   0.4361     O
O       0.5639  0.81089   0.5639     O
C      0.56793   0.1482  0.43207     C
C      0.56793   0.1482  0.56793     C
C      0.56793  0.43207   0.1482     C
C      0.56793  0.43207   0.8518     C
C      0.56793  0.56793   0.1482     C
C      0.56793  0.56793   0.8518     C
C      0.56793   0.8518  0.43207     C
C      0.56793   0.8518  0.56793     C
H       0.5681   0.0938   0.0938     H
H       0.5681   0.0938   0.9062     H
H       0.5681   0.9062   0.0938     H
H       0.5681   0.9062   0.9062     H
C       0.5758   0.1374   0.1374     C
C       0.5758   0.1374   0.8626     C
C       0.5758   0.8626   0.1374     C
C       0.5758   0.8626   0.8626     C
C       0.5892   0.1099   0.1099     C
C       0.5892   0.1099   0.8901     C
C       0.5892   0.8901   0.1099     C
C       0.5892   0.8901   0.8901     C
H       0.5938   0.0681   0.4062     H
H       0.5938   0.0681   0.5938     H
H       0.5938   0.4062   0.0681     H
H       0.5938   0.4062   0.9319     H
H       0.5938   0.5938   0.0681     H
H       0.5938   0.5938   0.9319     H
H       0.5938   0.9319   0.4062     H
H       0.5938   0.9319   0.5938     H
H       0.5945   0.1847   0.1847     H
H       0.5945   0.1847   0.8153     H
H       0.5945   0.8153   0.1847     H
H       0.5945   0.8153   0.8153     H
C      0.60191   0.1314  0.39809     C
C      0.60191   0.1314  0.60191     C
C      0.60191  0.39809   0.1314     C
C      0.60191  0.39809   0.8686     C
C      0.60191  0.60191   0.1314     C
C      0.60191  0.60191   0.8686     C
C      0.60191   0.8686  0.39809     C
C      0.60191   0.8686  0.60191     C
C        0.605   0.1641   0.1641     C
C        0.605   0.1641   0.8359     C
C        0.605   0.8359   0.1641     C
C        0.605   0.8359   0.8359     C
C       0.6099   0.0892   0.3901     C
C       0.6099   0.0892   0.6099     C
C       0.6099   0.3901   0.0892     C
C       0.6099   0.3901   0.9108     C
C       0.6099   0.6099   0.0892     C
C       0.6099   0.6099   0.9108     C
C       0.6099   0.9108   0.3901     C
C       0.6099   0.9108   0.6099     C
O      0.61998  0.04748  0.04748     O
O      0.61998  0.04748  0.95252     O
O      0.61998  0.95252  0.04748     O
O      0.61998  0.95252  0.95252     O
H       0.6201   0.1949   0.3799     H
H       0.6201   0.1949   0.6201     H
H       0.6201   0.3799   0.1949     H
H       0.6201   0.3799   0.8051     H
H       0.6201   0.6201   0.1949     H
H       0.6201   0.6201   0.8051     H
H       0.6201   0.8051   0.3799     H
H       0.6201   0.8051   0.6201     H
Ni     0.62343      0.0      0.0    Ni
C      0.62524   0.1648  0.37476     C
C      0.62524   0.1648  0.62524     C
C      0.62524  0.37476   0.1648     C
C      0.62524  0.37476   0.8352     C
C      0.62524  0.62524   0.1648     C
C      0.62524  0.62524   0.8352     C
C      0.62524   0.8352  0.37476     C
C      0.62524   0.8352  0.62524     C
C       0.6314  0.10191  0.10191     C
C       0.6314  0.10191  0.89809     C
C       0.6314  0.89809  0.10191     C
C       0.6314  0.89809  0.89809     C
C       0.6374   0.0758   0.3626     C
C       0.6374   0.0758   0.6374     C
C       0.6374   0.3626   0.0758     C
C       0.6374   0.3626   0.9242     C
C       0.6374   0.6374   0.0758     C
C       0.6374   0.6374   0.9242     C
C       0.6374   0.9242   0.3626     C
C       0.6374   0.9242   0.6374     C
H        0.641   0.0452    0.359     H
H        0.641   0.0452    0.641     H
H        0.641    0.359   0.0452     H
H        0.641    0.359   0.9548     H
H        0.641    0.641   0.0452     H
H        0.641    0.641   0.9548     H
H        0.641   0.9548    0.359     H
H        0.641   0.9548    0.641     H
C       0.6482  0.06793  0.06793     C
C       0.6482  0.06793  0.93207     C
C       0.6482  0.93207  0.06793     C
C       0.6482  0.93207  0.93207     C
C       0.6499  0.15711  0.15711     C
C       0.6499  0.15711  0.84289     C
C       0.6499  0.84289  0.15711     C
C       0.6499  0.84289  0.84289     C
H       0.6509   0.1982   0.2353     H
H       0.6509   0.1982   0.7647     H
H       0.6509   0.2353   0.1982     H
H       0.6509   0.2353   0.8018     H
H       0.6509   0.7647   0.1982     H
H       0.6509   0.7647   0.8018     H
H       0.6509   0.8018   0.2353     H
H       0.6509   0.8018   0.7647     H
C      0.65711   0.1499  0.34289     C
C      0.65711   0.1499  0.65711     C
C      0.65711  0.34289   0.1499     C
C      0.65711  0.34289   0.8501     C
C      0.65711  0.65711   0.1499     C
C      0.65711  0.65711   0.8501     C
C      0.65711   0.8501  0.34289     C
C      0.65711   0.8501  0.65711     C
C       0.6641    0.105   0.3359     C
C       0.6641    0.105   0.6641     C
C       0.6641   0.3359    0.105     C
C       0.6641   0.3359    0.895     C
C       0.6641   0.6641    0.105     C
C       0.6641   0.6641    0.895     C
C       0.6641    0.895   0.3359     C
C       0.6641    0.895   0.6641     C
C       0.6648  0.12524  0.12524     C
C       0.6648  0.12524  0.87476     C
C       0.6648  0.87476  0.12524     C
C       0.6648  0.87476  0.87476     C
C       0.6686  0.21207  0.21207     C
C       0.6686  0.21207  0.78793     C
C       0.6686  0.78793  0.21207     C
C       0.6686  0.78793  0.78793     C
O      0.67918  0.18225  0.32082     O
O      0.67918  0.18225  0.67918     O
O      0.67918  0.32082  0.18225     O
O      0.67918  0.32082  0.81775     O
O      0.67918  0.67918  0.18225     O
O      0.67918  0.67918  0.81775     O
O      0.67918  0.81775  0.32082     O
O      0.67918  0.81775  0.67918     O
O      0.68225  0.17918  0.17918     O
O      0.68225  0.17918  0.82082     O
O      0.68225  0.82082  0.17918     O
O      0.68225  0.82082  0.82082     O
H       0.6847   0.0945   0.3153     H
H       0.6847   0.0945   0.6847     H
H       0.6847   0.3153   0.0945     H
H       0.6847   0.3153   0.9055     H
H       0.6847   0.6847   0.0945     H
H       0.6847   0.6847   0.9055     H
H       0.6847   0.9055   0.3153     H
H       0.6847   0.9055   0.6847     H
O      0.68911   0.0639   0.0639     O
O      0.68911   0.0639   0.9361     O
O      0.68911   0.9361   0.0639     O
O      0.68911   0.9361   0.9361     O
H       0.6949   0.1201   0.1201     H
H       0.6949   0.1201   0.8799     H
H       0.6949   0.8799   0.1201     H
H       0.6949   0.8799   0.8799     H
H       0.6982   0.1509   0.2647     H
H       0.6982   0.1509   0.7353     H
H       0.6982   0.2647   0.1509     H
H       0.6982   0.2647   0.8491     H
H       0.6982   0.7353   0.1509     H
H       0.6982   0.7353   0.8491     H
H       0.6982   0.8491   0.2647     H
H       0.6982   0.8491   0.7353     H
C      0.71027  0.23111  0.23111     C
C      0.71027  0.23111  0.76889     C
C      0.71027  0.76889  0.23111     C
C      0.71027  0.76889  0.76889     C
C      0.71207   0.1686  0.28793     C
C      0.71207   0.1686  0.71207     C
C      0.71207  0.28793   0.1686     C
C      0.71207  0.28793   0.8314     C
C      0.71207  0.71207   0.1686     C
C      0.71207  0.71207   0.8314     C
C      0.71207   0.8314  0.28793     C
C      0.71207   0.8314  0.71207     C
C      0.73111  0.21027  0.26889     C
C      0.73111  0.21027  0.73111     C
C      0.73111  0.26889  0.21027     C
C      0.73111  0.26889  0.78973     C
C      0.73111  0.73111  0.21027     C
C      0.73111  0.73111  0.78973     C
C      0.73111  0.78973  0.26889     C
C      0.73111  0.78973  0.73111     C
H       0.7353   0.1509   0.3018     H
H       0.7353   0.1509   0.6982     H
H       0.7353   0.3018   0.1509     H
H       0.7353   0.3018   0.8491     H
H       0.7353   0.6982   0.1509     H
H       0.7353   0.6982   0.8491     H
H       0.7353   0.8491   0.3018     H
H       0.7353   0.8491   0.6982     H
H       0.7647   0.1982   0.3491     H
H       0.7647   0.1982   0.6509     H
H       0.7647   0.3491   0.1982     H
H       0.7647   0.3491   0.8018     H
H       0.7647   0.6509   0.1982     H
H       0.7647   0.6509   0.8018     H
H       0.7647   0.8018   0.3491     H
H       0.7647   0.8018   0.6509     H
C      0.76889  0.23111  0.28973     C
C      0.76889  0.23111  0.71027     C
C      0.76889  0.28973  0.23111     C
C      0.76889  0.28973  0.76889     C
C      0.76889  0.71027  0.23111     C
C      0.76889  0.71027  0.76889     C
C      0.76889  0.76889  0.28973     C
C      0.76889  0.76889  0.71027     C
C      0.78793  0.21207   0.3314     C
C      0.78793  0.21207   0.6686     C
C      0.78793   0.3314  0.21207     C
C      0.78793   0.3314  0.78793     C
C      0.78793   0.6686  0.21207     C
C      0.78793   0.6686  0.78793     C
C      0.78793  0.78793   0.3314     C
C      0.78793  0.78793   0.6686     C
C      0.78973  0.26889  0.26889     C
C      0.78973  0.26889  0.73111     C
C      0.78973  0.73111  0.26889     C
C      0.78973  0.73111  0.73111     C
H       0.8018   0.2353   0.3491     H
H       0.8018   0.2353   0.6509     H
H       0.8018   0.3491   0.2353     H
H       0.8018   0.3491   0.7647     H
H       0.8018   0.6509   0.2353     H
H       0.8018   0.6509   0.7647     H
H       0.8018   0.7647   0.3491     H
H       0.8018   0.7647   0.6509     H
H       0.8051   0.3799   0.3799     H
H       0.8051   0.3799   0.6201     H
H       0.8051   0.6201   0.3799     H
H       0.8051   0.6201   0.6201     H
O      0.81089   0.4361   0.4361     O
O      0.81089   0.4361   0.5639     O
O      0.81089   0.5639   0.4361     O
O      0.81089   0.5639   0.5639     O
H       0.8153   0.1847   0.4055     H
H       0.8153   0.1847   0.5945     H
H       0.8153   0.4055   0.1847     H
H       0.8153   0.4055   0.8153     H
H       0.8153   0.5945   0.1847     H
H       0.8153   0.5945   0.8153     H
H       0.8153   0.8153   0.4055     H
H       0.8153   0.8153   0.5945     H
O      0.81775  0.32082  0.32082     O
O      0.81775  0.32082  0.67918     O
O      0.81775  0.67918  0.32082     O
O      0.81775  0.67918  0.67918     O
O      0.82082  0.17918  0.31775     O
O      0.82082  0.17918  0.68225     O
O      0.82082  0.31775  0.17918     O
O      0.82082  0.31775  0.82082     O
O      0.82082  0.68225  0.17918     O
O      0.82082  0.68225  0.82082     O
O      0.82082  0.82082  0.31775     O
O      0.82082  0.82082  0.68225     O
C       0.8314  0.28793  0.28793     C
C       0.8314  0.28793  0.71207     C
C       0.8314  0.71207  0.28793     C
C       0.8314  0.71207  0.71207     C
C       0.8352  0.37476  0.37476     C
C       0.8352  0.37476  0.62524     C
C       0.8352  0.62524  0.37476     C
C       0.8352  0.62524  0.62524     C
C       0.8359   0.1641    0.395     C
C       0.8359   0.1641    0.605     C
C       0.8359    0.395   0.1641     C
C       0.8359    0.395   0.8359     C
C       0.8359    0.605   0.1641     C
C       0.8359    0.605   0.8359     C
C       0.8359   0.8359    0.395     C
C       0.8359   0.8359    0.605     C
C      0.84289  0.15711   0.3501     C
C      0.84289  0.15711   0.6499     C
C      0.84289   0.3501  0.15711     C
C      0.84289   0.3501  0.84289     C
C      0.84289   0.6499  0.15711     C
C      0.84289   0.6499  0.84289     C
C      0.84289  0.84289   0.3501     C
C      0.84289  0.84289   0.6499     C
H       0.8491   0.2647   0.3018     H
H       0.8491   0.2647   0.6982     H
H       0.8491   0.3018   0.2647     H
H       0.8491   0.3018   0.7353     H
H       0.8491   0.6982   0.2647     H
H       0.8491   0.6982   0.7353     H
H       0.8491   0.7353   0.3018     H
H       0.8491   0.7353   0.6982     H
C       0.8501  0.34289  0.34289     C
C       0.8501  0.34289  0.65711     C
C       0.8501  0.65711  0.34289     C
C       0.8501  0.65711  0.65711     C
C       0.8518  0.43207  0.43207     C
C       0.8518  0.43207  0.56793     C
C       0.8518  0.56793  0.43207     C
C       0.8518  0.56793  0.56793     C
H        0.859    0.141   0.4548     H
H        0.859    0.141   0.5452     H
H        0.859   0.4548    0.141     H
H        0.859   0.4548    0.859     H
H        0.859   0.5452    0.141     H
H        0.859   0.5452    0.859     H
H        0.859    0.859   0.4548     H
H        0.859    0.859   0.5452     H
C       0.8626   0.1374   0.4242     C
C       0.8626   0.1374   0.5758     C
C       0.8626   0.4242   0.1374     C
C       0.8626   0.4242   0.8626     C
C       0.8626   0.5758   0.1374     C
C       0.8626   0.5758   0.8626     C
C       0.8626   0.8626   0.4242     C
C       0.8626   0.8626   0.5758     C
C       0.8686  0.39809  0.39809     C
C       0.8686  0.39809  0.60191     C
C       0.8686  0.60191  0.39809     C
C       0.8686  0.60191  0.60191     C
C      0.87476  0.12524   0.3352     C
C      0.87476  0.12524   0.6648     C
C      0.87476   0.3352  0.12524     C
C      0.87476   0.3352  0.87476     C
C      0.87476   0.6648  0.12524     C
C      0.87476   0.6648  0.87476     C
C      0.87476  0.87476   0.3352     C
C      0.87476  0.87476   0.6648     C
Ni     0.87657      0.5      0.5    Ni
H       0.8799   0.1201   0.3051     H
H       0.8799   0.1201   0.6949     H
H       0.8799   0.3051   0.1201     H
H       0.8799   0.3051   0.8799     H
H       0.8799   0.6949   0.1201     H
H       0.8799   0.6949   0.8799     H
H       0.8799   0.8799   0.3051     H
H       0.8799   0.8799   0.6949     H
O      0.88002  0.45252  0.45252     O
O      0.88002  0.45252  0.54748     O
O      0.88002  0.54748  0.45252     O
O      0.88002  0.54748  0.54748     O
C       0.8901   0.1099   0.4108     C
C       0.8901   0.1099   0.5892     C
C       0.8901   0.4108   0.1099     C
C       0.8901   0.4108   0.8901     C
C       0.8901   0.5892   0.1099     C
C       0.8901   0.5892   0.8901     C
C       0.8901   0.8901   0.4108     C
C       0.8901   0.8901   0.5892     C
C        0.895   0.3359   0.3359     C
C        0.895   0.3359   0.6641     C
C        0.895   0.6641   0.3359     C
C        0.895   0.6641   0.6641     C
C      0.89809  0.10191   0.3686     C
C      0.89809  0.10191   0.6314     C
C      0.89809   0.3686  0.10191     C
C      0.89809   0.3686  0.89809     C
C      0.89809   0.6314  0.10191     C
C      0.89809   0.6314  0.89809     C
C      0.89809  0.89809   0.3686     C
C      0.89809  0.89809   0.6314     C
H       0.9055   0.3153   0.3153     H
H       0.9055   0.3153   0.6847     H
H       0.9055   0.6847   0.3153     H
H       0.9055   0.6847   0.6847     H
H       0.9062   0.0938   0.4319     H
H       0.9062   0.0938   0.5681     H
H       0.9062   0.4319   0.0938     H
H       0.9062   0.4319   0.9062     H
H       0.9062   0.5681   0.0938     H
H       0.9062   0.5681   0.9062     H
H       0.9062   0.9062   0.4319     H
H       0.9062   0.9062   0.5681     H
C       0.9108   0.3901   0.3901     C
C       0.9108   0.3901   0.6099     C
C       0.9108   0.6099   0.3901     C
C       0.9108   0.6099   0.6099     C
C       0.9242   0.3626   0.3626     C
C       0.9242   0.3626   0.6374     C
C       0.9242   0.6374   0.3626     C
C       0.9242   0.6374   0.6374     C
H       0.9319   0.4062   0.4062     H
H       0.9319   0.4062   0.5938     H
H       0.9319   0.5938   0.4062     H
H       0.9319   0.5938   0.5938     H
C      0.93207  0.06793   0.3518     C
C      0.93207  0.06793   0.6482     C
C      0.93207   0.3518  0.06793     C
C      0.93207   0.3518  0.93207     C
C      0.93207   0.6482  0.06793     C
C      0.93207   0.6482  0.93207     C
C      0.93207  0.93207   0.3518     C
C      0.93207  0.93207   0.6482     C
O       0.9361   0.0639  0.31089     O
O       0.9361   0.0639  0.68911     O
O       0.9361  0.31089   0.0639     O
O       0.9361  0.31089   0.9361     O
O       0.9361  0.68911   0.0639     O
O       0.9361  0.68911   0.9361     O
O       0.9361   0.9361  0.31089     O
O       0.9361   0.9361  0.68911     O
O      0.95252  0.04748  0.38002     O
O      0.95252  0.04748  0.61998     O
O      0.95252  0.38002  0.04748     O
O      0.95252  0.38002  0.95252     O
O      0.95252  0.61998  0.04748     O
O      0.95252  0.61998  0.95252     O
O      0.95252  0.95252  0.38002     O
O      0.95252  0.95252  0.61998     O
H       0.9548    0.359    0.359     H
H       0.9548    0.359    0.641     H
H       0.9548    0.641    0.359     H
H       0.9548    0.641    0.641     H
