data_I
_chemical_name_common  '/home/zhangsd/repos/MofS-CGCNN/ML/data/SSD/clean_cifs/AFENEE_clean'
_cell_length_a 11.54000
_cell_length_b 11.54000
_cell_length_c 14.94300
_cell_angle_alpha 90.00000
_cell_angle_beta  90.00000
_cell_angle_gamma 90.00000
_space_group_name_H-M_alt      'P 1'


loop_
_space_group_symop_operation_xyz
  'x, y, z' 

loop_
_atom_site_label
_atom_site_fract_x
_atom_site_fract_y
_atom_site_fract_z
_atom_site_type_symbol
Ag         0.0      0.0    0.146    Ag
Ag         0.0      0.5    0.896    Ag
H       0.0333   0.2469   0.8076     H
C       0.0376   0.8176   0.3085     C
H       0.0572   0.0949   0.4607     H
C       0.0653   0.2274   0.8642     C
H       0.0684    0.759   0.4354     H
N       0.0705   0.8444     0.23     N
N       0.0728   0.3104   0.9262     N
C       0.0844   0.1482   0.3328     C
H       0.0956   0.0577   0.8319     H
C       0.1018   0.1139   0.8781     C
C       0.1059   0.7519   0.3768     C
H       0.1097   0.6701   0.3597     H
C       0.1136   0.1017   0.4147     C
C       0.1237   0.2826   0.0047     C
H       0.1326   0.7561   0.0728     H
H       0.1347   0.3415   0.0484     H
C       0.1478   0.0845   0.9617     C
H        0.155   0.1962   0.2138     H
N       0.1554   0.9293   0.0634     N
H        0.159   0.6325    0.745     H
C       0.1603   0.1709   0.0236     C
C       0.1714   0.1611     0.27     C
H       0.1736    0.379   0.4369     H
C       0.1832   0.9623   0.9852     C
H       0.1846   0.7837   0.3801     H
C       0.1856   0.8105   0.1978     C
C       0.1874   0.8144   0.0967     C
N       0.1896   0.5727   0.8672     N
H       0.1943   0.1542   0.0801     H
H       0.2041   0.7312   0.2187     H
H       0.2075   0.8192   0.9069     H
C       0.2176   0.6229    0.789     C
C       0.2278   0.0644   0.4289     C
H        0.234   0.2944   0.5751     H
H       0.2448   0.8641   0.2221     H
H       0.2471   0.0317   0.4853     H
C       0.2471   0.8934   0.9163     C
H       0.2492   0.9367   0.8599     H
H       0.2508   0.4367   0.3599     H
C       0.2529   0.3934   0.4163     C
H       0.2529   0.5317   0.9853     H
H       0.2552   0.3641   0.7221     H
H        0.266   0.7944   0.0751     H
C       0.2722   0.5644   0.9289     C
C       0.2824   0.1229    0.289     C
H       0.2925   0.3192   0.4069     H
H       0.2959   0.2312   0.7187     H
H       0.3057   0.6542   0.5801     H
N       0.3104   0.0727   0.3672     N
C       0.3126   0.3144   0.5967     C
C       0.3144   0.3105   0.6978     C
H       0.3154   0.2837   0.8801     H
C       0.3168   0.4623   0.4852     C
H       0.3264    0.879   0.9369     H
C       0.3286   0.6611     0.77     C
C       0.3397   0.6709   0.5236     C
H        0.341   0.1325    0.245     H
N       0.3446   0.4293   0.5634     N
H        0.345   0.6962   0.7138     H
C       0.3522   0.5845   0.4617     C
H       0.3653   0.8415   0.5484     H
H       0.3674   0.2561   0.5728     H
C       0.3763   0.7826   0.5047     C
C       0.3864   0.6017   0.9147     C
H       0.3903   0.1701   0.8597     H
C       0.3941   0.2519   0.8768     C
C       0.3982   0.6139   0.3781     C
H       0.4044   0.5577   0.3319     H
C       0.4156   0.6482   0.8328     C
N       0.4272   0.8104   0.4262     N
N       0.4295   0.3444     0.73     N
H       0.4316    0.259   0.9354     H
C       0.4347   0.7274   0.3642     C
H       0.4428   0.5949   0.9607     H
C       0.4624   0.3176   0.8085     C
H       0.4667   0.7469   0.3076     H
Ag         0.5      0.0    0.396    Ag
Ag         0.5      0.5    0.646    Ag
H       0.5333   0.2531   0.3076     H
C       0.5376   0.6824   0.8085     C
H       0.5572   0.4051   0.9607     H
C       0.5653   0.2726   0.3642     C
H       0.5684    0.741   0.9354     H
N       0.5705   0.6556     0.73     N
N       0.5728   0.1896   0.4262     N
C       0.5844   0.3518   0.8328     C
H       0.5956   0.4423   0.3319     H
C       0.6018   0.3861   0.3781     C
C       0.6059   0.7481   0.8768     C
H       0.6097   0.8299   0.8597     H
C       0.6136   0.3983   0.9147     C
C       0.6237   0.2174   0.5047     C
H       0.6326   0.7439   0.5728     H
H       0.6347   0.1585   0.5484     H
C       0.6478   0.4155   0.4617     C
H        0.655   0.3038   0.7138     H
N       0.6554   0.5707   0.5634     N
H        0.659   0.8675    0.245     H
C       0.6603   0.3291   0.5236     C
C       0.6714   0.3389     0.77     C
H       0.6736    0.121   0.9369     H
C       0.6832   0.5377   0.4852     C
H       0.6846   0.7163   0.8801     H
C       0.6856   0.6895   0.6978     C
C       0.6874   0.6856   0.5967     C
N       0.6896   0.9273   0.3672     N
H       0.6943   0.3458   0.5801     H
H       0.7041   0.7688   0.7187     H
H       0.7075   0.6808   0.4069     H
C       0.7176   0.8771    0.289     C
C       0.7278   0.4356   0.9289     C
H        0.734   0.2056   0.0751     H
H       0.7448   0.6359   0.7221     H
H       0.7471   0.4683   0.9853     H
C       0.7471   0.6066   0.4163     C
H       0.7492   0.5633   0.3599     H
H       0.7508   0.0633   0.8599     H
C       0.7529   0.1066   0.9163     C
H       0.7529   0.9683   0.4853     H
H       0.7552   0.1359   0.2221     H
H        0.766   0.7056   0.5751     H
C       0.7722   0.9356   0.4289     C
C       0.7824   0.3771    0.789     C
H       0.7925   0.1808   0.9069     H
H       0.7959   0.2688   0.2187     H
H       0.8057   0.8458   0.0801     H
N       0.8104   0.4273   0.8672     N
C       0.8126   0.1856   0.0967     C
C       0.8144   0.1895   0.1978     C
H       0.8154   0.2163   0.3801     H
C       0.8168   0.0377   0.9852     C
H       0.8264    0.621   0.4369     H
C       0.8286   0.8389     0.27     C
C       0.8397   0.8291   0.0236     C
H        0.841   0.3675    0.745     H
N       0.8446   0.0707   0.0634     N
H        0.845   0.8038   0.2138     H
C       0.8522   0.9155   0.9617     C
H       0.8653   0.6585   0.0484     H
H       0.8674   0.2439   0.0728     H
C       0.8763   0.7174   0.0047     C
C       0.8864   0.8983   0.4147     C
H       0.8903   0.3299   0.3597     H
C       0.8941   0.2481   0.3768     C
C       0.8982   0.8861   0.8781     C
H       0.9044   0.9423   0.8319     H
C       0.9156   0.8518   0.3328     C
N       0.9272   0.6896   0.9262     N
N       0.9295   0.1556     0.23     N
H       0.9316    0.241   0.4354     H
C       0.9347   0.7726   0.8642     C
H       0.9428   0.9051   0.4607     H
C       0.9624   0.1824   0.3085     C
H       0.9667   0.7531   0.8076     H
