data_I
_chemical_name_common  '/home/zhangsd/repos/MofS-CGCNN/ML/data/SSD/clean_cifs/AFOYIE_clean'
_cell_length_a  7.14420
_cell_length_b 19.43870
_cell_length_c 17.31140
_cell_angle_alpha 90.00000
_cell_angle_beta  90.00000
_cell_angle_gamma 90.00000
_space_group_name_H-M_alt      'P 1'


loop_
_space_group_symop_operation_xyz
  'x, y, z' 

loop_
_atom_site_label
_atom_site_fract_x
_atom_site_fract_y
_atom_site_fract_z
_atom_site_type_symbol
C       0.0098   0.0476  0.94273     C
C       0.0098   0.4524  0.94273     C
N       0.0187  0.09919  0.88271     N
N       0.0187  0.40081  0.88271     N
N       0.0666  0.67796  0.19876     N
N       0.0666  0.82204  0.19876     N
C       0.1193   0.5558   0.9993     C
C       0.1193   0.9442   0.9993     C
N       0.1254   0.1776  0.80542     N
N       0.1254   0.3224  0.80542     N
C       0.1296  0.63046  0.15152     C
C       0.1296  0.86954  0.15152     C
C       0.1308   0.5074   0.9414     C
C       0.1308   0.9926   0.9414     C
C       0.1749  0.12997  0.85439     C
C       0.1749  0.37003  0.85439     C
H       0.1985   0.5938   0.9992     H
H       0.1985   0.9062   0.9992     H
H       0.2026   0.6189   0.3677     H
H       0.2026   0.8811   0.3677     H
Cu      0.2154     0.75   0.2544    Cu
H       0.2187   0.5119   0.9021     H
H       0.2187   0.9881   0.9021     H
H       0.2451     0.12   0.6429     H
H       0.2451     0.38   0.6429     H
H       0.2549     0.62   0.1429     H
H       0.2549     0.88   0.1429     H
H       0.2813   0.0119   0.4021     H
H       0.2813   0.4881   0.4021     H
Cu      0.2846     0.25   0.7544    Cu
H       0.2974   0.1189   0.8677     H
H       0.2974   0.3811   0.8677     H
H       0.3015   0.0938   0.4992     H
H       0.3015   0.4062   0.4992     H
C       0.3251  0.62997  0.35439     C
C       0.3251  0.87003  0.35439     C
C       0.3692   0.0074   0.4414     C
C       0.3692   0.4926   0.4414     C
C       0.3704  0.13046  0.65152     C
C       0.3704  0.36954  0.65152     C
N       0.3746   0.6776  0.30542     N
N       0.3746   0.8224  0.30542     N
C       0.3807   0.0558   0.4993     C
C       0.3807   0.4442   0.4993     C
N       0.4334  0.17796  0.69876     N
N       0.4334  0.32204  0.69876     N
N       0.4813  0.59919  0.38271     N
N       0.4813  0.90081  0.38271     N
C       0.4902   0.5476  0.44273     C
C       0.4902   0.9524  0.44273     C
C       0.5098   0.0476  0.55727     C
C       0.5098   0.4524  0.55727     C
N       0.5187  0.09919  0.61729     N
N       0.5187  0.40081  0.61729     N
N       0.5666  0.67796  0.30124     N
N       0.5666  0.82204  0.30124     N
C       0.6193   0.5558   0.5007     C
C       0.6193   0.9442   0.5007     C
N       0.6254   0.1776  0.69458     N
N       0.6254   0.3224  0.69458     N
C       0.6296  0.63046  0.34848     C
C       0.6296  0.86954  0.34848     C
C       0.6308   0.5074   0.5586     C
C       0.6308   0.9926   0.5586     C
C       0.6749  0.12997  0.64561     C
C       0.6749  0.37003  0.64561     C
H       0.6985   0.5938   0.5008     H
H       0.6985   0.9062   0.5008     H
H       0.7026   0.6189   0.1323     H
H       0.7026   0.8811   0.1323     H
Cu      0.7154     0.75   0.2456    Cu
H       0.7187   0.5119   0.5979     H
H       0.7187   0.9881   0.5979     H
H       0.7451     0.12   0.8571     H
H       0.7451     0.38   0.8571     H
H       0.7549     0.62   0.3571     H
H       0.7549     0.88   0.3571     H
H       0.7813   0.0119   0.0979     H
H       0.7813   0.4881   0.0979     H
Cu      0.7846     0.25   0.7456    Cu
H       0.7974   0.1189   0.6323     H
H       0.7974   0.3811   0.6323     H
H       0.8015   0.0938   0.0008     H
H       0.8015   0.4062   0.0008     H
C       0.8251  0.62997  0.14561     C
C       0.8251  0.87003  0.14561     C
C       0.8692   0.0074   0.0586     C
C       0.8692   0.4926   0.0586     C
C       0.8704  0.13046  0.84848     C
C       0.8704  0.36954  0.84848     C
N       0.8746   0.6776  0.19458     N
N       0.8746   0.8224  0.19458     N
C       0.8807   0.0558   0.0007     C
C       0.8807   0.4442   0.0007     C
N       0.9334  0.17796  0.80124     N
N       0.9334  0.32204  0.80124     N
N       0.9813  0.59919  0.11729     N
N       0.9813  0.90081  0.11729     N
C       0.9902   0.5476  0.05727     C
C       0.9902   0.9524  0.05727     C
