data_I
_chemical_name_common  '/home/zhangsd/repos/MofS-CGCNN/ML/data/SSD/clean_cifs/AFOYOK_clean'
_cell_length_a  7.71190
_cell_length_b 13.47450
_cell_length_c 25.18920
_cell_angle_alpha 90.00000
_cell_angle_beta  90.00000
_cell_angle_gamma 106.62900
_space_group_name_H-M_alt      'P 1'


loop_
_space_group_symop_operation_xyz
  'x, y, z' 

loop_
_atom_site_label
_atom_site_fract_x
_atom_site_fract_y
_atom_site_fract_z
_atom_site_type_symbol
Cu         0.0      0.5      0.0    Cu
Cu         0.0      0.5      0.5    Cu
C      0.00364  0.39768  0.72257     C
C      0.00364  0.39768  0.77743     C
C      0.02614  0.40968  0.60735     C
C      0.02614  0.40968  0.89265     C
H       0.0338   0.6928   0.7034     H
H       0.0338   0.6928   0.7966     H
C      0.07696  0.33232  0.22218     C
C      0.07696  0.33232  0.27782     C
H        0.087   0.5816   0.2038     H
H        0.087   0.5816   0.2962     H
C      0.09251  0.38922   0.1083     C
C      0.09251  0.38922   0.3917     C
N      0.10171  0.43322  0.56019     N
N      0.10171  0.43322  0.93981     N
C      0.13371  0.36802  0.69516     C
C      0.13371  0.36802  0.80484     C
C      0.14703  0.38226  0.63785     C
C      0.14703  0.38226  0.86215     C
N      0.15184  0.42048  0.06031     N
N      0.15184  0.42048  0.43969     N
C       0.2179   0.7204    1e-05     C
C       0.2179   0.7204  0.49999     C
N        0.224   0.6238    2e-05     N
N        0.224   0.6238  0.49998     N
C      0.23431  0.36802  0.19516     C
C      0.23431  0.36802  0.30484     C
C      0.23523  0.38226  0.13785     C
C      0.23523  0.38226  0.36215     C
C      0.25536  0.33232  0.72218     C
C      0.25536  0.33232  0.77782     C
H       0.2643   0.9094   0.0556     H
H       0.2643   0.9094   0.4444     H
N      0.26864  0.42048  0.56031     N
N      0.26864  0.42048  0.93969     N
C      0.29671  0.38922   0.6083     C
C      0.29671  0.38922   0.8917     C
N      0.33151  0.43322  0.06019     N
N      0.33151  0.43322  0.43981     N
H        0.341   0.3072   0.7034     H
H        0.341   0.3072   0.7966     H
H       0.3549   0.0906   0.0556     H
H       0.3549   0.0906   0.4444     H
C      0.36078  0.94636   0.0329     C
C      0.36078  0.94636   0.4671     C
C      0.38354  0.40968  0.10735     C
C      0.38354  0.40968  0.39265     C
C      0.39084  0.78168      0.0     C
C      0.39084  0.78168      0.5     C
C      0.39404  0.39768  0.22257     C
C      0.39404  0.39768  0.27743     C
N       0.3998   0.6238  0.50002     N
N       0.3998   0.6238  0.99998     N
C      0.41442  0.05364   0.0329     C
C      0.41442  0.05364   0.4671     C
C      0.44708  0.89416      0.0     C
C      0.44708  0.89416      0.5     C
H       0.4946   0.5816   0.7038     H
H       0.4946   0.5816   0.7962     H
C       0.4975   0.2796    1e-05     C
C       0.4975   0.2796  0.49999     C
Cu         0.5      0.5      0.0    Cu
Cu         0.5      0.5      0.5    Cu
C       0.5025   0.7204  0.50001     C
C       0.5025   0.7204  0.99999     C
H       0.5054   0.4184   0.2038     H
H       0.5054   0.4184   0.2962     H
C      0.55292  0.10584      0.0     C
C      0.55292  0.10584      0.5     C
C      0.58558  0.94636   0.5329     C
C      0.58558  0.94636   0.9671     C
N       0.6002   0.3762    2e-05     N
N       0.6002   0.3762  0.49998     N
C      0.60596  0.60232  0.72257     C
C      0.60596  0.60232  0.77743     C
C      0.60916  0.21832      0.0     C
C      0.60916  0.21832      0.5     C
C      0.61646  0.59032  0.60735     C
C      0.61646  0.59032  0.89265     C
C      0.63922  0.05364   0.5329     C
C      0.63922  0.05364   0.9671     C
H       0.6451   0.9094   0.5556     H
H       0.6451   0.9094   0.9444     H
H        0.659   0.6928   0.2034     H
H        0.659   0.6928   0.2966     H
N      0.66849  0.56678  0.56019     N
N      0.66849  0.56678  0.93981     N
C      0.70329  0.61078   0.1083     C
C      0.70329  0.61078   0.3917     C
N      0.73136  0.57952  0.06031     N
N      0.73136  0.57952  0.43969     N
H       0.7357   0.0906   0.5556     H
H       0.7357   0.0906   0.9444     H
C      0.74464  0.66768  0.22218     C
C      0.74464  0.66768  0.27782     C
C      0.76477  0.61774  0.63785     C
C      0.76477  0.61774  0.86215     C
C      0.76569  0.63198  0.69516     C
C      0.76569  0.63198  0.80484     C
N        0.776   0.3762  0.50002     N
N        0.776   0.3762  0.99998     N
C       0.7821   0.2796  0.50001     C
C       0.7821   0.2796  0.99999     C
N      0.84816  0.57952  0.56031     N
N      0.84816  0.57952  0.93969     N
C      0.85297  0.61774  0.13785     C
C      0.85297  0.61774  0.36215     C
C      0.86629  0.63198  0.19516     C
C      0.86629  0.63198  0.30484     C
N      0.89829  0.56678  0.06019     N
N      0.89829  0.56678  0.43981     N
C      0.90749  0.61078   0.6083     C
C      0.90749  0.61078   0.8917     C
H        0.913   0.4184   0.7038     H
H        0.913   0.4184   0.7962     H
C      0.92304  0.66768  0.72218     C
C      0.92304  0.66768  0.77782     C
H       0.9662   0.3072   0.2034     H
H       0.9662   0.3072   0.2966     H
C      0.97386  0.59032  0.10735     C
C      0.97386  0.59032  0.39265     C
C      0.99636  0.60232  0.22257     C
C      0.99636  0.60232  0.27743     C
