data_I
_chemical_name_common  '/home/zhangsd/repos/MofS-CGCNN/ML/data/SSD/clean_cifs/AGARUW_clean'
_cell_length_a  8.52100
_cell_length_b 15.38000
_cell_length_c 18.47700
_cell_angle_alpha 90.00000
_cell_angle_beta  90.00000
_cell_angle_gamma 90.00000
_space_group_name_H-M_alt      'P 1'


loop_
_space_group_symop_operation_xyz
  'x, y, z' 

loop_
_atom_site_label
_atom_site_fract_x
_atom_site_fract_y
_atom_site_fract_z
_atom_site_type_symbol
H       0.0204    0.481   0.0863     H
H       0.0204    0.481   0.4137     H
C       0.0303   0.2509     0.75     C
C       0.0309   0.3219   0.5035     C
C       0.0309   0.3219   0.9965     C
H       0.0333    0.951   0.5442     H
H       0.0333    0.951   0.9558     H
O       0.0428   0.0941   0.6091     O
O       0.0428   0.0941   0.8909     O
O       0.0867   0.2735   0.6892     O
O       0.0867   0.2735   0.8108     O
O        0.089   0.2659   0.5458     O
O        0.089   0.2659   0.9542     O
O       0.0964   0.7943     0.25     O
O       0.1103   0.6754   0.5099     O
O       0.1103   0.6754   0.9901     O
C       0.1167   0.4597    0.069     C
C       0.1167   0.4597    0.431     C
N       0.1342   0.9423   0.5451     N
N       0.1342   0.9423   0.9549     N
C       0.1409    0.385   0.0281     C
C       0.1409    0.385   0.4719     C
La     0.15604  0.78446  0.11676    La
La     0.15604  0.78446  0.38324    La
C       0.1859   0.0786   0.6122     C
C       0.1859   0.0786   0.8878     C
N       0.2043    0.875   0.5136     N
N       0.2043    0.875   0.9864     N
O         0.21   0.6253   0.1387     O
O         0.21   0.6253   0.3613     O
C       0.2373    0.996   0.5789     C
C       0.2373    0.996   0.9211     C
C       0.2627    0.496   0.0789     C
C       0.2627    0.496   0.4211     C
O         0.29   0.1253   0.6387     O
O         0.29   0.1253   0.8613     O
N       0.2957    0.375   0.0136     N
N       0.2957    0.375   0.4864     N
C       0.3141   0.5786   0.1122     C
C       0.3141   0.5786   0.3878     C
La     0.34396  0.28446  0.61676    La
La     0.34396  0.28446  0.88324    La
C       0.3591    0.885   0.5281     C
C       0.3591    0.885   0.9719     C
N       0.3658   0.4423   0.0451     N
N       0.3658   0.4423   0.4549     N
C       0.3833   0.9597    0.569     C
C       0.3833   0.9597    0.931     C
O       0.3897   0.1754   0.0099     O
O       0.3897   0.1754   0.4901     O
O       0.4036   0.2943     0.75     O
O        0.411   0.7659   0.0458     O
O        0.411   0.7659   0.4542     O
O       0.4133   0.7735   0.1892     O
O       0.4133   0.7735   0.3108     O
O       0.4572   0.5941   0.1091     O
O       0.4572   0.5941   0.3909     O
H       0.4667    0.451   0.0442     H
H       0.4667    0.451   0.4558     H
C       0.4691   0.8219   0.0035     C
C       0.4691   0.8219   0.4965     C
C       0.4697   0.7509     0.25     C
H       0.4796    0.981   0.5863     H
H       0.4796    0.981   0.9137     H
H       0.5204    0.019   0.0863     H
H       0.5204    0.019   0.4137     H
C       0.5303   0.2491     0.75     C
C       0.5309   0.1781   0.5035     C
C       0.5309   0.1781   0.9965     C
H       0.5333    0.549   0.5442     H
H       0.5333    0.549   0.9558     H
O       0.5428   0.4059   0.6091     O
O       0.5428   0.4059   0.8909     O
O       0.5867   0.2265   0.6892     O
O       0.5867   0.2265   0.8108     O
O        0.589   0.2341   0.5458     O
O        0.589   0.2341   0.9542     O
O       0.5964   0.7057     0.25     O
O       0.6103   0.8246   0.5099     O
O       0.6103   0.8246   0.9901     O
C       0.6167   0.0403    0.069     C
C       0.6167   0.0403    0.431     C
N       0.6342   0.5577   0.5451     N
N       0.6342   0.5577   0.9549     N
C       0.6409    0.115   0.0281     C
C       0.6409    0.115   0.4719     C
La     0.65604  0.71554  0.11676    La
La     0.65604  0.71554  0.38324    La
C       0.6859   0.4214   0.6122     C
C       0.6859   0.4214   0.8878     C
N       0.7043    0.625   0.5136     N
N       0.7043    0.625   0.9864     N
O         0.71   0.8747   0.1387     O
O         0.71   0.8747   0.3613     O
C       0.7373    0.504   0.5789     C
C       0.7373    0.504   0.9211     C
C       0.7627    0.004   0.0789     C
C       0.7627    0.004   0.4211     C
O         0.79   0.3747   0.6387     O
O         0.79   0.3747   0.8613     O
N       0.7957    0.125   0.0136     N
N       0.7957    0.125   0.4864     N
C       0.8141   0.9214   0.1122     C
C       0.8141   0.9214   0.3878     C
La     0.84396  0.21554  0.61676    La
La     0.84396  0.21554  0.88324    La
C       0.8591    0.615   0.5281     C
C       0.8591    0.615   0.9719     C
N       0.8658   0.0577   0.0451     N
N       0.8658   0.0577   0.4549     N
C       0.8833   0.5403    0.569     C
C       0.8833   0.5403    0.931     C
O       0.8897   0.3246   0.0099     O
O       0.8897   0.3246   0.4901     O
O       0.9036   0.2057     0.75     O
O        0.911   0.7341   0.0458     O
O        0.911   0.7341   0.4542     O
O       0.9133   0.7265   0.1892     O
O       0.9133   0.7265   0.3108     O
O       0.9572   0.9059   0.1091     O
O       0.9572   0.9059   0.3909     O
H       0.9667    0.049   0.0442     H
H       0.9667    0.049   0.4558     H
C       0.9691   0.6781   0.0035     C
C       0.9691   0.6781   0.4965     C
C       0.9697   0.7491     0.25     C
H       0.9796    0.519   0.5863     H
H       0.9796    0.519   0.9137     H
