data_I
_chemical_name_common  '/home/zhangsd/repos/MofS-CGCNN/ML/data/SSD/clean_cifs/ANAWIX_clean'
_cell_length_a 16.26400
_cell_length_b 15.11000
_cell_length_c 14.37600
_cell_angle_alpha 90.00000
_cell_angle_beta  115.14800
_cell_angle_gamma 90.00000
_space_group_name_H-M_alt      'P 1'


loop_
_space_group_symop_operation_xyz
  'x, y, z' 

loop_
_atom_site_label
_atom_site_fract_x
_atom_site_fract_y
_atom_site_fract_z
_atom_site_type_symbol
In         0.0      0.0      0.0    In
In         0.0      0.0      0.5    In
In         0.0  0.06449     0.25    In
In         0.0  0.93551     0.75    In
F       0.0357   0.2778   0.6717     F
F       0.0357   0.7222   0.1717     F
O         0.06   0.0558   0.4104     O
O         0.06   0.9442   0.9104     O
O       0.0663   0.1047   0.6108     O
O       0.0663   0.8953   0.1108     O
O       0.0986    0.037   0.7617     O
O       0.0986    0.963   0.2617     O
C        0.102   0.1003   0.7063     C
C        0.102   0.8997   0.2063     C
H         0.11    0.031    0.424     H
H         0.11    0.969    0.924     H
O       0.1116   0.0902   0.0774     O
O       0.1116   0.9098   0.5774     O
C         0.12   0.2641   0.7443     C
C         0.12   0.7359   0.2443     C
F       0.1237    0.273   0.0314     F
F       0.1237    0.727   0.5314     F
F        0.132   0.4164    0.777     F
F        0.132   0.5836    0.277     F
C       0.1555   0.1796   0.7635     C
C       0.1555   0.8204   0.2635     C
C       0.1694    0.336   0.8009     C
C       0.1694    0.664   0.3009     C
C       0.1861   0.0957   0.0672     C
C       0.1861   0.9043   0.5672     C
C       0.2073   0.2586   0.1046     C
C       0.2073   0.7414   0.6046     C
O       0.2126   0.0464   0.0181     O
O       0.2126   0.9536   0.5181     O
F       0.2171   0.4103    0.141     F
F       0.2171   0.5897    0.641     F
C       0.2431   0.1691   0.8396     C
C       0.2431   0.8309   0.3396     C
C       0.2433   0.1743   0.1237     C
C       0.2433   0.8257   0.6237     C
C       0.2567   0.3257   0.8763     C
C       0.2567   0.6743   0.3763     C
C       0.2569   0.3309   0.1604     C
C       0.2569   0.6691   0.6604     C
F       0.2829   0.0897    0.859     F
F       0.2829   0.9103    0.359     F
O       0.2874   0.4536   0.9819     O
O       0.2874   0.5464   0.4819     O
C       0.2927   0.2414   0.8954     C
C       0.2927   0.7586   0.3954     C
C       0.3139   0.4043   0.9328     C
C       0.3139   0.5957   0.4328     C
C       0.3306    0.164   0.1991     C
C       0.3306    0.836   0.6991     C
C       0.3445   0.3204   0.2365     C
C       0.3445   0.6796   0.7365     C
F        0.368   0.0836    0.223     F
F        0.368   0.9164    0.723     F
F       0.3763    0.227   0.9686     F
F       0.3763    0.773   0.4686     F
C         0.38   0.2359   0.2557     C
C         0.38   0.7641   0.7557     C
O       0.3884   0.4098   0.9226     O
O       0.3884   0.5902   0.4226     O
H         0.39    0.469    0.576     H
H         0.39    0.531    0.076     H
C        0.398   0.3997   0.2937     C
C        0.398   0.6003   0.7937     C
O       0.4014    0.463   0.2383     O
O       0.4014    0.537   0.7383     O
O       0.4337   0.3953   0.3892     O
O       0.4337   0.6047   0.8892     O
O         0.44   0.4442   0.5896     O
O         0.44   0.5558   0.0896     O
F       0.4643   0.2222   0.3283     F
F       0.4643   0.7778   0.8283     F
In         0.5  0.43551     0.75    In
In         0.5      0.5      0.0    In
In         0.5      0.5      0.5    In
In         0.5  0.56449     0.25    In
F       0.5357   0.2222   0.1717     F
F       0.5357   0.7778   0.6717     F
O         0.56   0.4442   0.9104     O
O         0.56   0.5558   0.4104     O
O       0.5663   0.3953   0.1108     O
O       0.5663   0.6047   0.6108     O
O       0.5986    0.463   0.2617     O
O       0.5986    0.537   0.7617     O
C        0.602   0.3997   0.2063     C
C        0.602   0.6003   0.7063     C
H         0.61    0.469    0.924     H
H         0.61    0.531    0.424     H
O       0.6116   0.4098   0.5774     O
O       0.6116   0.5902   0.0774     O
C         0.62   0.2359   0.2443     C
C         0.62   0.7641   0.7443     C
F       0.6237    0.227   0.5314     F
F       0.6237    0.773   0.0314     F
F        0.632   0.0836    0.277     F
F        0.632   0.9164    0.777     F
C       0.6555   0.3204   0.2635     C
C       0.6555   0.6796   0.7635     C
C       0.6694    0.164   0.3009     C
C       0.6694    0.836   0.8009     C
C       0.6861   0.4043   0.5672     C
C       0.6861   0.5957   0.0672     C
C       0.7073   0.2414   0.6046     C
C       0.7073   0.7586   0.1046     C
O       0.7126   0.4536   0.5181     O
O       0.7126   0.5464   0.0181     O
F       0.7171   0.0897    0.641     F
F       0.7171   0.9103    0.141     F
C       0.7431   0.3309   0.3396     C
C       0.7431   0.6691   0.8396     C
C       0.7433   0.3257   0.6237     C
C       0.7433   0.6743   0.1237     C
C       0.7567   0.1743   0.3763     C
C       0.7567   0.8257   0.8763     C
C       0.7569   0.1691   0.6604     C
C       0.7569   0.8309   0.1604     C
F       0.7829   0.4103    0.359     F
F       0.7829   0.5897    0.859     F
O       0.7874   0.0464   0.4819     O
O       0.7874   0.9536   0.9819     O
C       0.7927   0.2586   0.3954     C
C       0.7927   0.7414   0.8954     C
C       0.8139   0.0957   0.4328     C
C       0.8139   0.9043   0.9328     C
C       0.8306    0.336   0.6991     C
C       0.8306    0.664   0.1991     C
C       0.8445   0.1796   0.7365     C
C       0.8445   0.8204   0.2365     C
F        0.868   0.4164    0.723     F
F        0.868   0.5836    0.223     F
F       0.8763    0.273   0.4686     F
F       0.8763    0.727   0.9686     F
C         0.88   0.2641   0.7557     C
C         0.88   0.7359   0.2557     C
O       0.8884   0.0902   0.4226     O
O       0.8884   0.9098   0.9226     O
H         0.89    0.031    0.076     H
H         0.89    0.969    0.576     H
C        0.898   0.1003   0.7937     C
C        0.898   0.8997   0.2937     C
O       0.9014    0.037   0.7383     O
O       0.9014    0.963   0.2383     O
O       0.9337   0.1047   0.8892     O
O       0.9337   0.8953   0.3892     O
O         0.94   0.0558   0.0896     O
O         0.94   0.9442   0.5896     O
F       0.9643   0.2778   0.8283     F
F       0.9643   0.7222   0.3283     F
