data_I
_chemical_name_common  '/home/zhangsd/repos/MofS-CGCNN/ML/data/SSD/clean_cifs/ANOMUM_clean'
_cell_length_a 10.30360
_cell_length_b 15.22480
_cell_length_c 20.40690
_cell_angle_alpha 68.09740
_cell_angle_beta  75.37720
_cell_angle_gamma 90.00000
_space_group_name_H-M_alt      'P 1'


loop_
_space_group_symop_operation_xyz
  'x, y, z' 

loop_
_atom_site_label
_atom_site_fract_x
_atom_site_fract_y
_atom_site_fract_z
_atom_site_type_symbol
O      0.05785  0.14012   0.8975     O
O      0.05785  0.96238   0.8975     O
Cu     0.06801  0.97473  0.05054    Cu
C       0.1454  0.15415   0.9262     C
C       0.1454  0.91965   0.9262     C
O      0.16701  0.09967   0.9852     O
O      0.16701  0.91513   0.9852     O
H       0.2333   0.2567   0.7824     H
H       0.2333   0.9609   0.7824     H
C      0.23752  0.24471  0.88536     C
C      0.23752  0.86993  0.88536     C
H       0.2411   0.6128   0.5646     H
H       0.2411   0.8226   0.5646     H
O      0.24221  0.50261  0.69358     O
O      0.24221  0.80381  0.69358     O
H       0.2625   0.2625    0.975     H
H       0.2625   0.7625    0.975     H
C      0.27228  0.28433  0.80864     C
C      0.27228  0.90703  0.80864     C
C      0.28857  0.28857  0.92286     C
C      0.28857  0.78857  0.92286     C
H       0.3057   0.6774   0.4354     H
H       0.3057   0.8872   0.4354     H
C       0.3118   0.5883   0.5386     C
C       0.3118   0.8731   0.5386     C
C      0.33192  0.47542  0.65796     C
C      0.33192  0.86662  0.65796     C
O      0.34779  0.41513   0.9852     O
O      0.34779  0.59967   0.9852     O
C       0.3504   0.6269   0.4614     C
C       0.3504   0.9117   0.4614     C
C        0.364    0.364    0.772     C
C        0.364    0.864    0.772     C
C      0.37471  0.51651  0.57618     C
C      0.37471  0.90731  0.57618     C
C      0.37712  0.36993  0.88536     C
C      0.37712  0.74471  0.88536     C
Cu     0.38145  0.47473  0.05054    Cu
N       0.4039   0.4039   0.6922     N
N       0.4039   0.9039   0.6922     N
C      0.41908  0.40703  0.80864     C
C      0.41908  0.78433  0.80864     C
C       0.4284  0.41965   0.9262     C
C       0.4284  0.65415   0.9262     C
O      0.43579  0.69619  0.30642     O
O      0.43579  0.99739  0.30642     O
C      0.45089  0.59269  0.42382     C
C      0.45089  0.98349  0.42382     C
O      0.45535  0.35988   0.1025     O
O      0.45535  0.53762   0.1025     O
C      0.48059  0.48059  0.53882     C
C      0.48059  0.98059  0.53882     C
H       0.4843   0.4609   0.7824     H
H       0.4843   0.7567   0.7824     H
C      0.48988  0.02458  0.34204     C
C      0.48988  0.63338  0.34204     C
C      0.51012  0.36662  0.65796     C
C      0.51012  0.97542  0.65796     C
H       0.5157   0.2433   0.2176     H
H       0.5157   0.5391   0.2176     H
C      0.51941  0.01941  0.46118     C
C      0.51941  0.51941  0.46118     C
O      0.54465  0.46238   0.8975     O
O      0.54465  0.64012   0.8975     O
C      0.54911  0.01651  0.57618     C
C      0.54911  0.40731  0.57618     C
O      0.56421  0.00261  0.69358     O
O      0.56421  0.30381  0.69358     O
C       0.5716  0.34585   0.0738     C
C       0.5716  0.58035   0.0738     C
C      0.58092  0.21567  0.19136     C
C      0.58092  0.59297  0.19136     C
N       0.5961   0.0961   0.3078     N
N       0.5961   0.5961   0.3078     N
Cu     0.61855  0.52527  0.94946    Cu
C      0.62288  0.25529  0.11464     C
C      0.62288  0.63007  0.11464     C
C      0.62529  0.09269  0.42382     C
C      0.62529  0.48349  0.42382     C
C        0.636    0.136    0.228     C
C        0.636    0.636    0.228     C
C       0.6496   0.0883   0.5386     C
C       0.6496   0.3731   0.5386     C
O      0.65221  0.40033   0.0148     O
O      0.65221  0.58487   0.0148     O
C      0.66808  0.13338  0.34204     C
C      0.66808  0.52458  0.34204     C
C       0.6882   0.1269   0.4614     C
C       0.6882   0.4117   0.4614     C
H       0.6943   0.1128   0.5646     H
H       0.6943   0.3226   0.5646     H
C      0.71143  0.21143  0.07714     C
C      0.71143  0.71143  0.07714     C
C      0.72772  0.09297  0.19136     C
C      0.72772  0.71567  0.19136     C
H       0.7375   0.2375    0.025     H
H       0.7375   0.7375    0.025     H
O      0.75779  0.19619  0.30642     O
O      0.75779  0.49739  0.30642     O
H       0.7589   0.1774   0.4354     H
H       0.7589   0.3872   0.4354     H
C      0.76248  0.13007  0.11464     C
C      0.76248  0.75529  0.11464     C
H       0.7667   0.0391   0.2176     H
H       0.7667   0.7433   0.2176     H
O      0.83299  0.08487   0.0148     O
O      0.83299  0.90033   0.0148     O
C       0.8546  0.08035   0.0738     C
C       0.8546  0.84585   0.0738     C
Cu     0.93199  0.02527  0.94946    Cu
O      0.94215  0.03762   0.1025     O
O      0.94215  0.85988   0.1025     O
