data_I
_chemical_name_common  '/home/zhangsd/repos/MofS-CGCNN/ML/data/SSD/clean_cifs/ANUGEW_clean'
_cell_length_a 24.60550
_cell_length_b 26.54890
_cell_length_c 26.54880
_cell_angle_alpha 77.59960
_cell_angle_beta  62.39310
_cell_angle_gamma 62.39310
_space_group_name_H-M_alt      'P 1'


loop_
_space_group_symop_operation_xyz
  'x, y, z' 

loop_
_atom_site_label
_atom_site_fract_x
_atom_site_fract_y
_atom_site_fract_z
_atom_site_type_symbol
Cu         0.0  0.03987  0.96013    Cu
Cu         0.0  0.96013  0.03987    Cu
O      0.01225  0.00817  0.07633     O
O      0.01225  0.07633  0.00817     O
C       0.0128   0.0252   0.3982     C
C       0.0128   0.3982   0.0252     C
C       0.0135   0.7351   0.9477     C
C       0.0135   0.9477   0.7351     C
C        0.016   0.6821   0.9657     C
C        0.016   0.9657   0.6821     C
C       0.0201   0.0439   0.3381     C
C       0.0201   0.3381   0.0439     C
C       0.0215   0.0526   0.0526     C
C        0.024   0.0881   0.0881     C
C      0.02689  0.06837  0.13865     C
C      0.02689  0.13865  0.06837     C
O      0.02696  0.48259  0.90949     O
O      0.02696  0.90949  0.48259     O
H        0.027   0.0323   0.1509     H
H        0.027   0.1509   0.0323     H
C       0.0275  0.07975  0.23065     C
C       0.0275  0.23065  0.07975     C
O      0.02952  0.57121  0.99235     O
O      0.02952  0.99235  0.57121     O
C       0.0296  0.09809  0.17271     C
C       0.0296  0.17271  0.09809     C
C       0.0302   0.1531   0.1531     C
H       0.0309   0.1755   0.1755     H
H       0.0395   0.7482   0.9538     H
H       0.0395   0.9538   0.7482     H
H       0.0431   0.6592    0.985     H
H       0.0431    0.985   0.6592     H
Cu     0.04565  0.01659  0.49251    Cu
Cu     0.04565  0.49251  0.01659    Cu
O      0.04887  0.03383  0.41503     O
O      0.04887  0.41503  0.03383     O
C       0.0615   0.0713   0.3043     C
C       0.0615   0.3043   0.0713     C
C       0.0664  0.08875  0.25025     C
C       0.0664  0.25025  0.08875     C
C       0.0847  0.47242  0.89898     C
C       0.0847  0.89898  0.47242     C
H       0.0864   0.0779   0.3183     H
H       0.0864   0.3183   0.0779     H
H       0.0904   0.4351   0.8131     H
H       0.0904   0.8131   0.4351     H
H       0.0953   0.1063   0.2269     H
H       0.0953   0.2269   0.1063     H
O      0.09675  0.92367  0.99183     O
O      0.09675  0.99183  0.92367     O
O      0.10712  0.47115  0.93641     O
O      0.10712  0.93641  0.47115     O
C       0.1267   0.9474   0.9474     C
C       0.1327   0.4348   0.8026     C
C       0.1327   0.8026   0.4348     C
C       0.1439   0.4518   0.8402     C
C       0.1439   0.8402   0.4518     C
H        0.175   0.4032   0.7254     H
H        0.175   0.7254   0.4032     H
C       0.1829   0.4172   0.7498     C
C       0.1829   0.7498   0.4172     C
C       0.2002   0.9119   0.9119     C
C       0.2033   0.4533   0.8247     C
C       0.2033   0.8247   0.4533     C
H       0.2102   0.4666   0.8504     H
H       0.2102   0.8491   0.9677     H
H       0.2102   0.8504   0.4666     H
H       0.2102   0.9677   0.8491     H
C      0.23391  0.86135  0.93163     C
C      0.23391  0.93163  0.86135     C
C       0.2416   0.4186   0.7312     C
C       0.2416   0.7312   0.4186     C
C       0.2561   0.4345   0.7697     C
C       0.2561   0.7697   0.4345     C
H       0.2585   0.7482   0.9538     H
H       0.2585   0.9538   0.7482     H
H        0.292   0.3235   0.6765     H
H        0.292   0.6765   0.3235     H
C      0.29882  0.39877  0.67399     C
C      0.29882  0.67399  0.39877     C
H       0.2991   0.4326   0.7592     H
H       0.2991   0.7592   0.4326     H
C       0.3004  0.82729  0.90191     C
C       0.3004  0.90191  0.82729     C
H       0.3036   0.2746   0.5968     H
H       0.3036   0.5968   0.2746     H
C       0.3037   0.7351   0.9477     C
C       0.3037   0.9477   0.7351     C
H       0.3127   0.6592    0.985     H
H       0.3127    0.985   0.6592     H
C       0.3163   0.3453   0.6547     C
C       0.3163   0.6547   0.3453     C
H       0.3315   0.4635   0.6549     H
H       0.3315   0.6549   0.4635     H
C       0.3362   0.6821   0.9657     C
C       0.3362   0.9657   0.6821     C
C       0.3364   0.8469   0.8469     C
C       0.3379  0.76935  0.92025     C
C       0.3379  0.92025  0.76935     C
H       0.3386   0.1869   0.5649     H
H       0.3386   0.5649   0.1869     H
C      0.34042   0.4298  0.64036     C
C      0.34042  0.64036   0.4298     C
C       0.3499   0.2502   0.5828     C
C       0.3499   0.5828   0.2502     C
C       0.3701   0.1974   0.5652     C
C       0.3701   0.5652   0.1974     C
C      0.37158  0.32601  0.60123     C
C      0.37158  0.60123  0.32601     C
H       0.3819   0.8245   0.8245     H
C       0.3911   0.4109   0.5891     C
C       0.3911   0.5891   0.4109     C
C       0.3914   0.2688   0.5814     C
C       0.3914   0.5814   0.2688     C
C       0.4021   0.6619   0.9561     C
C       0.4021   0.9561   0.6619     C
C       0.4054  0.74975  0.91125     C
C       0.4054  0.91125  0.74975     C
O      0.40692  0.57121  0.99235     O
O      0.40692  0.99235  0.57121     O
O      0.41031  0.49157  0.57627     O
O      0.41031  0.57627  0.49157     O
C      0.41058  0.35964   0.5702     C
C      0.41058   0.5702  0.35964     C
O      0.41904  0.09051  0.51741     O
O      0.41904  0.51741  0.09051     O
H       0.4285   0.7731   0.8937     H
H       0.4285   0.8937   0.7731     H
C        0.429   0.4453   0.5547     C
C        0.429   0.5547   0.4453     C
C       0.4359   0.1598   0.5482     C
C       0.4359   0.5482   0.1598     C
C       0.4362   0.6018   0.9748     C
C       0.4362   0.9748   0.6018     C
C       0.4371   0.6957   0.9287     C
C       0.4371   0.9287   0.6957     C
Cu     0.44525  0.01659  0.49251    Cu
Cu     0.44525  0.49251  0.01659    Cu
H       0.4499   0.3451   0.5365     H
H       0.4499   0.5365   0.3451     H
C       0.4561  0.10102  0.52758     C
C       0.4561  0.52758  0.10102     C
Cu     0.46019  0.53981  0.53981    Cu
C       0.4603   0.2303   0.5655     C
C       0.4603   0.5655   0.2303     C
H       0.4728   0.4666   0.8504     H
H       0.4728   0.8504   0.4666     H
O      0.47815  0.42373  0.50843     O
O      0.47815  0.50843  0.42373     O
C       0.4813   0.1753   0.5467     C
C       0.4813   0.5467   0.1753     C
H       0.4826   0.6817   0.9221     H
H       0.4826   0.9221   0.6817     H
O      0.48532  0.47115  0.93641     O
O      0.48532  0.93641  0.47115     O
H       0.4909   0.2408   0.5674     H
H       0.4909   0.5674   0.2408     H
O      0.49773  0.58497  0.96617     O
O      0.49773  0.96617  0.58497     O
O      0.50227  0.03383  0.41503     O
O      0.50227  0.41503  0.03383     O
H       0.5091   0.4326   0.7592     H
H       0.5091   0.7592   0.4326     H
O      0.51468  0.06359  0.52885     O
O      0.51468  0.52885  0.06359     O
H       0.5174   0.0779   0.3183     H
H       0.5174   0.3183   0.0779     H
C       0.5187   0.4533   0.8247     C
C       0.5187   0.8247   0.4533     C
O      0.52185  0.49157  0.57627     O
O      0.52185  0.57627  0.49157     O
H       0.5272   0.1496   0.5334     H
H       0.5272   0.5334   0.1496     H
C       0.5397   0.4345   0.7697     C
C       0.5397   0.7697   0.4345     C
Cu     0.53981  0.46019  0.46019    Cu
C       0.5439  0.47242  0.89898     C
C       0.5439  0.89898  0.47242     C
H       0.5501   0.4635   0.6549     H
H       0.5501   0.6549   0.4635     H
Cu     0.55475  0.50749  0.98341    Cu
Cu     0.55475  0.98341  0.50749    Cu
C       0.5629   0.0713   0.3043     C
C       0.5629   0.3043   0.0713     C
C       0.5638   0.0252   0.3982     C
C       0.5638   0.3982   0.0252     C
C       0.5641   0.4518   0.8402     C
C       0.5641   0.8402   0.4518     C
C        0.571   0.4453   0.5547     C
C        0.571   0.5547   0.4453     C
H       0.5715   0.1063   0.2269     H
H       0.5715   0.2269   0.1063     H
O      0.58096  0.48259  0.90949     O
O      0.58096  0.90949  0.48259     O
C      0.58942   0.4298  0.64036     C
C      0.58942  0.64036   0.4298     C
O      0.58969  0.42373  0.50843     O
O      0.58969  0.50843  0.42373     O
O      0.59308  0.00765  0.42879     O
O      0.59308  0.42879  0.00765     O
C       0.5946  0.08875  0.25025     C
C       0.5946  0.25025  0.08875     C
C       0.5979   0.0439   0.3381     C
C       0.5979   0.3381   0.0439     C
C       0.6086   0.4186   0.7312     C
C       0.6086   0.7312   0.4186     C
C       0.6089   0.4109   0.5891     C
C       0.6089   0.5891   0.4109     C
H       0.6181   0.1755   0.1755     H
C      0.62842  0.39877  0.67399     C
C      0.62842  0.67399  0.39877     C
C       0.6299   0.4348   0.8026     C
C       0.6299   0.8026   0.4348     C
C       0.6501   0.4172   0.7498     C
C       0.6501   0.7498   0.4172     C
C      0.65958  0.35964   0.5702     C
C      0.65958   0.5702  0.35964     C
H       0.6614   0.4351   0.8131     H
H       0.6614   0.8131   0.4351     H
C       0.6621  0.07975  0.23065     C
C       0.6621  0.23065  0.07975     C
C       0.6636   0.1531   0.1531     C
C       0.6638   0.0343   0.3179     C
C       0.6638   0.3179   0.0343     C
H       0.6685   0.3451   0.5365     H
H       0.6685   0.5365   0.3451     H
C       0.6837   0.3453   0.6547     C
C       0.6837   0.6547   0.3453     C
H       0.6873    0.015   0.3408     H
H       0.6873   0.3408    0.015     H
C       0.6963   0.0523   0.2649     C
C       0.6963   0.2649   0.0523     C
H       0.6964   0.4032   0.7254     H
H       0.6964   0.7254   0.4032     H
C       0.6996  0.09809  0.17271     C
C       0.6996  0.17271  0.09809     C
H       0.7009   0.2408   0.5674     H
H       0.7009   0.5674   0.2408     H
C      0.70118  0.32601  0.60123     C
C      0.70118  0.60123  0.32601     C
H        0.708   0.3235   0.6765     H
H        0.708   0.6765   0.3235     H
H       0.7415   0.0462   0.2518     H
H       0.7415   0.2518   0.0462     H
C       0.7439   0.2303   0.5655     C
C       0.7439   0.5655   0.2303     C
C       0.7584   0.2688   0.5814     C
C       0.7584   0.5814   0.2688     C
C      0.76609  0.06837  0.13865     C
C      0.76609  0.13865  0.06837     C
H       0.7898   0.0323   0.1509     H
H       0.7898   0.1496   0.5334     H
H       0.7898   0.1509   0.0323     H
H       0.7898   0.5334   0.1496     H
C       0.7967   0.1753   0.5467     C
C       0.7967   0.5467   0.1753     C
C       0.7998   0.0881   0.0881     C
C       0.8171   0.2502   0.5828     C
C       0.8171   0.5828   0.2502     C
H        0.825   0.2746   0.5968     H
H        0.825   0.5968   0.2746     H
C       0.8561   0.1598   0.5482     C
C       0.8561   0.5482   0.1598     C
C       0.8673   0.1974   0.5652     C
C       0.8673   0.5652   0.1974     C
C       0.8733   0.0526   0.0526     C
O      0.89288  0.06359  0.52885     O
O      0.89288  0.52885  0.06359     O
O      0.90325  0.00817  0.07633     O
O      0.90325  0.07633  0.00817     O
H       0.9047   0.7731   0.8937     H
H       0.9047   0.8937   0.7731     H
H       0.9096   0.1869   0.5649     H
H       0.9096   0.5649   0.1869     H
H       0.9136   0.6817   0.9221     H
H       0.9136   0.9221   0.6817     H
C       0.9153  0.10102  0.52758     C
C       0.9153  0.52758  0.10102     C
C       0.9336  0.74975  0.91125     C
C       0.9336  0.91125  0.74975     C
C       0.9385   0.6957   0.9287     C
C       0.9385   0.9287   0.6957     C
O      0.95113  0.58497  0.96617     O
O      0.95113  0.96617  0.58497     O
Cu     0.95435  0.50749  0.98341    Cu
Cu     0.95435  0.98341  0.50749    Cu
H       0.9569    0.015   0.3408     H
H       0.9569   0.3408    0.015     H
H       0.9605   0.0462   0.2518     H
H       0.9605   0.2518   0.0462     H
H       0.9691   0.8245   0.8245     H
C       0.9698   0.8469   0.8469     C
C       0.9704  0.82729  0.90191     C
C       0.9704  0.90191  0.82729     C
O      0.97048  0.00765  0.42879     O
O      0.97048  0.42879  0.00765     O
C       0.9725  0.76935  0.92025     C
C       0.9725  0.92025  0.76935     C
H        0.973   0.8491   0.9677     H
H        0.973   0.9677   0.8491     H
O      0.97304  0.09051  0.51741     O
O      0.97304  0.51741  0.09051     O
C      0.97311  0.86135  0.93163     C
C      0.97311  0.93163  0.86135     C
C        0.976   0.9119   0.9119     C
C       0.9785   0.9474   0.9474     C
C       0.9799   0.6619   0.9561     C
C       0.9799   0.9561   0.6619     C
C        0.984   0.0343   0.3179     C
C        0.984   0.3179   0.0343     C
C       0.9865   0.0523   0.2649     C
C       0.9865   0.2649   0.0523     C
C       0.9872   0.6018   0.9748     C
C       0.9872   0.9748   0.6018     C
O      0.98775  0.92367  0.99183     O
O      0.98775  0.99183  0.92367     O
