data_I
_chemical_name_common  '/home/zhangsd/repos/MofS-CGCNN/ML/data/SSD/clean_cifs/APACAX_clean'
_cell_length_a 28.22190
_cell_length_b 28.22190
_cell_length_c  9.72660
_cell_angle_alpha 90.00000
_cell_angle_beta  90.00000
_cell_angle_gamma 90.00000
_space_group_name_H-M_alt      'P 1'


loop_
_space_group_symop_operation_xyz
  'x, y, z' 

loop_
_atom_site_label
_atom_site_fract_x
_atom_site_fract_y
_atom_site_fract_z
_atom_site_type_symbol
Zn         0.0      0.0      0.0    Zn
Zn         0.0      0.5     0.25    Zn
C      0.00505  0.12885   0.2175     C
C      0.00505  0.37115   0.0325     C
C      0.00817  0.72366   0.9659     C
C      0.00817  0.77634   0.2841     C
H       0.0117   0.7443   0.3037     H
H       0.0117   0.7557   0.9463     H
C      0.01229  0.07823   0.1778     C
C      0.01229  0.42177   0.0722     C
O      0.01445  0.56124    0.164     O
O      0.01445  0.93876    0.086     O
C      0.02955    0.199   0.3401     C
C      0.02955    0.301   0.9099     C
C      0.03396   0.6541   0.0838     C
C      0.03396   0.8459   0.1662     C
C      0.03629  0.15068   0.3054     C
C      0.03629  0.34932   0.9446     C
C      0.04074  0.70151   0.0506     C
C      0.04074  0.79849   0.1994     C
O      0.04345  0.05487   0.2388     O
O      0.04345  0.44513   0.0112     O
O      0.05487  0.54345   0.4888     O
O      0.05487  0.95655   0.7612     O
H       0.0556   0.6389   0.1408     H
H       0.0556   0.8611   0.1092     H
O      0.05775  0.23433   0.7861     O
O      0.05775  0.26567   0.4639     O
O      0.06124  0.01445    0.914     O
O      0.06124  0.48555    0.336     O
H       0.0617   0.1339   0.3418     H
H       0.0617   0.3661   0.9082     H
C       0.0625   0.2238   0.4392     C
C       0.0625   0.2762   0.8108     C
C      0.07823  0.51229   0.4278     C
C      0.07823  0.98771   0.8222     C
C      0.08489  0.72824   0.0959     C
C      0.08489  0.77176   0.1541     C
O      0.09458  0.19938   0.4963     O
O      0.09458  0.30062   0.7537     O
Zn     0.12059     0.25    0.625    Zn
H       0.1278   0.6771   0.0244     H
H       0.1278   0.8229   0.2256     H
C      0.12823   0.7069   0.0652     C
C      0.12823   0.7931   0.1848     C
C      0.12885  0.50505   0.4675     C
C      0.12885  0.99495   0.7825     C
H       0.1339   0.5617   0.5918     H
H       0.1339   0.9383   0.6582     H
H       0.1389   0.0556   0.8908     H
H       0.1389   0.4444   0.3592     H
C      0.15068  0.53629   0.5554     C
C      0.15068  0.96371   0.6946     C
C       0.1541  0.03396   0.8338     C
C       0.1541  0.46604   0.4162     C
O      0.16301  0.20629   0.7295     O
O      0.16301  0.29371   0.5205     O
C      0.17152  0.72723   0.0918     C
C      0.17152  0.77277   0.1582     C
H       0.1771   0.1278   0.7744     H
H       0.1771   0.3722   0.4756     H
C        0.199  0.52955   0.5901     C
C        0.199  0.97045   0.6599     C
O      0.19938  0.59458   0.7463     O
O      0.19938  0.90542   0.5037     O
C       0.1998   0.2139   0.7932     C
C       0.1998   0.2861   0.4568     C
C      0.20151  0.04074   0.8006     C
C      0.20151  0.45926   0.4494     C
O      0.20629  0.66301   0.9795     O
O      0.20629  0.83699   0.2705     O
C       0.2069  0.12823   0.8152     C
C       0.2069  0.37177   0.4348     C
C       0.2139   0.6998   0.0432     C
C       0.2139   0.8002   0.2068     C
O       0.2148  0.24463   0.4401     O
O       0.2148  0.25537   0.8099     O
C      0.22366  0.00817   0.7159     C
C      0.22366  0.49183   0.5341     C
C       0.2238   0.5625   0.6892     C
C       0.2238   0.9375   0.5608     C
C      0.22723  0.17152   0.8418     C
C      0.22723  0.32848   0.4082     C
C      0.22824  0.08489   0.8459     C
C      0.22824  0.41511   0.4041     C
O      0.23433  0.55775   0.0361     O
O      0.23433  0.94225   0.2139     O
H       0.2443   0.0117   0.0537     H
H       0.2443   0.4883   0.1963     H
O      0.24463   0.7148   0.6901     O
O      0.24463   0.7852   0.5599     O
H        0.248     0.75    0.625     H
H         0.25    0.248    0.375     H
H         0.25    0.252    0.875     H
Zn        0.25  0.62059    0.875    Zn
Zn        0.25  0.87941    0.375    Zn
H        0.252     0.75    0.125     H
O      0.25537   0.7148   0.0599     O
O      0.25537   0.7852   0.1901     O
H       0.2557   0.0117   0.6963     H
H       0.2557   0.4883   0.5537     H
O      0.26567  0.55775   0.7139     O
O      0.26567  0.94225   0.5361     O
C      0.27176  0.08489   0.9041     C
C      0.27176  0.41511   0.3459     C
C      0.27277  0.17152   0.9082     C
C      0.27277  0.32848   0.3418     C
C       0.2762   0.5625   0.0608     C
C       0.2762   0.9375   0.1892     C
C      0.27634  0.00817   0.0341     C
C      0.27634  0.49183   0.2159     C
O       0.2852  0.24463   0.3099     O
O       0.2852  0.25537   0.9401     O
C       0.2861   0.6998   0.7068     C
C       0.2861   0.8002   0.5432     C
C       0.2931  0.12823   0.9348     C
C       0.2931  0.37177   0.3152     C
O      0.29371  0.66301   0.7705     O
O      0.29371  0.83699   0.4795     O
C      0.29849  0.04074   0.9494     C
C      0.29849  0.45926   0.3006     C
C       0.3002   0.2139   0.9568     C
C       0.3002   0.2861   0.2932     C
O      0.30062  0.59458   0.0037     O
O      0.30062  0.90542   0.2463     O
C        0.301  0.52955   0.1599     C
C        0.301  0.97045   0.0901     C
H       0.3229   0.1278   0.9756     H
H       0.3229   0.3722   0.2744     H
C      0.32848  0.72723   0.6582     C
C      0.32848  0.77277   0.5918     C
O      0.33699  0.20629   0.0205     O
O      0.33699  0.29371   0.2295     O
C       0.3459  0.03396   0.9162     C
C       0.3459  0.46604   0.3338     C
C      0.34932  0.53629   0.1946     C
C      0.34932  0.96371   0.0554     C
H       0.3611   0.0556   0.8592     H
H       0.3611   0.4444   0.3908     H
H       0.3661   0.5617   0.1582     H
H       0.3661   0.9383   0.0918     H
C      0.37115  0.50505   0.2825     C
C      0.37115  0.99495   0.9675     C
C      0.37177   0.7069   0.6848     C
C      0.37177   0.7931   0.5652     C
H       0.3722   0.6771   0.7256     H
H       0.3722   0.8229   0.5244     H
Zn     0.37941     0.25    0.125    Zn
O      0.40542  0.19938   0.2537     O
O      0.40542  0.30062   0.9963     O
C      0.41511  0.72824   0.6541     C
C      0.41511  0.77176   0.5959     C
C      0.42177  0.51229   0.3222     C
C      0.42177  0.98771   0.9278     C
C       0.4375   0.2238   0.3108     C
C       0.4375   0.2762   0.9392     C
H       0.4383   0.1339   0.4082     H
H       0.4383   0.3661   0.8418     H
O      0.43876  0.01445    0.836     O
O      0.43876  0.48555    0.414     O
O      0.44225  0.23433   0.9639     O
O      0.44225  0.26567   0.2861     O
H       0.4444   0.6389   0.6092     H
H       0.4444   0.8611   0.6408     H
O      0.44513  0.54345   0.2612     O
O      0.44513  0.95655   0.9888     O
O      0.45655  0.05487   0.5112     O
O      0.45655  0.44513   0.7388     O
C      0.45926  0.70151   0.6994     C
C      0.45926  0.79849   0.5506     C
C      0.46371  0.15068   0.4446     C
C      0.46371  0.34932   0.8054     C
C      0.46604   0.6541   0.6662     C
C      0.46604   0.8459   0.5838     C
C      0.47045    0.199   0.4099     C
C      0.47045    0.301   0.8401     C
O      0.48555  0.56124    0.586     O
O      0.48555  0.93876    0.664     O
C      0.48771  0.07823   0.5722     C
C      0.48771  0.42177   0.6778     C
H       0.4883   0.7443   0.4463     H
H       0.4883   0.7557   0.8037     H
C      0.49183  0.72366   0.7841     C
C      0.49183  0.77634   0.4659     C
C      0.49495  0.12885   0.5325     C
C      0.49495  0.37115   0.7175     C
Zn         0.5      0.0     0.75    Zn
Zn         0.5      0.5      0.5    Zn
C      0.50505  0.62885   0.7175     C
C      0.50505  0.87115   0.5325     C
C      0.50817  0.22366   0.4659     C
C      0.50817  0.27634   0.7841     C
H       0.5117   0.2443   0.8037     H
H       0.5117   0.2557   0.4463     H
C      0.51229  0.57823   0.6778     C
C      0.51229  0.92177   0.5722     C
O      0.51445  0.06124    0.664     O
O      0.51445  0.43876    0.586     O
C      0.52955    0.699   0.8401     C
C      0.52955    0.801   0.4099     C
C      0.53396   0.1541   0.5838     C
C      0.53396   0.3459   0.6662     C
C      0.53629  0.65068   0.8054     C
C      0.53629  0.84932   0.4446     C
C      0.54074  0.20151   0.5506     C
C      0.54074  0.29849   0.6994     C
O      0.54345  0.55487   0.7388     O
O      0.54345  0.94513   0.5112     O
O      0.55487  0.04345   0.9888     O
O      0.55487  0.45655   0.2612     O
H       0.5556   0.1389   0.6408     H
H       0.5556   0.3611   0.6092     H
O      0.55775  0.73433   0.2861     O
O      0.55775  0.76567   0.9639     O
O      0.56124  0.51445    0.414     O
O      0.56124  0.98555    0.836     O
H       0.5617   0.6339   0.8418     H
H       0.5617   0.8661   0.4082     H
C       0.5625   0.7238   0.9392     C
C       0.5625   0.7762   0.3108     C
C      0.57823  0.01229   0.9278     C
C      0.57823  0.48771   0.3222     C
C      0.58489  0.22824   0.5959     C
C      0.58489  0.27176   0.6541     C
O      0.59458  0.69938   0.9963     O
O      0.59458  0.80062   0.2537     O
Zn     0.62059     0.75    0.125    Zn
H       0.6278   0.1771   0.5244     H
H       0.6278   0.3229   0.7256     H
C      0.62823   0.2069   0.5652     C
C      0.62823   0.2931   0.6848     C
C      0.62885  0.00505   0.9675     C
C      0.62885  0.49495   0.2825     C
H       0.6339   0.0617   0.0918     H
H       0.6339   0.4383   0.1582     H
H       0.6389   0.5556   0.3908     H
H       0.6389   0.9444   0.8592     H
C      0.65068  0.03629   0.0554     C
C      0.65068  0.46371   0.1946     C
C       0.6541  0.53396   0.3338     C
C       0.6541  0.96604   0.9162     C
O      0.66301  0.70629   0.2295     O
O      0.66301  0.79371   0.0205     O
C      0.67152  0.22723   0.5918     C
C      0.67152  0.27277   0.6582     C
H       0.6771   0.6278   0.2744     H
H       0.6771   0.8722   0.9756     H
C        0.699  0.02955   0.0901     C
C        0.699  0.47045   0.1599     C
O      0.69938  0.09458   0.2463     O
O      0.69938  0.40542   0.0037     O
C       0.6998   0.7139   0.2932     C
C       0.6998   0.7861   0.9568     C
C      0.70151  0.54074   0.3006     C
C      0.70151  0.95926   0.9494     C
O      0.70629  0.16301   0.4795     O
O      0.70629  0.33699   0.7705     O
C       0.7069  0.62823   0.3152     C
C       0.7069  0.87177   0.9348     C
C       0.7139   0.1998   0.5432     C
C       0.7139   0.3002   0.7068     C
O       0.7148  0.74463   0.9401     O
O       0.7148  0.75537   0.3099     O
C      0.72366  0.50817   0.2159     C
C      0.72366  0.99183   0.0341     C
C       0.7238   0.0625   0.1892     C
C       0.7238   0.4375   0.0608     C
C      0.72723  0.67152   0.3418     C
C      0.72723  0.82848   0.9082     C
C      0.72824  0.58489   0.3459     C
C      0.72824  0.91511   0.9041     C
O      0.73433  0.05775   0.5361     O
O      0.73433  0.44225   0.7139     O
H       0.7443   0.5117   0.5537     H
H       0.7443   0.9883   0.6963     H
O      0.74463   0.2148   0.1901     O
O      0.74463   0.2852   0.0599     O
H        0.748     0.25    0.125     H
Zn        0.75  0.12059    0.375    Zn
Zn        0.75  0.37941    0.875    Zn
H         0.75    0.748    0.875     H
H         0.75    0.752    0.375     H
H        0.752     0.25    0.625     H
O      0.75537   0.2148   0.5599     O
O      0.75537   0.2852   0.6901     O
H       0.7557   0.5117   0.1963     H
H       0.7557   0.9883   0.0537     H
O      0.76567  0.05775   0.2139     O
O      0.76567  0.44225   0.0361     O
C      0.77176  0.58489   0.4041     C
C      0.77176  0.91511   0.8459     C
C      0.77277  0.67152   0.4082     C
C      0.77277  0.82848   0.8418     C
C       0.7762   0.0625   0.5608     C
C       0.7762   0.4375   0.6892     C
C      0.77634  0.50817   0.5341     C
C      0.77634  0.99183   0.7159     C
O       0.7852  0.74463   0.8099     O
O       0.7852  0.75537   0.4401     O
C       0.7861   0.1998   0.2068     C
C       0.7861   0.3002   0.0432     C
C       0.7931  0.62823   0.4348     C
C       0.7931  0.87177   0.8152     C
O      0.79371  0.16301   0.2705     O
O      0.79371  0.33699   0.9795     O
C      0.79849  0.54074   0.4494     C
C      0.79849  0.95926   0.8006     C
C       0.8002   0.7139   0.4568     C
C       0.8002   0.7861   0.7932     C
O      0.80062  0.09458   0.5037     O
O      0.80062  0.40542   0.7463     O
C        0.801  0.02955   0.6599     C
C        0.801  0.47045   0.5901     C
H       0.8229   0.6278   0.4756     H
H       0.8229   0.8722   0.7744     H
C      0.82848  0.22723   0.1582     C
C      0.82848  0.27277   0.0918     C
O      0.83699  0.70629   0.5205     O
O      0.83699  0.79371   0.7295     O
C       0.8459  0.53396   0.4162     C
C       0.8459  0.96604   0.8338     C
C      0.84932  0.03629   0.6946     C
C      0.84932  0.46371   0.5554     C
H       0.8611   0.5556   0.3592     H
H       0.8611   0.9444   0.8908     H
H       0.8661   0.0617   0.6582     H
H       0.8661   0.4383   0.5918     H
C      0.87115  0.00505   0.7825     C
C      0.87115  0.49495   0.4675     C
C      0.87177   0.2069   0.1848     C
C      0.87177   0.2931   0.0652     C
H       0.8722   0.1771   0.2256     H
H       0.8722   0.3229   0.0244     H
Zn     0.87941     0.75    0.625    Zn
O      0.90542  0.69938   0.7537     O
O      0.90542  0.80062   0.4963     O
C      0.91511  0.22824   0.1541     C
C      0.91511  0.27176   0.0959     C
C      0.92177  0.01229   0.8222     C
C      0.92177  0.48771   0.4278     C
C       0.9375   0.7238   0.8108     C
C       0.9375   0.7762   0.4392     C
H       0.9383   0.6339   0.9082     H
H       0.9383   0.8661   0.3418     H
O      0.93876  0.51445    0.336     O
O      0.93876  0.98555    0.914     O
O      0.94225  0.73433   0.4639     O
O      0.94225  0.76567   0.7861     O
H       0.9444   0.1389   0.1092     H
H       0.9444   0.3611   0.1408     H
O      0.94513  0.04345   0.7612     O
O      0.94513  0.45655   0.4888     O
O      0.95655  0.55487   0.0112     O
O      0.95655  0.94513   0.2388     O
C      0.95926  0.20151   0.1994     C
C      0.95926  0.29849   0.0506     C
C      0.96371  0.65068   0.9446     C
C      0.96371  0.84932   0.3054     C
C      0.96604   0.1541   0.1662     C
C      0.96604   0.3459   0.0838     C
C      0.97045    0.699   0.9099     C
C      0.97045    0.801   0.3401     C
O      0.98555  0.06124    0.086     O
O      0.98555  0.43876    0.164     O
C      0.98771  0.57823   0.0722     C
C      0.98771  0.92177   0.1778     C
H       0.9883   0.2443   0.9463     H
H       0.9883   0.2557   0.3037     H
C      0.99183  0.22366   0.2841     C
C      0.99183  0.27634   0.9659     C
C      0.99495  0.62885   0.0325     C
C      0.99495  0.87115   0.2175     C
