data_I
_chemical_name_common  '/home/zhangsd/repos/MofS-CGCNN/ML/data/SSD/clean_cifs/AQALIO_clean'
_cell_length_a 11.45200
_cell_length_b 15.82900
_cell_length_c 12.68500
_cell_angle_alpha 90.00000
_cell_angle_beta  90.00000
_cell_angle_gamma 90.00000
_space_group_name_H-M_alt      'P 1'


loop_
_space_group_symop_operation_xyz
  'x, y, z' 

loop_
_atom_site_label
_atom_site_fract_x
_atom_site_fract_y
_atom_site_fract_z
_atom_site_type_symbol
C       0.0231   0.4577   0.9771     C
C       0.0231   0.9577   0.5229     C
C       0.0248   0.4575   0.5197     C
C       0.0248   0.9575   0.9803     C
O       0.0447   0.0918   0.0651     O
O       0.0447   0.5918   0.4349     O
O       0.0504   0.1013    0.469     O
O       0.0504   0.6013    0.031     O
O       0.1267   0.4542   0.9536     O
O       0.1267   0.9542   0.5464     O
O       0.1318    0.445   0.5036     O
O       0.1318    0.945   0.9964     O
O       0.1336    0.093   0.6854     O
O       0.1336    0.593   0.8146     O
O       0.1344   0.0953   0.8618     O
O       0.1344   0.5953   0.6382     O
C       0.1832   0.0931   0.7738     C
C       0.1832   0.5931   0.7262     C
H       0.1894   0.2478   0.5905     H
H       0.1894   0.7478   0.9095     H
C         0.25   0.0271   0.2731     C
Eu        0.25  0.07442  0.02272    Eu
Eu        0.25  0.07766  0.52294    Eu
C         0.25   0.1246   0.2696     C
O         0.25   0.1582   0.1821     O
O         0.25   0.1617   0.3577     O
O         0.25   0.2354   0.5568     O
Sr        0.25  0.32789  0.37106    Sr
O         0.25   0.4911   0.3144     O
O         0.25   0.4921   0.1399     O
C         0.25   0.5271   0.2269     C
Eu        0.25  0.57442  0.47728    Eu
Eu        0.25  0.57766  0.97706    Eu
C         0.25   0.6246   0.2304     C
O         0.25   0.6582   0.3179     O
O         0.25   0.6617   0.1423     O
O         0.25   0.7354   0.9432     O
Sr        0.25  0.82789  0.12894    Sr
O         0.25   0.9911   0.1856     O
O         0.25   0.9921   0.3601     O
H       0.3106   0.2478   0.5905     H
H       0.3106   0.7478   0.9095     H
C       0.3168   0.0931   0.7738     C
C       0.3168   0.5931   0.7262     C
O       0.3656   0.0953   0.8618     O
O       0.3656   0.5953   0.6382     O
O       0.3664    0.093   0.6854     O
O       0.3664    0.593   0.8146     O
O       0.3682    0.445   0.5036     O
O       0.3682    0.945   0.9964     O
O       0.3733   0.4542   0.9536     O
O       0.3733   0.9542   0.5464     O
O       0.4496   0.1013    0.469     O
O       0.4496   0.6013    0.031     O
O       0.4553   0.0918   0.0651     O
O       0.4553   0.5918   0.4349     O
C       0.4752   0.4575   0.5197     C
C       0.4752   0.9575   0.9803     C
C       0.4769   0.4577   0.9771     C
C       0.4769   0.9577   0.5229     C
C       0.5231   0.0423   0.4771     C
C       0.5231   0.5423   0.0229     C
C       0.5248   0.0425   0.0197     C
C       0.5248   0.5425   0.4803     C
O       0.5447   0.4082   0.5651     O
O       0.5447   0.9082   0.9349     O
O       0.5504   0.3987    0.969     O
O       0.5504   0.8987    0.531     O
O       0.6267   0.0458   0.4536     O
O       0.6267   0.5458   0.0464     O
O       0.6318    0.055   0.0036     O
O       0.6318    0.555   0.4964     O
O       0.6336    0.407   0.1854     O
O       0.6336    0.907   0.3146     O
O       0.6344   0.4047   0.3618     O
O       0.6344   0.9047   0.1382     O
C       0.6832   0.4069   0.2738     C
C       0.6832   0.9069   0.2262     C
H       0.6894   0.2522   0.0905     H
H       0.6894   0.7522   0.4095     H
O         0.75   0.0079   0.6399     O
O         0.75   0.0089   0.8144     O
Sr        0.75  0.17211  0.87106    Sr
O         0.75   0.2646   0.0568     O
O         0.75   0.3383   0.8577     O
O         0.75   0.3418   0.6821     O
C         0.75   0.3754   0.7696     C
Eu        0.75  0.42234  0.02294    Eu
Eu        0.75  0.42558  0.52272    Eu
C         0.75   0.4729   0.7731     C
O         0.75   0.5079   0.8601     O
O         0.75   0.5089   0.6856     O
Sr        0.75  0.67211  0.62894    Sr
O         0.75   0.7646   0.4432     O
O         0.75   0.8383   0.6423     O
O         0.75   0.8418   0.8179     O
C         0.75   0.8754   0.7304     C
Eu        0.75  0.92234  0.47706    Eu
Eu        0.75  0.92558  0.97728    Eu
C         0.75   0.9729   0.7269     C
H       0.8106   0.2522   0.0905     H
H       0.8106   0.7522   0.4095     H
C       0.8168   0.4069   0.2738     C
C       0.8168   0.9069   0.2262     C
O       0.8656   0.4047   0.3618     O
O       0.8656   0.9047   0.1382     O
O       0.8664    0.407   0.1854     O
O       0.8664    0.907   0.3146     O
O       0.8682    0.055   0.0036     O
O       0.8682    0.555   0.4964     O
O       0.8733   0.0458   0.4536     O
O       0.8733   0.5458   0.0464     O
O       0.9496   0.3987    0.969     O
O       0.9496   0.8987    0.531     O
O       0.9553   0.4082   0.5651     O
O       0.9553   0.9082   0.9349     O
C       0.9752   0.0425   0.0197     C
C       0.9752   0.5425   0.4803     C
C       0.9769   0.0423   0.4771     C
C       0.9769   0.5423   0.0229     C
