data_I
_chemical_name_common  '/home/zhangsd/repos/MofS-CGCNN/ML/data/SSD/clean_cifs/ARAHIM02_clean'
_cell_length_a  9.94300
_cell_length_b  9.94300
_cell_length_c 15.76400
_cell_angle_alpha 90.00000
_cell_angle_beta  90.00000
_cell_angle_gamma 90.00000
_space_group_name_H-M_alt      'P 1'


loop_
_space_group_symop_operation_xyz
  'x, y, z' 

loop_
_atom_site_label
_atom_site_fract_x
_atom_site_fract_y
_atom_site_fract_z
_atom_site_type_symbol
Nb         0.0      0.0      0.0    Nb
O          0.0      0.0   0.1231     O
Ni         0.0      0.0     0.25    Ni
O          0.0      0.0   0.3769     O
Nb         0.0      0.0      0.5    Nb
O          0.0      0.0   0.6231     O
Ni         0.0      0.0     0.75    Ni
O          0.0      0.0   0.8769     O
F        0.008   0.1908      0.0     F
F        0.008   0.8092      0.5     F
H       0.0985   0.2392   0.1436     H
H       0.0985   0.2392   0.8564     H
H       0.0985   0.7608   0.3564     H
H       0.0985   0.7608   0.6436     H
N       0.1514   0.1514     0.25     N
N       0.1514   0.1514     0.75     N
N       0.1514   0.8486     0.25     N
N       0.1514   0.8486     0.75     N
C       0.1601   0.2421    0.188     C
C       0.1601   0.2421    0.812     C
C       0.1601   0.7579    0.312     C
C       0.1601   0.7579    0.688     C
F       0.1908    0.008      0.5     F
F       0.1908    0.992      0.0     F
H       0.2392   0.0985   0.3564     H
H       0.2392   0.0985   0.6436     H
H       0.2392   0.9015   0.1436     H
H       0.2392   0.9015   0.8564     H
C       0.2421   0.1601    0.312     C
C       0.2421   0.1601    0.688     C
C       0.2421   0.8399    0.188     C
C       0.2421   0.8399    0.812     C
C       0.2579   0.3399    0.188     C
C       0.2579   0.3399    0.812     C
C       0.2579   0.6601    0.312     C
C       0.2579   0.6601    0.688     C
H       0.2608   0.4015   0.1436     H
H       0.2608   0.4015   0.8564     H
H       0.2608   0.5985   0.3564     H
H       0.2608   0.5985   0.6436     H
F       0.3092    0.492      0.0     F
F       0.3092    0.508      0.5     F
C       0.3399   0.2579    0.312     C
C       0.3399   0.2579    0.688     C
C       0.3399   0.7421    0.188     C
C       0.3399   0.7421    0.812     C
N       0.3486   0.3486     0.25     N
N       0.3486   0.3486     0.75     N
N       0.3486   0.6514     0.25     N
N       0.3486   0.6514     0.75     N
H       0.4015   0.2608   0.3564     H
H       0.4015   0.2608   0.6436     H
H       0.4015   0.7392   0.1436     H
H       0.4015   0.7392   0.8564     H
F        0.492   0.3092      0.5     F
F        0.492   0.6908      0.0     F
Nb         0.5      0.5      0.0    Nb
O          0.5      0.5   0.1231     O
Ni         0.5      0.5     0.25    Ni
O          0.5      0.5   0.3769     O
Nb         0.5      0.5      0.5    Nb
O          0.5      0.5   0.6231     O
Ni         0.5      0.5     0.75    Ni
O          0.5      0.5   0.8769     O
F        0.508   0.3092      0.0     F
F        0.508   0.6908      0.5     F
H       0.5985   0.2608   0.1436     H
H       0.5985   0.2608   0.8564     H
H       0.5985   0.7392   0.3564     H
H       0.5985   0.7392   0.6436     H
N       0.6514   0.3486     0.25     N
N       0.6514   0.3486     0.75     N
N       0.6514   0.6514     0.25     N
N       0.6514   0.6514     0.75     N
C       0.6601   0.2579    0.188     C
C       0.6601   0.2579    0.812     C
C       0.6601   0.7421    0.312     C
C       0.6601   0.7421    0.688     C
F       0.6908    0.492      0.5     F
F       0.6908    0.508      0.0     F
H       0.7392   0.4015   0.3564     H
H       0.7392   0.4015   0.6436     H
H       0.7392   0.5985   0.1436     H
H       0.7392   0.5985   0.8564     H
C       0.7421   0.3399    0.312     C
C       0.7421   0.3399    0.688     C
C       0.7421   0.6601    0.188     C
C       0.7421   0.6601    0.812     C
C       0.7579   0.1601    0.188     C
C       0.7579   0.1601    0.812     C
C       0.7579   0.8399    0.312     C
C       0.7579   0.8399    0.688     C
H       0.7608   0.0985   0.1436     H
H       0.7608   0.0985   0.8564     H
H       0.7608   0.9015   0.3564     H
H       0.7608   0.9015   0.6436     H
F       0.8092    0.008      0.0     F
F       0.8092    0.992      0.5     F
C       0.8399   0.2421    0.312     C
C       0.8399   0.2421    0.688     C
C       0.8399   0.7579    0.188     C
C       0.8399   0.7579    0.812     C
N       0.8486   0.1514     0.25     N
N       0.8486   0.1514     0.75     N
N       0.8486   0.8486     0.25     N
N       0.8486   0.8486     0.75     N
H       0.9015   0.2392   0.3564     H
H       0.9015   0.2392   0.6436     H
H       0.9015   0.7608   0.1436     H
H       0.9015   0.7608   0.8564     H
F        0.992   0.1908      0.5     F
F        0.992   0.8092      0.0     F
