data_I
_chemical_name_common  '/home/zhangsd/repos/MofS-CGCNN/ML/data/SSD/clean_cifs/ARUDAU_clean'
_cell_length_a 10.11900
_cell_length_b 13.67100
_cell_length_c 15.00900
_cell_angle_alpha 111.27100
_cell_angle_beta  101.92600
_cell_angle_gamma 99.46100
_space_group_name_H-M_alt      'P 1'


loop_
_space_group_symop_operation_xyz
  'x, y, z' 

loop_
_atom_site_label
_atom_site_fract_x
_atom_site_fract_y
_atom_site_fract_z
_atom_site_type_symbol
C       0.0026   0.6084    0.731     C
H       0.0055   0.1405   0.1874     H
C       0.0136    0.604    0.435     C
H       0.0218   0.2821   0.4503     H
C       0.0259   0.7076   0.5017     C
C       0.0261   0.4913   0.9113     C
O       0.0291   0.9329   0.6096     O
C       0.0322   0.7999   0.7954     C
H       0.0409   0.4557   0.5618     H
H       0.0432   0.4861   0.8515     H
C       0.0553   0.3034   0.2453     C
C       0.0827   0.5894   0.3634     C
O       0.0912   0.4914   0.2984     O
H          0.1   0.1234   0.6542     H
C       0.1082   0.5119   0.0804     C
C       0.1086   0.7971   0.4985     C
C       0.1227   0.9088   0.5736     C
C       0.1354   0.5022   0.9899     C
C       0.1453   0.6227   0.7465     C
H       0.1515   0.3141   0.2568     H
C        0.162   0.6773   0.3582     C
C        0.175   0.8166   0.8112     C
C       0.1756   0.7806   0.4251     C
H       0.1802   0.5206   0.1346     H
H       0.1832   0.5632   0.7316     H
H       0.1879   0.3073   0.7486     H
C       0.1961   0.1544    0.678     C
H       0.1977   0.1519   0.0729     H
H       0.2072   0.6667   0.3087     H
C         0.23   0.7267   0.7843     C
H       0.2302   0.8397   0.4211     H
N        0.238   0.0056   0.9265     N
N       0.2499   0.9794   0.5986     N
C       0.2507   0.2652    0.735     C
C       0.2685   0.1813   0.0519     C
C        0.274   0.9268   0.8545     C
C       0.2799   0.5102   0.9815     C
C       0.2894   0.0912   0.6576     C
O       0.2955   0.4937   0.8964     O
H          0.3   0.3327   0.1479     H
H       0.3072   0.5299    0.554     H
C       0.3093   0.1152    0.975     C
H         0.32   0.5354   0.4051     H
H       0.3255   0.7372   0.7921     H
C        0.332   0.2899   0.0973     C
O       0.3764   0.5045   0.7145     O
O       0.3774   0.5365   0.0588     O
O         0.38   0.9434   0.8299     O
C        0.385   0.5176   0.5323     C
N       0.3877   0.3158   0.7719     N
C       0.3929   0.5213   0.4435     C
O       0.4152   0.5244   0.2612     O
C       0.4155   0.1659   0.9507     C
H         0.43   0.7134   0.2238     H
C       0.4323   0.1423   0.6964     C
N       0.4358    0.339   0.0749     N
H       0.4472   0.1256   0.8988     H
H       0.4515   0.6954   0.0163     H
Co     0.46959  0.48844  0.84983    Co
C       0.4744   0.2533   0.7516     C
C       0.4749   0.2739   0.0016     C
C       0.4833   0.4921   0.6869     C
C       0.4906   0.4959   0.5896     C
H       0.4978   0.1023   0.6852     H
H       0.5022   0.8977   0.3148     H
C       0.5094   0.5041   0.4104     C
C       0.5167   0.5079   0.3131     C
C       0.5251   0.7261   0.9984     C
C       0.5256   0.7467   0.2484     C
Co     0.53041  0.51156  0.15017    Co
H       0.5485   0.3046   0.9837     H
H       0.5528   0.8744   0.1012     H
N       0.5642    0.661   0.9251     N
C       0.5677   0.8577   0.3036     C
H         0.57   0.2866   0.7762     H
C       0.5845   0.8341   0.0493     C
O       0.5848   0.4756   0.7388     O
C       0.6071   0.4787   0.5565     C
N       0.6123   0.6842   0.2281     N
C        0.615   0.4824   0.4677     C
O         0.62   0.0566   0.1701     O
O       0.6226   0.4635   0.9412     O
O       0.6236   0.4955   0.2855     O
C        0.668   0.7101   0.9027     C
H       0.6745   0.2628   0.2079     H
H         0.68   0.4646   0.5949     H
C       0.6907   0.8848    0.025     C
H       0.6928   0.4701    0.446     H
H          0.7   0.6673   0.8521     H
O       0.7045   0.5063   0.1036     O
C       0.7106   0.9088   0.3424     C
C       0.7201   0.4898   0.0185     C
C        0.726   0.0732   0.1455     C
C       0.7315   0.8187   0.9481     C
C       0.7493   0.7348    0.265     C
N       0.7501   0.0206   0.4014     N
N        0.762   0.9944   0.0735     N
H       0.7698   0.1603   0.5789     H
C         0.77   0.2733   0.2157     C
H       0.7928   0.3333   0.6913     H
H       0.8023   0.8481   0.9271     H
C       0.8039   0.8456    0.322     C
H       0.8121   0.6927   0.2514     H
H       0.8168   0.4368   0.2684     H
H       0.8198   0.4794   0.8654     H
C       0.8244   0.2194   0.5749     C
C        0.825   0.1834   0.1888     C
C        0.838   0.3227   0.6418     C
H       0.8485   0.6859   0.7432     H
C       0.8547   0.3773   0.2535     C
C       0.8646   0.4978   0.0101     C
C       0.8773   0.0912   0.4264     C
C       0.8914   0.2029   0.5015     C
C       0.8918   0.4881   0.9196     C
H          0.9   0.8766   0.3458     H
O       0.9088   0.5086   0.7016     O
C       0.9173   0.4106   0.6366     C
C       0.9447   0.6966   0.7547     C
H       0.9568   0.5139   0.1485     H
H       0.9591   0.5443   0.4382     H
C       0.9678   0.2001   0.2046     C
O       0.9709   0.0671   0.3904     O
C       0.9739   0.5087   0.0887     C
C       0.9741   0.2924   0.4983     C
H       0.9782   0.7179   0.5497     H
C       0.9864    0.396    0.565     C
H       0.9945   0.8595   0.8126     H
C       0.9974   0.3916    0.269     C
