data_I
_chemical_name_common  '/home/zhangsd/repos/MofS-CGCNN/ML/data/SSD/clean_cifs/ATEYED_clean'
_cell_length_a 28.13200
_cell_length_b 12.61500
_cell_length_c 24.74600
_cell_angle_alpha 90.00000
_cell_angle_beta  120.02600
_cell_angle_gamma 90.00000
_space_group_name_H-M_alt      'P 1'


loop_
_space_group_symop_operation_xyz
  'x, y, z' 

loop_
_atom_site_label
_atom_site_fract_x
_atom_site_fract_y
_atom_site_fract_z
_atom_site_type_symbol
C      0.02332   0.0319   0.4652     C
C      0.02332   0.9681   0.9652     C
C        0.028    0.427   0.2626     C
C        0.028    0.573   0.7626     C
C       0.0282   0.3843    0.763     C
C       0.0282   0.6157    0.263     C
C      0.03305   0.0332    0.061     C
C      0.03305   0.9668    0.561     C
H       0.0389   0.0541   0.4417     H
H       0.0389   0.9459   0.9417     H
H       0.0468    0.363   0.2711     H
H       0.0468    0.637   0.7711     H
H        0.047   0.3203    0.772     H
H        0.047   0.6797    0.272     H
H       0.0551   0.0551   0.1022     H
H       0.0551   0.9449   0.6022     H
C       0.0568    0.478   0.7755     C
C       0.0568    0.522   0.2755     C
C      0.05705   0.0018   0.0261     C
C      0.05705   0.9982   0.5261     C
C        0.118   0.4783    0.803     C
C        0.118   0.5217    0.303     C
C      0.11838   0.0098   0.0545     C
C      0.11838   0.9902   0.5545     C
H       0.1206   0.4269    0.915     H
H       0.1206   0.5731    0.415     H
H       0.1266   0.0662   0.0337     H
H       0.1266   0.9338   0.5337     H
H       0.1274   0.4796   0.2768     H
H       0.1274   0.5204   0.7768     H
H       0.1307   0.4065    0.804     H
H       0.1307   0.5935    0.304     H
H       0.1314   0.1959    0.604     H
H       0.1314   0.8041    0.104     H
H       0.1344   0.0293   0.0981     H
H       0.1344   0.9707   0.5981     H
C       0.1413   0.4845   0.9153     C
C       0.1413   0.5155   0.4153     C
N      0.14422   0.0881  0.55028     N
N      0.14422   0.9119  0.05028     N
N      0.14582   0.4778  0.36673     N
N      0.14582   0.5222  0.86673     N
C       0.1475   0.1808     0.58     C
C       0.1475   0.8192     0.08     C
C      0.17325   0.4521   0.4644     C
C      0.17325   0.5479   0.9644     C
C      0.17335   0.1017   0.5215     C
C      0.17335   0.8983   0.0215     C
H       0.1777   0.0497   0.4977     H
H       0.1777   0.9503   0.9977     H
H       0.1782   0.4594   0.5043     H
H       0.1782   0.5406   0.0043     H
C      0.17878   0.2464   0.5678     C
C      0.17878   0.7536   0.0678     C
C       0.1791    0.394   0.3876     C
C       0.1791    0.606   0.8876     C
H        0.188   0.3155   0.5824     H
H        0.188   0.6845   0.0824     H
H       0.1885    0.353   0.3632     H
H       0.1885    0.647   0.8632     H
N      0.19494   0.1964  0.53082     N
N      0.19494   0.8036  0.03082     N
N      0.19691   0.3765  0.44689     N
N      0.19691   0.6235  0.94689     N
Co        0.25     0.25      0.5    Co
Co        0.25     0.75      0.0    Co
N      0.30309   0.1235  0.55311     N
N      0.30309   0.8765  0.05311     N
N      0.30506   0.3036  0.46918     N
N      0.30506   0.6964  0.96918     N
H       0.3115    0.147   0.6368     H
H       0.3115    0.853   0.1368     H
H        0.312   0.1845   0.4176     H
H        0.312   0.8155   0.9176     H
C       0.3209    0.106   0.6124     C
C       0.3209    0.894   0.1124     C
C      0.32122   0.2536   0.4322     C
C      0.32122   0.7464   0.9322     C
H       0.3218   0.0406   0.4957     H
H       0.3218   0.9594   0.9957     H
H       0.3223   0.4503   0.5023     H
H       0.3223   0.5497   0.0023     H
C      0.32665   0.3983   0.4785     C
C      0.32665   0.6017   0.9785     C
C      0.32675   0.0479   0.5356     C
C      0.32675   0.9521   0.0356     C
C       0.3525   0.3192     0.42     C
C       0.3525   0.6808     0.92     C
N      0.35418   0.0222  0.63327     N
N      0.35418   0.9778  0.13327     N
N      0.35578   0.4119  0.44972     N
N      0.35578   0.5881  0.94972     N
C       0.3587   0.0155   0.0847     C
C       0.3587   0.9845   0.5847     C
H       0.3656   0.4707   0.9019     H
H       0.3656   0.5293   0.4019     H
H       0.3686   0.3041    0.396     H
H       0.3686   0.6959    0.896     H
H       0.3693   0.0935    0.196     H
H       0.3693   0.9065    0.696     H
H       0.3726   0.0204   0.7232     H
H       0.3726   0.9796   0.2232     H
H       0.3734   0.4338   0.9663     H
H       0.3734   0.5662   0.4663     H
H       0.3794   0.0731    0.085     H
H       0.3794   0.9269    0.585     H
C      0.38162   0.4902   0.9455     C
C      0.38162   0.5098   0.4455     C
C        0.382   0.0217    0.197     C
C        0.382   0.9783    0.697     C
C      0.44295   0.4982   0.9739     C
C      0.44295   0.5018   0.4739     C
C       0.4432    0.022   0.2245     C
C       0.4432    0.978   0.7245     C
H       0.4449   0.4449   0.8978     H
H       0.4449   0.5551   0.3978     H
H        0.453   0.1797    0.228     H
H        0.453   0.8203    0.728     H
H       0.4532    0.137   0.7289     H
H       0.4532    0.863   0.2289     H
H       0.4611   0.4459   0.5583     H
H       0.4611   0.5541   0.0583     H
C      0.46695   0.4668    0.939     C
C      0.46695   0.5332    0.439     C
C       0.4718   0.1157    0.237     C
C       0.4718   0.8843    0.737     C
C        0.472    0.073   0.7374     C
C        0.472    0.927   0.2374     C
C      0.47668   0.4681   0.5348     C
C      0.47668   0.5319   0.0348     C
C      0.52332   0.4681   0.9652     C
C      0.52332   0.5319   0.4652     C
C        0.528    0.073   0.7626     C
C        0.528    0.927   0.2626     C
C       0.5282   0.1157    0.263     C
C       0.5282   0.8843    0.763     C
C      0.53305   0.4668    0.561     C
C      0.53305   0.5332    0.061     C
H       0.5389   0.4459   0.9417     H
H       0.5389   0.5541   0.4417     H
H       0.5468    0.137   0.7711     H
H       0.5468    0.863   0.2711     H
H        0.547   0.1797    0.272     H
H        0.547   0.8203    0.772     H
H       0.5551   0.4449   0.6022     H
H       0.5551   0.5551   0.1022     H
C       0.5568    0.022   0.2755     C
C       0.5568    0.978   0.7755     C
C      0.55705   0.4982   0.5261     C
C      0.55705   0.5018   0.0261     C
C        0.618   0.0217    0.303     C
C        0.618   0.9783    0.803     C
C      0.61838   0.4902   0.5545     C
C      0.61838   0.5098   0.0545     C
H       0.6206   0.0731    0.415     H
H       0.6206   0.9269    0.915     H
H       0.6266   0.4338   0.5337     H
H       0.6266   0.5662   0.0337     H
H       0.6274   0.0204   0.7768     H
H       0.6274   0.9796   0.2768     H
H       0.6307   0.0935    0.304     H
H       0.6307   0.9065    0.804     H
H       0.6314   0.3041    0.104     H
H       0.6314   0.6959    0.604     H
H       0.6344   0.4707   0.5981     H
H       0.6344   0.5293   0.0981     H
C       0.6413   0.0155   0.4153     C
C       0.6413   0.9845   0.9153     C
N      0.64422   0.4119  0.05028     N
N      0.64422   0.5881  0.55028     N
N      0.64582   0.0222  0.86673     N
N      0.64582   0.9778  0.36673     N
C       0.6475   0.3192     0.08     C
C       0.6475   0.6808     0.58     C
C      0.67325   0.0479   0.9644     C
C      0.67325   0.9521   0.4644     C
C      0.67335   0.3983   0.0215     C
C      0.67335   0.6017   0.5215     C
H       0.6777   0.4503   0.9977     H
H       0.6777   0.5497   0.4977     H
H       0.6782   0.0406   0.0043     H
H       0.6782   0.9594   0.5043     H
C      0.67878   0.2536   0.0678     C
C      0.67878   0.7464   0.5678     C
C       0.6791    0.106   0.8876     C
C       0.6791    0.894   0.3876     C
H        0.688   0.1845   0.0824     H
H        0.688   0.8155   0.5824     H
H       0.6885    0.147   0.8632     H
H       0.6885    0.853   0.3632     H
N      0.69494   0.3036  0.03082     N
N      0.69494   0.6964  0.53082     N
N      0.69691   0.1235  0.94689     N
N      0.69691   0.8765  0.44689     N
Co        0.75     0.25      0.0    Co
Co        0.75     0.75      0.5    Co
N      0.80309   0.3765  0.05311     N
N      0.80309   0.6235  0.55311     N
N      0.80506   0.1964  0.96918     N
N      0.80506   0.8036  0.46918     N
H       0.8115    0.353   0.1368     H
H       0.8115    0.647   0.6368     H
H        0.812   0.3155   0.9176     H
H        0.812   0.6845   0.4176     H
C       0.8209    0.394   0.1124     C
C       0.8209    0.606   0.6124     C
C      0.82122   0.2464   0.9322     C
C      0.82122   0.7536   0.4322     C
H       0.8218   0.4594   0.9957     H
H       0.8218   0.5406   0.4957     H
H       0.8223   0.0497   0.0023     H
H       0.8223   0.9503   0.5023     H
C      0.82665   0.1017   0.9785     C
C      0.82665   0.8983   0.4785     C
C      0.82675   0.4521   0.0356     C
C      0.82675   0.5479   0.5356     C
C       0.8525   0.1808     0.92     C
C       0.8525   0.8192     0.42     C
N      0.85418   0.4778  0.13327     N
N      0.85418   0.5222  0.63327     N
N      0.85578   0.0881  0.94972     N
N      0.85578   0.9119  0.44972     N
C       0.8587   0.4845   0.5847     C
C       0.8587   0.5155   0.0847     C
H       0.8656   0.0293   0.4019     H
H       0.8656   0.9707   0.9019     H
H       0.8686   0.1959    0.896     H
H       0.8686   0.8041    0.396     H
H       0.8693   0.4065    0.696     H
H       0.8693   0.5935    0.196     H
H       0.8726   0.4796   0.2232     H
H       0.8726   0.5204   0.7232     H
H       0.8734   0.0662   0.4663     H
H       0.8734   0.9338   0.9663     H
H       0.8794   0.4269    0.585     H
H       0.8794   0.5731    0.085     H
C      0.88162   0.0098   0.4455     C
C      0.88162   0.9902   0.9455     C
C        0.882   0.4783    0.697     C
C        0.882   0.5217    0.197     C
C      0.94295   0.0018   0.4739     C
C      0.94295   0.9982   0.9739     C
C       0.9432    0.478   0.7245     C
C       0.9432    0.522   0.2245     C
H       0.9449   0.0551   0.3978     H
H       0.9449   0.9449   0.8978     H
H        0.953   0.3203    0.728     H
H        0.953   0.6797    0.228     H
H       0.9532    0.363   0.2289     H
H       0.9532    0.637   0.7289     H
H       0.9611   0.0541   0.0583     H
H       0.9611   0.9459   0.5583     H
C      0.96695   0.0332    0.439     C
C      0.96695   0.9668    0.939     C
C       0.9718   0.3843    0.737     C
C       0.9718   0.6157    0.237     C
C        0.972    0.427   0.2374     C
C        0.972    0.573   0.7374     C
C      0.97668   0.0319   0.0348     C
C      0.97668   0.9681   0.5348     C
