data_I
_chemical_name_common  '/home/zhangsd/repos/MofS-CGCNN/ML/data/SSD/clean_cifs/ATICEL_clean'
_cell_length_a 10.19560
_cell_length_b 11.83410
_cell_length_c 14.87380
_cell_angle_alpha 90.98140
_cell_angle_beta  90.00000
_cell_angle_gamma 90.00000
_space_group_name_H-M_alt      'P 1'


loop_
_space_group_symop_operation_xyz
  'x, y, z' 

loop_
_atom_site_label
_atom_site_fract_x
_atom_site_fract_y
_atom_site_fract_z
_atom_site_type_symbol
Mn         0.0      0.0      0.0    Mn
Mn         0.0      0.5      0.0    Mn
O       0.0033   0.4646   0.1409     O
O       0.0069    0.628   0.2171     O
C       0.0172   0.5207   0.2101     C
O       0.0247   0.6847   0.0195     O
H        0.041    0.478    0.271     H
O        0.069   0.1926   0.6316     O
O       0.0767   0.8502   0.1956     O
Mn     0.08303   0.2461  0.86988    Mn
C        0.091   0.7429   0.9632     C
O       0.0966   0.8467   0.9622     O
Mn     0.10455  0.73719  0.31418    Mn
H        0.114    0.941    0.452     H
O       0.1233   0.0061   0.1199     O
O       0.1292   0.5998   0.4016     O
C       0.1418   0.9387   0.1818     C
H        0.149    0.697    0.913     H
O       0.1564   0.0958   0.9346     O
C       0.1779   0.1807   0.6684     C
O       0.2032   0.2017   0.7509     O
C       0.2099   0.9238   0.4491     C
O       0.2107   0.4815   0.9922     O
H        0.217     0.48    0.472     H
H        0.221    0.952    0.229     H
C       0.2262   0.5583   0.4383     C
O       0.2381   0.8438   0.3934     O
H        0.243    0.662    0.122     H
H        0.257    0.162    0.622     H
O       0.2619   0.3438   0.8934     O
C       0.2738   0.0583   0.9383     C
H        0.279    0.452    0.729     H
H        0.283     0.98    0.972     H
O       0.2893   0.9815   0.4922     O
C       0.2901   0.4238   0.9491     C
O       0.2968   0.7017   0.2509     O
C       0.3221   0.6807   0.1684     C
O       0.3436   0.5958   0.4346     O
H        0.351    0.197    0.413     H
C       0.3582   0.4387   0.6818     C
O       0.3708   0.0998   0.9016     O
O       0.3767   0.5061   0.6199     O
H        0.386    0.441    0.952     H
Mn     0.39545  0.23719  0.81418    Mn
O       0.4034   0.3467   0.4622     O
C        0.409   0.2429   0.4632     C
Mn     0.41697   0.7461  0.36988    Mn
O       0.4233   0.3502   0.6956     O
O        0.431   0.6926   0.1316     O
H        0.459    0.978    0.771     H
O       0.4753   0.1847   0.5195     O
C       0.4828   0.0207   0.7101     C
O       0.4931    0.128   0.7171     O
O       0.4967   0.9646   0.6409     O
Mn         0.5      0.0      0.5    Mn
Mn         0.5      0.5      0.5    Mn
O       0.5033   0.0354   0.3591     O
O       0.5069    0.872   0.2829     O
C       0.5172   0.9793   0.2899     C
O       0.5247   0.8153   0.4805     O
H        0.541    0.022    0.229     H
O        0.569   0.3074   0.8684     O
O       0.5767   0.6498   0.3044     O
Mn     0.58303   0.2539  0.63012    Mn
C        0.591   0.7571   0.5368     C
O       0.5966   0.6533   0.5378     O
Mn     0.60455  0.76281  0.18582    Mn
H        0.614    0.559    0.048     H
O       0.6233   0.4939   0.3801     O
O       0.6292   0.9002   0.0984     O
C       0.6418   0.5613   0.3182     C
H        0.649    0.803    0.587     H
O       0.6564   0.4042   0.5654     O
C       0.6779   0.3193   0.8316     C
O       0.7032   0.2983   0.7491     O
C       0.7099   0.5762   0.0509     C
O       0.7107   0.0185   0.5078     O
H        0.717     0.02    0.028     H
H        0.721    0.548    0.271     H
C       0.7262   0.9417   0.0617     C
O       0.7381   0.6562   0.1066     O
H        0.743    0.838    0.378     H
H        0.757    0.338    0.878     H
O       0.7619   0.1562   0.6066     O
C       0.7738   0.4417   0.5617     C
H        0.779    0.048    0.771     H
H        0.783     0.52    0.528     H
O       0.7893   0.5185   0.0078     O
C       0.7901   0.0762   0.5509     C
O       0.7968   0.7983   0.2491     O
C       0.8221   0.8193   0.3316     C
O       0.8436   0.9042   0.0654     O
H        0.851    0.303    0.087     H
C       0.8582   0.0613   0.8182     C
O       0.8708   0.4002   0.5984     O
O       0.8767   0.9939   0.8801     O
H        0.886    0.059    0.548     H
Mn     0.89545  0.26281  0.68582    Mn
O       0.9034   0.1533   0.0378     O
C        0.909   0.2571   0.0368     C
Mn     0.91697   0.7539  0.13012    Mn
O       0.9233   0.1498   0.8044     O
O        0.931   0.8074   0.3684     O
H        0.959    0.522    0.729     H
O       0.9753   0.3153   0.9805     O
C       0.9828   0.4793   0.7899     C
O       0.9931    0.372   0.7829     O
O       0.9967   0.5354   0.8591     O
