data_I
_chemical_name_common  '/home/zhangsd/repos/MofS-CGCNN/ML/data/SSD/clean_cifs/ATICAH_clean'
_cell_length_a 10.16170
_cell_length_b 11.65480
_cell_length_c 15.29430
_cell_angle_alpha 91.14950
_cell_angle_beta  90.00000
_cell_angle_gamma 90.00000
_space_group_name_H-M_alt      'P 1'


loop_
_space_group_symop_operation_xyz
  'x, y, z' 

loop_
_atom_site_label
_atom_site_fract_x
_atom_site_fract_y
_atom_site_fract_z
_atom_site_type_symbol
Mn         0.0      0.0      0.0    Mn
Mn         0.0      0.5     -0.0    Mn
O      0.00774  0.62581  0.21628     O
O      0.01977  0.46322  0.13721     O
O      0.02258   0.6866  0.01907     O
C       0.0252  0.51826  0.20696     C
H        0.047    0.473    0.262     H
O      0.05971  0.18458  0.63763     O
Mn     0.07793  0.24477  0.86816    Mn
O      0.08754  0.84658  0.19152     O
C       0.0898  0.74104  0.96244     C
O       0.0962   0.8461  0.95623     O
Mn     0.11043  0.73843  0.30855    Mn
H        0.121   0.9611   0.4291     H
O      0.12904  0.00146  0.11176     O
O      0.12987  0.60172  0.39835     O
H        0.142   0.6924   0.9204     H
C       0.1511  0.93716  0.17336     C
O      0.15603   0.0969  0.93366     O
C       0.1681  0.16856  0.67276     C
O      0.19632  0.19027  0.75264     O
O      0.21043  0.48911  0.98176     O
H        0.212   0.4931   0.4711     H
C       0.2133  0.93404  0.43444     C
H        0.224   0.9553   0.2123     H
C        0.226  0.56068  0.43638     C
O      0.24321   0.8477  0.38532     O
H        0.245   0.1328   0.6368     H
H        0.255   0.6328   0.1368     H
O      0.25679   0.3477  0.88532     O
C        0.274  0.06068  0.93638     C
H        0.276   0.4553   0.7123     H
C       0.2867  0.43404  0.93444     C
H        0.288   0.9931   0.9711     H
O      0.28957  0.98911  0.48176     O
O      0.30368  0.69027  0.25264     O
C       0.3319  0.66856  0.17276     C
O      0.34397   0.5969  0.43366     O
C       0.3489  0.43716  0.67336     C
H        0.358   0.1924   0.4204     H
O      0.37013  0.10172  0.89835     O
O      0.37096  0.50146  0.61176     O
H        0.379   0.4611   0.9291     H
Mn     0.38957  0.23843  0.80855    Mn
O       0.4038   0.3461  0.45623     O
C       0.4102  0.24104  0.46244     C
O      0.41246  0.34658  0.69152     O
Mn     0.42207  0.74477  0.36816    Mn
O      0.44029  0.68458  0.13763     O
H        0.453    0.973    0.762     H
C       0.4748  0.01826  0.70696     C
O      0.47742   0.1866  0.51907     O
O      0.48023  0.96322  0.63721     O
O      0.49226  0.12581  0.71628     O
Mn         0.5      0.0      0.5    Mn
Mn         0.5      0.5      0.5    Mn
O      0.50774  0.87419  0.28372     O
O      0.51977  0.03678  0.36279     O
O      0.52258   0.8134  0.48093     O
C       0.5252  0.98174  0.29304     C
H        0.547    0.027    0.238     H
O      0.55971  0.31542  0.86237     O
Mn     0.57793  0.25523  0.63184    Mn
O      0.58754  0.65342  0.30848     O
C       0.5898  0.75896  0.53756     C
O       0.5962   0.6539  0.54377     O
Mn     0.61043  0.76157  0.19145    Mn
H        0.621   0.5389   0.0709     H
O      0.62904  0.49854  0.38824     O
O      0.62987  0.89828  0.10165     O
H        0.642   0.8076   0.5796     H
C       0.6511  0.56284  0.32664     C
O      0.65603   0.4031  0.56634     O
C       0.6681  0.33144  0.82724     C
O      0.69632  0.30973  0.74736     O
O      0.71043  0.01089  0.51824     O
H        0.712   0.0069   0.0289     H
C       0.7133  0.56596  0.06556     C
H        0.724   0.5447   0.2877     H
C        0.726  0.93932  0.06362     C
O      0.74321   0.6523  0.11468     O
H        0.745   0.3672   0.8632     H
H        0.755   0.8672   0.3632     H
O      0.75679   0.1523  0.61468     O
C        0.774  0.43932  0.56362     C
H        0.776   0.0447   0.7877     H
C       0.7867  0.06596  0.56556     C
H        0.788   0.5069   0.5289     H
O      0.78957  0.51089  0.01824     O
O      0.80368  0.80973  0.24736     O
C       0.8319  0.83144  0.32724     C
O      0.84397   0.9031  0.06634     O
C       0.8489  0.06284  0.82664     C
H        0.858   0.3076   0.0796     H
O      0.87013  0.39828  0.60165     O
O      0.87096  0.99854  0.88824     O
H        0.879   0.0389   0.5709     H
Mn     0.88957  0.26157  0.69145    Mn
O       0.9038   0.1539  0.04377     O
C       0.9102  0.25896  0.03756     C
O      0.91246  0.15342  0.80848     O
Mn     0.92207  0.75523  0.13184    Mn
O      0.94029  0.81542  0.36237     O
H        0.953    0.527    0.738     H
C       0.9748  0.48174  0.79304     C
O      0.97742   0.3134  0.98093     O
O      0.98023  0.53678  0.86279     O
O      0.99226  0.37419  0.78372     O
