data_I
_chemical_name_common  '/home/zhangsd/repos/MofS-CGCNN/ML/data/SSD/clean_cifs/AVILEY_clean'
_cell_length_a 38.32070
_cell_length_b 38.32070
_cell_length_c 38.32070
_cell_angle_alpha 90.00000
_cell_angle_beta  90.00000
_cell_angle_gamma 90.00000
_space_group_name_H-M_alt      'P 1'


loop_
_space_group_symop_operation_xyz
  'x, y, z' 

loop_
_atom_site_label
_atom_site_fract_x
_atom_site_fract_y
_atom_site_fract_z
_atom_site_type_symbol
Cl         0.0   0.1857      0.5    Cl
Ir         0.0     0.25      0.5    Ir
N          0.0   0.2521   0.4478     N
N          0.0   0.2521   0.5522     N
Cl         0.0   0.3143      0.5    Cl
N          0.0   0.4478   0.2521     N
N          0.0   0.4478   0.7479     N
Cl         0.0      0.5   0.1857    Cl
Ir         0.0      0.5     0.25    Ir
Cl         0.0      0.5   0.3143    Cl
Cl         0.0      0.5   0.6857    Cl
Ir         0.0      0.5     0.75    Ir
Cl         0.0      0.5   0.8143    Cl
N          0.0   0.5522   0.2521     N
N          0.0   0.5522   0.7479     N
Cl         0.0   0.6857      0.5    Cl
N          0.0   0.7479   0.4478     N
N          0.0   0.7479   0.5522     N
Ir         0.0     0.75      0.5    Ir
Cl         0.0   0.8143      0.5    Cl
C       0.0186   0.2557   0.3913     C
C       0.0186   0.2557   0.6087     C
C       0.0186   0.3913   0.2557     C
C       0.0186   0.3913   0.7443     C
C       0.0186   0.6087   0.2557     C
C       0.0186   0.6087   0.7443     C
C       0.0186   0.7443   0.3913     C
C       0.0186   0.7443   0.6087     C
C       0.0288   0.2532   0.4276     C
C       0.0288   0.2532   0.5724     C
C       0.0288   0.4276   0.2532     C
C       0.0288   0.4276   0.7468     C
C       0.0288   0.5724   0.2532     C
C       0.0288   0.5724   0.7468     C
C       0.0288   0.7468   0.4276     C
C       0.0288   0.7468   0.5724     C
H       0.0335   0.2571   0.3716     H
H       0.0335   0.2571   0.6284     H
H       0.0335   0.3716   0.2571     H
H       0.0335   0.3716   0.7429     H
H       0.0335   0.6284   0.2571     H
H       0.0335   0.6284   0.7429     H
H       0.0335   0.7429   0.3716     H
H       0.0335   0.7429   0.6284     H
N       0.0522   0.2479      0.5     N
N       0.0522      0.5   0.2479     N
N       0.0522      0.5   0.7521     N
N       0.0522   0.7521      0.5     N
C       0.0627     0.25   0.4373     C
C       0.0627     0.25   0.5627     C
C       0.0627   0.4373     0.25     C
C       0.0627   0.4373     0.75     C
C       0.0627   0.5627     0.25     C
C       0.0627   0.5627     0.75     C
C       0.0627     0.75   0.4373     C
C       0.0627     0.75   0.5627     C
C       0.0724   0.2468   0.4712     C
C       0.0724   0.2468   0.5288     C
C       0.0724   0.4712   0.2468     C
C       0.0724   0.4712   0.7532     C
C       0.0724   0.5288   0.2468     C
C       0.0724   0.5288   0.7532     C
C       0.0724   0.7532   0.4712     C
C       0.0724   0.7532   0.5288     C
H       0.0837   0.2006   0.3955     H
H       0.0837   0.2006   0.6045     H
H       0.0837   0.3955   0.2006     H
H       0.0837   0.3955   0.7994     H
H       0.0837   0.6045   0.2006     H
H       0.0837   0.6045   0.7994     H
H       0.0837   0.7994   0.3955     H
H       0.0837   0.7994   0.6045     H
C       0.0907     0.25   0.4093     C
C       0.0907     0.25   0.5907     C
C       0.0907   0.4093     0.25     C
C       0.0907   0.4093     0.75     C
C       0.0907   0.5907     0.25     C
C       0.0907   0.5907     0.75     C
C       0.0907     0.75   0.4093     C
C       0.0907     0.75   0.5907     C
C       0.0972   0.2209   0.3912     C
C       0.0972   0.2209   0.6088     C
C       0.0972   0.3912   0.2209     C
C       0.0972   0.3912   0.7791     C
C       0.0972   0.6088   0.2209     C
C       0.0972   0.6088   0.7791     C
C       0.0972   0.7791   0.3912     C
C       0.0972   0.7791   0.6088     C
H       0.1045   0.2994   0.4163     H
H       0.1045   0.2994   0.5837     H
H       0.1045   0.4163   0.2994     H
H       0.1045   0.4163   0.7006     H
H       0.1045   0.5837   0.2994     H
H       0.1045   0.5837   0.7006     H
H       0.1045   0.7006   0.4163     H
H       0.1045   0.7006   0.5837     H
C       0.1087   0.2443   0.4814     C
C       0.1087   0.2443   0.5186     C
C       0.1087   0.4814   0.2443     C
C       0.1087   0.4814   0.7557     C
C       0.1087   0.5186   0.2443     C
C       0.1087   0.5186   0.7557     C
C       0.1087   0.7557   0.4814     C
C       0.1087   0.7557   0.5186     C
C       0.1088   0.2791   0.4028     C
C       0.1088   0.2791   0.5972     C
C       0.1088   0.4028   0.2791     C
C       0.1088   0.4028   0.7209     C
C       0.1088   0.5972   0.2791     C
C       0.1088   0.5972   0.7209     C
C       0.1088   0.7209   0.4028     C
C       0.1088   0.7209   0.5972     C
C       0.1236   0.2202   0.3661     C
C       0.1236   0.2202   0.6339     C
C       0.1236   0.3661   0.2202     C
C       0.1236   0.3661   0.7798     C
C       0.1236   0.6339   0.2202     C
C       0.1236   0.6339   0.7798     C
C       0.1236   0.7798   0.3661     C
C       0.1236   0.7798   0.6339     C
H       0.1284   0.2429   0.4665     H
H       0.1284   0.2429   0.5335     H
H       0.1284   0.4665   0.2429     H
H       0.1284   0.4665   0.7571     H
H       0.1284   0.5335   0.2429     H
H       0.1284   0.5335   0.7571     H
H       0.1284   0.7571   0.4665     H
H       0.1284   0.7571   0.5335     H
H       0.1291   0.1991   0.3543     H
H       0.1291   0.1991   0.6457     H
H       0.1291   0.3543   0.1991     H
H       0.1291   0.3543   0.8009     H
H       0.1291   0.6457   0.1991     H
H       0.1291   0.6457   0.8009     H
H       0.1291   0.8009   0.3543     H
H       0.1291   0.8009   0.6457     H
C       0.1339   0.2798   0.3764     C
C       0.1339   0.2798   0.6236     C
C       0.1339   0.3764   0.2798     C
C       0.1339   0.3764   0.7202     C
C       0.1339   0.6236   0.2798     C
C       0.1339   0.6236   0.7202     C
C       0.1339   0.7202   0.3764     C
C       0.1339   0.7202   0.6236     C
C       0.1413     0.25   0.3587     C
C       0.1413     0.25   0.6413     C
C       0.1413   0.3587     0.25     C
C       0.1413   0.3587     0.75     C
C       0.1413   0.6413     0.25     C
C       0.1413   0.6413     0.75     C
C       0.1413     0.75   0.3587     C
C       0.1413     0.75   0.6413     C
H       0.1457   0.3009   0.3709     H
H       0.1457   0.3009   0.6291     H
H       0.1457   0.3709   0.3009     H
H       0.1457   0.3709   0.6991     H
H       0.1457   0.6291   0.3009     H
H       0.1457   0.6291   0.6991     H
H       0.1457   0.6991   0.3709     H
H       0.1457   0.6991   0.6291     H
C       0.1697     0.25   0.3303     C
C       0.1697     0.25   0.6697     C
C       0.1697   0.3303     0.25     C
C       0.1697   0.3303     0.75     C
C       0.1697   0.6697     0.25     C
C       0.1697   0.6697     0.75     C
C       0.1697     0.75   0.3303     C
C       0.1697     0.75   0.6697     C
O       0.1721   0.2224   0.3155     O
O       0.1721   0.2224   0.6845     O
O       0.1721   0.3155   0.2224     O
O       0.1721   0.3155   0.7776     O
O       0.1721   0.6845   0.2224     O
O       0.1721   0.6845   0.7776     O
O       0.1721   0.7776   0.3155     O
O       0.1721   0.7776   0.6845     O
O       0.1845   0.2776   0.3279     O
O       0.1845   0.2776   0.6721     O
O       0.1845   0.3279   0.2776     O
O       0.1845   0.3279   0.7224     O
O       0.1845   0.6721   0.2776     O
O       0.1845   0.6721   0.7224     O
O       0.1845   0.7224   0.3279     O
O       0.1845   0.7224   0.6721     O
Cl      0.1857      0.0      0.5    Cl
Cl      0.1857      0.5      0.0    Cl
O       0.1944   0.2578   0.2578     O
O       0.1944   0.2578   0.7422     O
O       0.1944   0.7422   0.2578     O
O       0.1944   0.7422   0.7422     O
H       0.1991   0.1291   0.3543     H
H       0.1991   0.1291   0.6457     H
H       0.1991   0.3543   0.1291     H
H       0.1991   0.3543   0.8709     H
H       0.1991   0.6457   0.1291     H
H       0.1991   0.6457   0.8709     H
H       0.1991   0.8709   0.3543     H
H       0.1991   0.8709   0.6457     H
H       0.2006   0.0837   0.3955     H
H       0.2006   0.0837   0.6045     H
H       0.2006   0.3955   0.0837     H
H       0.2006   0.3955   0.9163     H
H       0.2006   0.6045   0.0837     H
H       0.2006   0.6045   0.9163     H
H       0.2006   0.9163   0.3955     H
H       0.2006   0.9163   0.6045     H
Hf     0.20721  0.20721  0.27144    Hf
Hf     0.20721  0.20721  0.72856    Hf
Hf     0.20721  0.27144  0.20721    Hf
Hf     0.20721  0.27144  0.79279    Hf
Hf     0.20721  0.72856  0.20721    Hf
Hf     0.20721  0.72856  0.79279    Hf
Hf     0.20721  0.79279  0.27144    Hf
Hf     0.20721  0.79279  0.72856    Hf
O       0.2144   0.2144   0.2144     O
O       0.2144   0.2144   0.7856     O
O       0.2144   0.7856   0.2144     O
O       0.2144   0.7856   0.7856     O
C       0.2202   0.1236   0.3661     C
C       0.2202   0.1236   0.6339     C
C       0.2202   0.3661   0.1236     C
C       0.2202   0.3661   0.8764     C
C       0.2202   0.6339   0.1236     C
C       0.2202   0.6339   0.8764     C
C       0.2202   0.8764   0.3661     C
C       0.2202   0.8764   0.6339     C
C       0.2209   0.0972   0.3912     C
C       0.2209   0.0972   0.6088     C
C       0.2209   0.3912   0.0972     C
C       0.2209   0.3912   0.9028     C
C       0.2209   0.6088   0.0972     C
C       0.2209   0.6088   0.9028     C
C       0.2209   0.9028   0.3912     C
C       0.2209   0.9028   0.6088     C
O       0.2224   0.1721   0.3155     O
O       0.2224   0.1721   0.6845     O
O       0.2224   0.3155   0.1721     O
O       0.2224   0.3155   0.8279     O
O       0.2224   0.6845   0.1721     O
O       0.2224   0.6845   0.8279     O
O       0.2224   0.8279   0.3155     O
O       0.2224   0.8279   0.6845     O
Hf     0.22856  0.29279  0.29279    Hf
Hf     0.22856  0.29279  0.70721    Hf
Hf     0.22856  0.70721  0.29279    Hf
Hf     0.22856  0.70721  0.70721    Hf
O       0.2422   0.2422   0.3056     O
O       0.2422   0.2422   0.6944     O
O       0.2422   0.3056   0.2422     O
O       0.2422   0.3056   0.7578     O
O       0.2422   0.6944   0.2422     O
O       0.2422   0.6944   0.7578     O
O       0.2422   0.7578   0.3056     O
O       0.2422   0.7578   0.6944     O
H       0.2429   0.1284   0.4665     H
H       0.2429   0.1284   0.5335     H
H       0.2429   0.4665   0.1284     H
H       0.2429   0.4665   0.8716     H
H       0.2429   0.5335   0.1284     H
H       0.2429   0.5335   0.8716     H
H       0.2429   0.8716   0.4665     H
H       0.2429   0.8716   0.5335     H
C       0.2443   0.1087   0.4814     C
C       0.2443   0.1087   0.5186     C
C       0.2443   0.4814   0.1087     C
C       0.2443   0.4814   0.8913     C
C       0.2443   0.5186   0.1087     C
C       0.2443   0.5186   0.8913     C
C       0.2443   0.8913   0.4814     C
C       0.2443   0.8913   0.5186     C
C       0.2468   0.0724   0.4712     C
C       0.2468   0.0724   0.5288     C
C       0.2468   0.4712   0.0724     C
C       0.2468   0.4712   0.9276     C
C       0.2468   0.5288   0.0724     C
C       0.2468   0.5288   0.9276     C
C       0.2468   0.9276   0.4712     C
C       0.2468   0.9276   0.5288     C
N       0.2479   0.0522      0.5     N
N       0.2479      0.5   0.0522     N
N       0.2479      0.5   0.9478     N
N       0.2479   0.9478      0.5     N
Ir        0.25      0.0      0.5    Ir
C         0.25   0.0627   0.4373     C
C         0.25   0.0627   0.5627     C
C         0.25   0.0907   0.4093     C
C         0.25   0.0907   0.5907     C
C         0.25   0.1413   0.3587     C
C         0.25   0.1413   0.6413     C
C         0.25   0.1697   0.3303     C
C         0.25   0.1697   0.6697     C
C         0.25   0.3303   0.1697     C
C         0.25   0.3303   0.8303     C
C         0.25   0.3587   0.1413     C
C         0.25   0.3587   0.8587     C
C         0.25   0.4093   0.0907     C
C         0.25   0.4093   0.9093     C
C         0.25   0.4373   0.0627     C
C         0.25   0.4373   0.9373     C
Ir        0.25      0.5      0.0    Ir
C         0.25   0.5627   0.0627     C
C         0.25   0.5627   0.9373     C
C         0.25   0.5907   0.0907     C
C         0.25   0.5907   0.9093     C
C         0.25   0.6413   0.1413     C
C         0.25   0.6413   0.8587     C
C         0.25   0.6697   0.1697     C
C         0.25   0.6697   0.8303     C
C         0.25   0.8303   0.3303     C
C         0.25   0.8303   0.6697     C
C         0.25   0.8587   0.3587     C
C         0.25   0.8587   0.6413     C
C         0.25   0.9093   0.4093     C
C         0.25   0.9093   0.5907     C
C         0.25   0.9373   0.4373     C
C         0.25   0.9373   0.5627     C
N       0.2521      0.0   0.4478     N
N       0.2521      0.0   0.5522     N
N       0.2521   0.4478      0.0     N
N       0.2521   0.5522      0.0     N
C       0.2532   0.0288   0.4276     C
C       0.2532   0.0288   0.5724     C
C       0.2532   0.4276   0.0288     C
C       0.2532   0.4276   0.9712     C
C       0.2532   0.5724   0.0288     C
C       0.2532   0.5724   0.9712     C
C       0.2532   0.9712   0.4276     C
C       0.2532   0.9712   0.5724     C
C       0.2557   0.0186   0.3913     C
C       0.2557   0.0186   0.6087     C
C       0.2557   0.3913   0.0186     C
C       0.2557   0.3913   0.9814     C
C       0.2557   0.6087   0.0186     C
C       0.2557   0.6087   0.9814     C
C       0.2557   0.9814   0.3913     C
C       0.2557   0.9814   0.6087     C
H       0.2571   0.0335   0.3716     H
H       0.2571   0.0335   0.6284     H
H       0.2571   0.3716   0.0335     H
H       0.2571   0.3716   0.9665     H
H       0.2571   0.6284   0.0335     H
H       0.2571   0.6284   0.9665     H
H       0.2571   0.9665   0.3716     H
H       0.2571   0.9665   0.6284     H
O       0.2578   0.1944   0.2578     O
O       0.2578   0.1944   0.7422     O
O       0.2578   0.2578   0.1944     O
O       0.2578   0.2578   0.8056     O
O       0.2578   0.7422   0.1944     O
O       0.2578   0.7422   0.8056     O
O       0.2578   0.8056   0.2578     O
O       0.2578   0.8056   0.7422     O
Hf     0.27144  0.20721  0.20721    Hf
Hf     0.27144  0.20721  0.79279    Hf
Hf     0.27144  0.79279  0.20721    Hf
Hf     0.27144  0.79279  0.79279    Hf
O       0.2776   0.1845   0.3279     O
O       0.2776   0.1845   0.6721     O
O       0.2776   0.3279   0.1845     O
O       0.2776   0.3279   0.8155     O
O       0.2776   0.6721   0.1845     O
O       0.2776   0.6721   0.8155     O
O       0.2776   0.8155   0.3279     O
O       0.2776   0.8155   0.6721     O
C       0.2791   0.1088   0.4028     C
C       0.2791   0.1088   0.5972     C
C       0.2791   0.4028   0.1088     C
C       0.2791   0.4028   0.8912     C
C       0.2791   0.5972   0.1088     C
C       0.2791   0.5972   0.8912     C
C       0.2791   0.8912   0.4028     C
C       0.2791   0.8912   0.5972     C
C       0.2798   0.1339   0.3764     C
C       0.2798   0.1339   0.6236     C
C       0.2798   0.3764   0.1339     C
C       0.2798   0.3764   0.8661     C
C       0.2798   0.6236   0.1339     C
C       0.2798   0.6236   0.8661     C
C       0.2798   0.8661   0.3764     C
C       0.2798   0.8661   0.6236     C
O       0.2856   0.2856   0.2856     O
O       0.2856   0.2856   0.7144     O
O       0.2856   0.7144   0.2856     O
O       0.2856   0.7144   0.7144     O
Hf     0.29279  0.22856  0.29279    Hf
Hf     0.29279  0.22856  0.70721    Hf
Hf     0.29279  0.29279  0.22856    Hf
Hf     0.29279  0.29279  0.77144    Hf
Hf     0.29279  0.70721  0.22856    Hf
Hf     0.29279  0.70721  0.77144    Hf
Hf     0.29279  0.77144  0.29279    Hf
Hf     0.29279  0.77144  0.70721    Hf
H       0.2994   0.1045   0.4163     H
H       0.2994   0.1045   0.5837     H
H       0.2994   0.4163   0.1045     H
H       0.2994   0.4163   0.8955     H
H       0.2994   0.5837   0.1045     H
H       0.2994   0.5837   0.8955     H
H       0.2994   0.8955   0.4163     H
H       0.2994   0.8955   0.5837     H
H       0.3009   0.1457   0.3709     H
H       0.3009   0.1457   0.6291     H
H       0.3009   0.3709   0.1457     H
H       0.3009   0.3709   0.8543     H
H       0.3009   0.6291   0.1457     H
H       0.3009   0.6291   0.8543     H
H       0.3009   0.8543   0.3709     H
H       0.3009   0.8543   0.6291     H
O       0.3056   0.2422   0.2422     O
O       0.3056   0.2422   0.7578     O
O       0.3056   0.7578   0.2422     O
O       0.3056   0.7578   0.7578     O
Cl      0.3143      0.0      0.5    Cl
Cl      0.3143      0.5      0.0    Cl
O       0.3155   0.1721   0.2224     O
O       0.3155   0.1721   0.7776     O
O       0.3155   0.2224   0.1721     O
O       0.3155   0.2224   0.8279     O
O       0.3155   0.7776   0.1721     O
O       0.3155   0.7776   0.8279     O
O       0.3155   0.8279   0.2224     O
O       0.3155   0.8279   0.7776     O
O       0.3279   0.1845   0.2776     O
O       0.3279   0.1845   0.7224     O
O       0.3279   0.2776   0.1845     O
O       0.3279   0.2776   0.8155     O
O       0.3279   0.7224   0.1845     O
O       0.3279   0.7224   0.8155     O
O       0.3279   0.8155   0.2776     O
O       0.3279   0.8155   0.7224     O
C       0.3303   0.1697     0.25     C
C       0.3303   0.1697     0.75     C
C       0.3303     0.25   0.1697     C
C       0.3303     0.25   0.8303     C
C       0.3303     0.75   0.1697     C
C       0.3303     0.75   0.8303     C
C       0.3303   0.8303     0.25     C
C       0.3303   0.8303     0.75     C
H       0.3543   0.1291   0.1991     H
H       0.3543   0.1291   0.8009     H
H       0.3543   0.1991   0.1291     H
H       0.3543   0.1991   0.8709     H
H       0.3543   0.8009   0.1291     H
H       0.3543   0.8009   0.8709     H
H       0.3543   0.8709   0.1991     H
H       0.3543   0.8709   0.8009     H
C       0.3587   0.1413     0.25     C
C       0.3587   0.1413     0.75     C
C       0.3587     0.25   0.1413     C
C       0.3587     0.25   0.8587     C
C       0.3587     0.75   0.1413     C
C       0.3587     0.75   0.8587     C
C       0.3587   0.8587     0.25     C
C       0.3587   0.8587     0.75     C
C       0.3661   0.1236   0.2202     C
C       0.3661   0.1236   0.7798     C
C       0.3661   0.2202   0.1236     C
C       0.3661   0.2202   0.8764     C
C       0.3661   0.7798   0.1236     C
C       0.3661   0.7798   0.8764     C
C       0.3661   0.8764   0.2202     C
C       0.3661   0.8764   0.7798     C
H       0.3709   0.1457   0.3009     H
H       0.3709   0.1457   0.6991     H
H       0.3709   0.3009   0.1457     H
H       0.3709   0.3009   0.8543     H
H       0.3709   0.6991   0.1457     H
H       0.3709   0.6991   0.8543     H
H       0.3709   0.8543   0.3009     H
H       0.3709   0.8543   0.6991     H
H       0.3716   0.0335   0.2571     H
H       0.3716   0.0335   0.7429     H
H       0.3716   0.2571   0.0335     H
H       0.3716   0.2571   0.9665     H
H       0.3716   0.7429   0.0335     H
H       0.3716   0.7429   0.9665     H
H       0.3716   0.9665   0.2571     H
H       0.3716   0.9665   0.7429     H
C       0.3764   0.1339   0.2798     C
C       0.3764   0.1339   0.7202     C
C       0.3764   0.2798   0.1339     C
C       0.3764   0.2798   0.8661     C
C       0.3764   0.7202   0.1339     C
C       0.3764   0.7202   0.8661     C
C       0.3764   0.8661   0.2798     C
C       0.3764   0.8661   0.7202     C
C       0.3912   0.0972   0.2209     C
C       0.3912   0.0972   0.7791     C
C       0.3912   0.2209   0.0972     C
C       0.3912   0.2209   0.9028     C
C       0.3912   0.7791   0.0972     C
C       0.3912   0.7791   0.9028     C
C       0.3912   0.9028   0.2209     C
C       0.3912   0.9028   0.7791     C
C       0.3913   0.0186   0.2557     C
C       0.3913   0.0186   0.7443     C
C       0.3913   0.2557   0.0186     C
C       0.3913   0.2557   0.9814     C
C       0.3913   0.7443   0.0186     C
C       0.3913   0.7443   0.9814     C
C       0.3913   0.9814   0.2557     C
C       0.3913   0.9814   0.7443     C
H       0.3955   0.0837   0.2006     H
H       0.3955   0.0837   0.7994     H
H       0.3955   0.2006   0.0837     H
H       0.3955   0.2006   0.9163     H
H       0.3955   0.7994   0.0837     H
H       0.3955   0.7994   0.9163     H
H       0.3955   0.9163   0.2006     H
H       0.3955   0.9163   0.7994     H
C       0.4028   0.1088   0.2791     C
C       0.4028   0.1088   0.7209     C
C       0.4028   0.2791   0.1088     C
C       0.4028   0.2791   0.8912     C
C       0.4028   0.7209   0.1088     C
C       0.4028   0.7209   0.8912     C
C       0.4028   0.8912   0.2791     C
C       0.4028   0.8912   0.7209     C
C       0.4093   0.0907     0.25     C
C       0.4093   0.0907     0.75     C
C       0.4093     0.25   0.0907     C
C       0.4093     0.25   0.9093     C
C       0.4093     0.75   0.0907     C
C       0.4093     0.75   0.9093     C
C       0.4093   0.9093     0.25     C
C       0.4093   0.9093     0.75     C
H       0.4163   0.1045   0.2994     H
H       0.4163   0.1045   0.7006     H
H       0.4163   0.2994   0.1045     H
H       0.4163   0.2994   0.8955     H
H       0.4163   0.7006   0.1045     H
H       0.4163   0.7006   0.8955     H
H       0.4163   0.8955   0.2994     H
H       0.4163   0.8955   0.7006     H
C       0.4276   0.0288   0.2532     C
C       0.4276   0.0288   0.7468     C
C       0.4276   0.2532   0.0288     C
C       0.4276   0.2532   0.9712     C
C       0.4276   0.7468   0.0288     C
C       0.4276   0.7468   0.9712     C
C       0.4276   0.9712   0.2532     C
C       0.4276   0.9712   0.7468     C
C       0.4373   0.0627     0.25     C
C       0.4373   0.0627     0.75     C
C       0.4373     0.25   0.0627     C
C       0.4373     0.25   0.9373     C
C       0.4373     0.75   0.0627     C
C       0.4373     0.75   0.9373     C
C       0.4373   0.9373     0.25     C
C       0.4373   0.9373     0.75     C
N       0.4478      0.0   0.2521     N
N       0.4478      0.0   0.7479     N
N       0.4478   0.2521      0.0     N
N       0.4478   0.7479      0.0     N
H       0.4665   0.1284   0.2429     H
H       0.4665   0.1284   0.7571     H
H       0.4665   0.2429   0.1284     H
H       0.4665   0.2429   0.8716     H
H       0.4665   0.7571   0.1284     H
H       0.4665   0.7571   0.8716     H
H       0.4665   0.8716   0.2429     H
H       0.4665   0.8716   0.7571     H
C       0.4712   0.0724   0.2468     C
C       0.4712   0.0724   0.7532     C
C       0.4712   0.2468   0.0724     C
C       0.4712   0.2468   0.9276     C
C       0.4712   0.7532   0.0724     C
C       0.4712   0.7532   0.9276     C
C       0.4712   0.9276   0.2468     C
C       0.4712   0.9276   0.7532     C
C       0.4814   0.1087   0.2443     C
C       0.4814   0.1087   0.7557     C
C       0.4814   0.2443   0.1087     C
C       0.4814   0.2443   0.8913     C
C       0.4814   0.7557   0.1087     C
C       0.4814   0.7557   0.8913     C
C       0.4814   0.8913   0.2443     C
C       0.4814   0.8913   0.7557     C
Cl         0.5      0.0   0.1857    Cl
Ir         0.5      0.0     0.25    Ir
Cl         0.5      0.0   0.3143    Cl
Cl         0.5      0.0   0.6857    Cl
Ir         0.5      0.0     0.75    Ir
Cl         0.5      0.0   0.8143    Cl
N          0.5   0.0522   0.2479     N
N          0.5   0.0522   0.7521     N
Cl         0.5   0.1857      0.0    Cl
N          0.5   0.2479   0.0522     N
N          0.5   0.2479   0.9478     N
Ir         0.5     0.25      0.0    Ir
Cl         0.5   0.3143      0.0    Cl
Cl         0.5   0.6857      0.0    Cl
Ir         0.5     0.75      0.0    Ir
N          0.5   0.7521   0.0522     N
N          0.5   0.7521   0.9478     N
Cl         0.5   0.8143      0.0    Cl
N          0.5   0.9478   0.2479     N
N          0.5   0.9478   0.7521     N
C       0.5186   0.1087   0.2443     C
C       0.5186   0.1087   0.7557     C
C       0.5186   0.2443   0.1087     C
C       0.5186   0.2443   0.8913     C
C       0.5186   0.7557   0.1087     C
C       0.5186   0.7557   0.8913     C
C       0.5186   0.8913   0.2443     C
C       0.5186   0.8913   0.7557     C
C       0.5288   0.0724   0.2468     C
C       0.5288   0.0724   0.7532     C
C       0.5288   0.2468   0.0724     C
C       0.5288   0.2468   0.9276     C
C       0.5288   0.7532   0.0724     C
C       0.5288   0.7532   0.9276     C
C       0.5288   0.9276   0.2468     C
C       0.5288   0.9276   0.7532     C
H       0.5335   0.1284   0.2429     H
H       0.5335   0.1284   0.7571     H
H       0.5335   0.2429   0.1284     H
H       0.5335   0.2429   0.8716     H
H       0.5335   0.7571   0.1284     H
H       0.5335   0.7571   0.8716     H
H       0.5335   0.8716   0.2429     H
H       0.5335   0.8716   0.7571     H
N       0.5522      0.0   0.2521     N
N       0.5522      0.0   0.7479     N
N       0.5522   0.2521      0.0     N
N       0.5522   0.7479      0.0     N
C       0.5627   0.0627     0.25     C
C       0.5627   0.0627     0.75     C
C       0.5627     0.25   0.0627     C
C       0.5627     0.25   0.9373     C
C       0.5627     0.75   0.0627     C
C       0.5627     0.75   0.9373     C
C       0.5627   0.9373     0.25     C
C       0.5627   0.9373     0.75     C
C       0.5724   0.0288   0.2532     C
C       0.5724   0.0288   0.7468     C
C       0.5724   0.2532   0.0288     C
C       0.5724   0.2532   0.9712     C
C       0.5724   0.7468   0.0288     C
C       0.5724   0.7468   0.9712     C
C       0.5724   0.9712   0.2532     C
C       0.5724   0.9712   0.7468     C
H       0.5837   0.1045   0.2994     H
H       0.5837   0.1045   0.7006     H
H       0.5837   0.2994   0.1045     H
H       0.5837   0.2994   0.8955     H
H       0.5837   0.7006   0.1045     H
H       0.5837   0.7006   0.8955     H
H       0.5837   0.8955   0.2994     H
H       0.5837   0.8955   0.7006     H
C       0.5907   0.0907     0.25     C
C       0.5907   0.0907     0.75     C
C       0.5907     0.25   0.0907     C
C       0.5907     0.25   0.9093     C
C       0.5907     0.75   0.0907     C
C       0.5907     0.75   0.9093     C
C       0.5907   0.9093     0.25     C
C       0.5907   0.9093     0.75     C
C       0.5972   0.1088   0.2791     C
C       0.5972   0.1088   0.7209     C
C       0.5972   0.2791   0.1088     C
C       0.5972   0.2791   0.8912     C
C       0.5972   0.7209   0.1088     C
C       0.5972   0.7209   0.8912     C
C       0.5972   0.8912   0.2791     C
C       0.5972   0.8912   0.7209     C
H       0.6045   0.0837   0.2006     H
H       0.6045   0.0837   0.7994     H
H       0.6045   0.2006   0.0837     H
H       0.6045   0.2006   0.9163     H
H       0.6045   0.7994   0.0837     H
H       0.6045   0.7994   0.9163     H
H       0.6045   0.9163   0.2006     H
H       0.6045   0.9163   0.7994     H
C       0.6087   0.0186   0.2557     C
C       0.6087   0.0186   0.7443     C
C       0.6087   0.2557   0.0186     C
C       0.6087   0.2557   0.9814     C
C       0.6087   0.7443   0.0186     C
C       0.6087   0.7443   0.9814     C
C       0.6087   0.9814   0.2557     C
C       0.6087   0.9814   0.7443     C
C       0.6088   0.0972   0.2209     C
C       0.6088   0.0972   0.7791     C
C       0.6088   0.2209   0.0972     C
C       0.6088   0.2209   0.9028     C
C       0.6088   0.7791   0.0972     C
C       0.6088   0.7791   0.9028     C
C       0.6088   0.9028   0.2209     C
C       0.6088   0.9028   0.7791     C
C       0.6236   0.1339   0.2798     C
C       0.6236   0.1339   0.7202     C
C       0.6236   0.2798   0.1339     C
C       0.6236   0.2798   0.8661     C
C       0.6236   0.7202   0.1339     C
C       0.6236   0.7202   0.8661     C
C       0.6236   0.8661   0.2798     C
C       0.6236   0.8661   0.7202     C
H       0.6284   0.0335   0.2571     H
H       0.6284   0.0335   0.7429     H
H       0.6284   0.2571   0.0335     H
H       0.6284   0.2571   0.9665     H
H       0.6284   0.7429   0.0335     H
H       0.6284   0.7429   0.9665     H
H       0.6284   0.9665   0.2571     H
H       0.6284   0.9665   0.7429     H
H       0.6291   0.1457   0.3009     H
H       0.6291   0.1457   0.6991     H
H       0.6291   0.3009   0.1457     H
H       0.6291   0.3009   0.8543     H
H       0.6291   0.6991   0.1457     H
H       0.6291   0.6991   0.8543     H
H       0.6291   0.8543   0.3009     H
H       0.6291   0.8543   0.6991     H
C       0.6339   0.1236   0.2202     C
C       0.6339   0.1236   0.7798     C
C       0.6339   0.2202   0.1236     C
C       0.6339   0.2202   0.8764     C
C       0.6339   0.7798   0.1236     C
C       0.6339   0.7798   0.8764     C
C       0.6339   0.8764   0.2202     C
C       0.6339   0.8764   0.7798     C
C       0.6413   0.1413     0.25     C
C       0.6413   0.1413     0.75     C
C       0.6413     0.25   0.1413     C
C       0.6413     0.25   0.8587     C
C       0.6413     0.75   0.1413     C
C       0.6413     0.75   0.8587     C
C       0.6413   0.8587     0.25     C
C       0.6413   0.8587     0.75     C
H       0.6457   0.1291   0.1991     H
H       0.6457   0.1291   0.8009     H
H       0.6457   0.1991   0.1291     H
H       0.6457   0.1991   0.8709     H
H       0.6457   0.8009   0.1291     H
H       0.6457   0.8009   0.8709     H
H       0.6457   0.8709   0.1991     H
H       0.6457   0.8709   0.8009     H
C       0.6697   0.1697     0.25     C
C       0.6697   0.1697     0.75     C
C       0.6697     0.25   0.1697     C
C       0.6697     0.25   0.8303     C
C       0.6697     0.75   0.1697     C
C       0.6697     0.75   0.8303     C
C       0.6697   0.8303     0.25     C
C       0.6697   0.8303     0.75     C
O       0.6721   0.1845   0.2776     O
O       0.6721   0.1845   0.7224     O
O       0.6721   0.2776   0.1845     O
O       0.6721   0.2776   0.8155     O
O       0.6721   0.7224   0.1845     O
O       0.6721   0.7224   0.8155     O
O       0.6721   0.8155   0.2776     O
O       0.6721   0.8155   0.7224     O
O       0.6845   0.1721   0.2224     O
O       0.6845   0.1721   0.7776     O
O       0.6845   0.2224   0.1721     O
O       0.6845   0.2224   0.8279     O
O       0.6845   0.7776   0.1721     O
O       0.6845   0.7776   0.8279     O
O       0.6845   0.8279   0.2224     O
O       0.6845   0.8279   0.7776     O
Cl      0.6857      0.0      0.5    Cl
Cl      0.6857      0.5      0.0    Cl
O       0.6944   0.2422   0.2422     O
O       0.6944   0.2422   0.7578     O
O       0.6944   0.7578   0.2422     O
O       0.6944   0.7578   0.7578     O
H       0.6991   0.1457   0.3709     H
H       0.6991   0.1457   0.6291     H
H       0.6991   0.3709   0.1457     H
H       0.6991   0.3709   0.8543     H
H       0.6991   0.6291   0.1457     H
H       0.6991   0.6291   0.8543     H
H       0.6991   0.8543   0.3709     H
H       0.6991   0.8543   0.6291     H
H       0.7006   0.1045   0.4163     H
H       0.7006   0.1045   0.5837     H
H       0.7006   0.4163   0.1045     H
H       0.7006   0.4163   0.8955     H
H       0.7006   0.5837   0.1045     H
H       0.7006   0.5837   0.8955     H
H       0.7006   0.8955   0.4163     H
H       0.7006   0.8955   0.5837     H
Hf     0.70721  0.22856  0.29279    Hf
Hf     0.70721  0.22856  0.70721    Hf
Hf     0.70721  0.29279  0.22856    Hf
Hf     0.70721  0.29279  0.77144    Hf
Hf     0.70721  0.70721  0.22856    Hf
Hf     0.70721  0.70721  0.77144    Hf
Hf     0.70721  0.77144  0.29279    Hf
Hf     0.70721  0.77144  0.70721    Hf
O       0.7144   0.2856   0.2856     O
O       0.7144   0.2856   0.7144     O
O       0.7144   0.7144   0.2856     O
O       0.7144   0.7144   0.7144     O
C       0.7202   0.1339   0.3764     C
C       0.7202   0.1339   0.6236     C
C       0.7202   0.3764   0.1339     C
C       0.7202   0.3764   0.8661     C
C       0.7202   0.6236   0.1339     C
C       0.7202   0.6236   0.8661     C
C       0.7202   0.8661   0.3764     C
C       0.7202   0.8661   0.6236     C
C       0.7209   0.1088   0.4028     C
C       0.7209   0.1088   0.5972     C
C       0.7209   0.4028   0.1088     C
C       0.7209   0.4028   0.8912     C
C       0.7209   0.5972   0.1088     C
C       0.7209   0.5972   0.8912     C
C       0.7209   0.8912   0.4028     C
C       0.7209   0.8912   0.5972     C
O       0.7224   0.1845   0.3279     O
O       0.7224   0.1845   0.6721     O
O       0.7224   0.3279   0.1845     O
O       0.7224   0.3279   0.8155     O
O       0.7224   0.6721   0.1845     O
O       0.7224   0.6721   0.8155     O
O       0.7224   0.8155   0.3279     O
O       0.7224   0.8155   0.6721     O
Hf     0.72856  0.20721  0.20721    Hf
Hf     0.72856  0.20721  0.79279    Hf
Hf     0.72856  0.79279  0.20721    Hf
Hf     0.72856  0.79279  0.79279    Hf
O       0.7422   0.1944   0.2578     O
O       0.7422   0.1944   0.7422     O
O       0.7422   0.2578   0.1944     O
O       0.7422   0.2578   0.8056     O
O       0.7422   0.7422   0.1944     O
O       0.7422   0.7422   0.8056     O
O       0.7422   0.8056   0.2578     O
O       0.7422   0.8056   0.7422     O
H       0.7429   0.0335   0.3716     H
H       0.7429   0.0335   0.6284     H
H       0.7429   0.3716   0.0335     H
H       0.7429   0.3716   0.9665     H
H       0.7429   0.6284   0.0335     H
H       0.7429   0.6284   0.9665     H
H       0.7429   0.9665   0.3716     H
H       0.7429   0.9665   0.6284     H
C       0.7443   0.0186   0.3913     C
C       0.7443   0.0186   0.6087     C
C       0.7443   0.3913   0.0186     C
C       0.7443   0.3913   0.9814     C
C       0.7443   0.6087   0.0186     C
C       0.7443   0.6087   0.9814     C
C       0.7443   0.9814   0.3913     C
C       0.7443   0.9814   0.6087     C
C       0.7468   0.0288   0.4276     C
C       0.7468   0.0288   0.5724     C
C       0.7468   0.4276   0.0288     C
C       0.7468   0.4276   0.9712     C
C       0.7468   0.5724   0.0288     C
C       0.7468   0.5724   0.9712     C
C       0.7468   0.9712   0.4276     C
C       0.7468   0.9712   0.5724     C
N       0.7479      0.0   0.4478     N
N       0.7479      0.0   0.5522     N
N       0.7479   0.4478      0.0     N
N       0.7479   0.5522      0.0     N
Ir        0.75      0.0      0.5    Ir
C         0.75   0.0627   0.4373     C
C         0.75   0.0627   0.5627     C
C         0.75   0.0907   0.4093     C
C         0.75   0.0907   0.5907     C
C         0.75   0.1413   0.3587     C
C         0.75   0.1413   0.6413     C
C         0.75   0.1697   0.3303     C
C         0.75   0.1697   0.6697     C
C         0.75   0.3303   0.1697     C
C         0.75   0.3303   0.8303     C
C         0.75   0.3587   0.1413     C
C         0.75   0.3587   0.8587     C
C         0.75   0.4093   0.0907     C
C         0.75   0.4093   0.9093     C
C         0.75   0.4373   0.0627     C
C         0.75   0.4373   0.9373     C
Ir        0.75      0.5      0.0    Ir
C         0.75   0.5627   0.0627     C
C         0.75   0.5627   0.9373     C
C         0.75   0.5907   0.0907     C
C         0.75   0.5907   0.9093     C
C         0.75   0.6413   0.1413     C
C         0.75   0.6413   0.8587     C
C         0.75   0.6697   0.1697     C
C         0.75   0.6697   0.8303     C
C         0.75   0.8303   0.3303     C
C         0.75   0.8303   0.6697     C
C         0.75   0.8587   0.3587     C
C         0.75   0.8587   0.6413     C
C         0.75   0.9093   0.4093     C
C         0.75   0.9093   0.5907     C
C         0.75   0.9373   0.4373     C
C         0.75   0.9373   0.5627     C
N       0.7521   0.0522      0.5     N
N       0.7521      0.5   0.0522     N
N       0.7521      0.5   0.9478     N
N       0.7521   0.9478      0.5     N
C       0.7532   0.0724   0.4712     C
C       0.7532   0.0724   0.5288     C
C       0.7532   0.4712   0.0724     C
C       0.7532   0.4712   0.9276     C
C       0.7532   0.5288   0.0724     C
C       0.7532   0.5288   0.9276     C
C       0.7532   0.9276   0.4712     C
C       0.7532   0.9276   0.5288     C
C       0.7557   0.1087   0.4814     C
C       0.7557   0.1087   0.5186     C
C       0.7557   0.4814   0.1087     C
C       0.7557   0.4814   0.8913     C
C       0.7557   0.5186   0.1087     C
C       0.7557   0.5186   0.8913     C
C       0.7557   0.8913   0.4814     C
C       0.7557   0.8913   0.5186     C
H       0.7571   0.1284   0.4665     H
H       0.7571   0.1284   0.5335     H
H       0.7571   0.4665   0.1284     H
H       0.7571   0.4665   0.8716     H
H       0.7571   0.5335   0.1284     H
H       0.7571   0.5335   0.8716     H
H       0.7571   0.8716   0.4665     H
H       0.7571   0.8716   0.5335     H
O       0.7578   0.2422   0.3056     O
O       0.7578   0.2422   0.6944     O
O       0.7578   0.3056   0.2422     O
O       0.7578   0.3056   0.7578     O
O       0.7578   0.6944   0.2422     O
O       0.7578   0.6944   0.7578     O
O       0.7578   0.7578   0.3056     O
O       0.7578   0.7578   0.6944     O
Hf     0.77144  0.29279  0.29279    Hf
Hf     0.77144  0.29279  0.70721    Hf
Hf     0.77144  0.70721  0.29279    Hf
Hf     0.77144  0.70721  0.70721    Hf
O       0.7776   0.1721   0.3155     O
O       0.7776   0.1721   0.6845     O
O       0.7776   0.3155   0.1721     O
O       0.7776   0.3155   0.8279     O
O       0.7776   0.6845   0.1721     O
O       0.7776   0.6845   0.8279     O
O       0.7776   0.8279   0.3155     O
O       0.7776   0.8279   0.6845     O
C       0.7791   0.0972   0.3912     C
C       0.7791   0.0972   0.6088     C
C       0.7791   0.3912   0.0972     C
C       0.7791   0.3912   0.9028     C
C       0.7791   0.6088   0.0972     C
C       0.7791   0.6088   0.9028     C
C       0.7791   0.9028   0.3912     C
C       0.7791   0.9028   0.6088     C
C       0.7798   0.1236   0.3661     C
C       0.7798   0.1236   0.6339     C
C       0.7798   0.3661   0.1236     C
C       0.7798   0.3661   0.8764     C
C       0.7798   0.6339   0.1236     C
C       0.7798   0.6339   0.8764     C
C       0.7798   0.8764   0.3661     C
C       0.7798   0.8764   0.6339     C
O       0.7856   0.2144   0.2144     O
O       0.7856   0.2144   0.7856     O
O       0.7856   0.7856   0.2144     O
O       0.7856   0.7856   0.7856     O
Hf     0.79279  0.20721  0.27144    Hf
Hf     0.79279  0.20721  0.72856    Hf
Hf     0.79279  0.27144  0.20721    Hf
Hf     0.79279  0.27144  0.79279    Hf
Hf     0.79279  0.72856  0.20721    Hf
Hf     0.79279  0.72856  0.79279    Hf
Hf     0.79279  0.79279  0.27144    Hf
Hf     0.79279  0.79279  0.72856    Hf
H       0.7994   0.0837   0.3955     H
H       0.7994   0.0837   0.6045     H
H       0.7994   0.3955   0.0837     H
H       0.7994   0.3955   0.9163     H
H       0.7994   0.6045   0.0837     H
H       0.7994   0.6045   0.9163     H
H       0.7994   0.9163   0.3955     H
H       0.7994   0.9163   0.6045     H
H       0.8009   0.1291   0.3543     H
H       0.8009   0.1291   0.6457     H
H       0.8009   0.3543   0.1291     H
H       0.8009   0.3543   0.8709     H
H       0.8009   0.6457   0.1291     H
H       0.8009   0.6457   0.8709     H
H       0.8009   0.8709   0.3543     H
H       0.8009   0.8709   0.6457     H
O       0.8056   0.2578   0.2578     O
O       0.8056   0.2578   0.7422     O
O       0.8056   0.7422   0.2578     O
O       0.8056   0.7422   0.7422     O
Cl      0.8143      0.0      0.5    Cl
Cl      0.8143      0.5      0.0    Cl
O       0.8155   0.2776   0.3279     O
O       0.8155   0.2776   0.6721     O
O       0.8155   0.3279   0.2776     O
O       0.8155   0.3279   0.7224     O
O       0.8155   0.6721   0.2776     O
O       0.8155   0.6721   0.7224     O
O       0.8155   0.7224   0.3279     O
O       0.8155   0.7224   0.6721     O
O       0.8279   0.2224   0.3155     O
O       0.8279   0.2224   0.6845     O
O       0.8279   0.3155   0.2224     O
O       0.8279   0.3155   0.7776     O
O       0.8279   0.6845   0.2224     O
O       0.8279   0.6845   0.7776     O
O       0.8279   0.7776   0.3155     O
O       0.8279   0.7776   0.6845     O
C       0.8303     0.25   0.3303     C
C       0.8303     0.25   0.6697     C
C       0.8303   0.3303     0.25     C
C       0.8303   0.3303     0.75     C
C       0.8303   0.6697     0.25     C
C       0.8303   0.6697     0.75     C
C       0.8303     0.75   0.3303     C
C       0.8303     0.75   0.6697     C
H       0.8543   0.3009   0.3709     H
H       0.8543   0.3009   0.6291     H
H       0.8543   0.3709   0.3009     H
H       0.8543   0.3709   0.6991     H
H       0.8543   0.6291   0.3009     H
H       0.8543   0.6291   0.6991     H
H       0.8543   0.6991   0.3709     H
H       0.8543   0.6991   0.6291     H
C       0.8587     0.25   0.3587     C
C       0.8587     0.25   0.6413     C
C       0.8587   0.3587     0.25     C
C       0.8587   0.3587     0.75     C
C       0.8587   0.6413     0.25     C
C       0.8587   0.6413     0.75     C
C       0.8587     0.75   0.3587     C
C       0.8587     0.75   0.6413     C
C       0.8661   0.2798   0.3764     C
C       0.8661   0.2798   0.6236     C
C       0.8661   0.3764   0.2798     C
C       0.8661   0.3764   0.7202     C
C       0.8661   0.6236   0.2798     C
C       0.8661   0.6236   0.7202     C
C       0.8661   0.7202   0.3764     C
C       0.8661   0.7202   0.6236     C
H       0.8709   0.1991   0.3543     H
H       0.8709   0.1991   0.6457     H
H       0.8709   0.3543   0.1991     H
H       0.8709   0.3543   0.8009     H
H       0.8709   0.6457   0.1991     H
H       0.8709   0.6457   0.8009     H
H       0.8709   0.8009   0.3543     H
H       0.8709   0.8009   0.6457     H
H       0.8716   0.2429   0.4665     H
H       0.8716   0.2429   0.5335     H
H       0.8716   0.4665   0.2429     H
H       0.8716   0.4665   0.7571     H
H       0.8716   0.5335   0.2429     H
H       0.8716   0.5335   0.7571     H
H       0.8716   0.7571   0.4665     H
H       0.8716   0.7571   0.5335     H
C       0.8764   0.2202   0.3661     C
C       0.8764   0.2202   0.6339     C
C       0.8764   0.3661   0.2202     C
C       0.8764   0.3661   0.7798     C
C       0.8764   0.6339   0.2202     C
C       0.8764   0.6339   0.7798     C
C       0.8764   0.7798   0.3661     C
C       0.8764   0.7798   0.6339     C
C       0.8912   0.2791   0.4028     C
C       0.8912   0.2791   0.5972     C
C       0.8912   0.4028   0.2791     C
C       0.8912   0.4028   0.7209     C
C       0.8912   0.5972   0.2791     C
C       0.8912   0.5972   0.7209     C
C       0.8912   0.7209   0.4028     C
C       0.8912   0.7209   0.5972     C
C       0.8913   0.2443   0.4814     C
C       0.8913   0.2443   0.5186     C
C       0.8913   0.4814   0.2443     C
C       0.8913   0.4814   0.7557     C
C       0.8913   0.5186   0.2443     C
C       0.8913   0.5186   0.7557     C
C       0.8913   0.7557   0.4814     C
C       0.8913   0.7557   0.5186     C
H       0.8955   0.2994   0.4163     H
H       0.8955   0.2994   0.5837     H
H       0.8955   0.4163   0.2994     H
H       0.8955   0.4163   0.7006     H
H       0.8955   0.5837   0.2994     H
H       0.8955   0.5837   0.7006     H
H       0.8955   0.7006   0.4163     H
H       0.8955   0.7006   0.5837     H
C       0.9028   0.2209   0.3912     C
C       0.9028   0.2209   0.6088     C
C       0.9028   0.3912   0.2209     C
C       0.9028   0.3912   0.7791     C
C       0.9028   0.6088   0.2209     C
C       0.9028   0.6088   0.7791     C
C       0.9028   0.7791   0.3912     C
C       0.9028   0.7791   0.6088     C
C       0.9093     0.25   0.4093     C
C       0.9093     0.25   0.5907     C
C       0.9093   0.4093     0.25     C
C       0.9093   0.4093     0.75     C
C       0.9093   0.5907     0.25     C
C       0.9093   0.5907     0.75     C
C       0.9093     0.75   0.4093     C
C       0.9093     0.75   0.5907     C
H       0.9163   0.2006   0.3955     H
H       0.9163   0.2006   0.6045     H
H       0.9163   0.3955   0.2006     H
H       0.9163   0.3955   0.7994     H
H       0.9163   0.6045   0.2006     H
H       0.9163   0.6045   0.7994     H
H       0.9163   0.7994   0.3955     H
H       0.9163   0.7994   0.6045     H
C       0.9276   0.2468   0.4712     C
C       0.9276   0.2468   0.5288     C
C       0.9276   0.4712   0.2468     C
C       0.9276   0.4712   0.7532     C
C       0.9276   0.5288   0.2468     C
C       0.9276   0.5288   0.7532     C
C       0.9276   0.7532   0.4712     C
C       0.9276   0.7532   0.5288     C
C       0.9373     0.25   0.4373     C
C       0.9373     0.25   0.5627     C
C       0.9373   0.4373     0.25     C
C       0.9373   0.4373     0.75     C
C       0.9373   0.5627     0.25     C
C       0.9373   0.5627     0.75     C
C       0.9373     0.75   0.4373     C
C       0.9373     0.75   0.5627     C
N       0.9478   0.2479      0.5     N
N       0.9478      0.5   0.2479     N
N       0.9478      0.5   0.7521     N
N       0.9478   0.7521      0.5     N
H       0.9665   0.2571   0.3716     H
H       0.9665   0.2571   0.6284     H
H       0.9665   0.3716   0.2571     H
H       0.9665   0.3716   0.7429     H
H       0.9665   0.6284   0.2571     H
H       0.9665   0.6284   0.7429     H
H       0.9665   0.7429   0.3716     H
H       0.9665   0.7429   0.6284     H
C       0.9712   0.2532   0.4276     C
C       0.9712   0.2532   0.5724     C
C       0.9712   0.4276   0.2532     C
C       0.9712   0.4276   0.7468     C
C       0.9712   0.5724   0.2532     C
C       0.9712   0.5724   0.7468     C
C       0.9712   0.7468   0.4276     C
C       0.9712   0.7468   0.5724     C
C       0.9814   0.2557   0.3913     C
C       0.9814   0.2557   0.6087     C
C       0.9814   0.3913   0.2557     C
C       0.9814   0.3913   0.7443     C
C       0.9814   0.6087   0.2557     C
C       0.9814   0.6087   0.7443     C
C       0.9814   0.7443   0.3913     C
C       0.9814   0.7443   0.6087     C
