data_I
_chemical_name_common  '/home/zhangsd/repos/MofS-CGCNN/ML/data/SSD/clean_cifs/AWAWUR_clean'
_cell_length_a 20.29370
_cell_length_b 20.29370
_cell_length_c 20.29370
_cell_angle_alpha 85.00580
_cell_angle_beta  85.00580
_cell_angle_gamma 85.00580
_space_group_name_H-M_alt      'P 1'


loop_
_space_group_symop_operation_xyz
  'x, y, z' 

loop_
_atom_site_label
_atom_site_fract_x
_atom_site_fract_y
_atom_site_fract_z
_atom_site_type_symbol
H          0.0   0.2231   0.7769     H
C          0.0    0.257    0.743     C
C          0.0    0.358    0.642     C
C          0.0   0.4139   0.5861     C
C          0.0   0.5861   0.4139     C
C          0.0    0.642    0.358     C
C          0.0    0.743    0.257     C
H          0.0   0.7769   0.2231     H
O      0.00643  0.58603  0.66675     O
O      0.00643  0.66675  0.58603     O
C       0.0074   0.6474   0.6474     C
C      0.01032  0.29231  0.62684     C
C      0.01032  0.62684  0.29231     C
O      0.01104  0.63444  0.89834     O
O      0.01104  0.89834  0.63444     O
C      0.01156  0.24134  0.67756     C
C      0.01156  0.67756  0.24134     C
Co      0.0132  0.56243  0.56243    Co
C      0.01482  0.69532  0.69532     C
H       0.0161   0.6295   0.7763     H
H       0.0161   0.7763   0.6295     H
H       0.0164   0.2823   0.5828     H
H       0.0164   0.5828   0.2823     H
O      0.01704  0.01705  0.61848     O
O      0.01704  0.61848  0.01705     O
O      0.01766  0.12718  0.70957     O
O      0.01766  0.70957  0.12718     O
C      0.01797  0.67425  0.76229     C
C      0.01797  0.76229  0.67425     C
O      0.01992  0.46728   0.5992     O
O      0.01992   0.5992  0.46728     O
C      0.02379  0.72019  0.80839     C
C      0.02379  0.80839  0.72019     C
Co     0.02539  0.02539  0.72207    Co
Co     0.02539  0.72207  0.02539    Co
C       0.0255  0.78715  0.78715     C
C      0.02643  0.17007  0.66229     C
C      0.02643  0.66229  0.17007     C
C      0.02681  0.69721  0.87971     C
C      0.02681  0.87971  0.69721     C
O      0.02722  0.73834  0.92145     O
O      0.02722  0.92145  0.73834     O
H        0.028    0.818    0.818     H
O      0.04698  0.15988  0.60345     O
O      0.04698  0.60345  0.15988     O
H       0.0698   0.2117   0.4776     H
H       0.0698   0.4776   0.2117     H
Co     0.07663  0.07663  0.55572    Co
Co     0.07663  0.55572  0.07663    Co
O      0.07855  0.26166  0.97278     O
O      0.07855  0.97278  0.26166     O
N       0.0938   0.4339   0.4339     N
O      0.10166  0.36556  0.98896     O
O      0.10166  0.98896  0.36556     O
H       0.1051   0.3614   0.5038     H
H       0.1051   0.5038   0.3614     H
C      0.10945  0.19292  0.45814     C
C      0.10945  0.45814  0.19292     C
C      0.12029  0.30279  0.97319     C
C      0.12029  0.97319  0.30279     C
H        0.121   0.2674   0.3869     H
H        0.121   0.3869   0.2674     H
O      0.12718  0.01766  0.70957     O
O      0.12718  0.70957  0.01766     O
C      0.12777  0.38517  0.46897     C
C      0.12777  0.46897  0.38517     C
N      0.13404  0.13405  0.48375     N
N      0.13405  0.48375  0.13405     N
C       0.1402  0.22703   0.4042     C
C       0.1402   0.4042  0.22703     C
O      0.15988  0.04698  0.60345     O
O      0.15988  0.60345  0.04698     O
C      0.17007  0.02643  0.66229     C
C      0.17007  0.66229  0.02643     C
H        0.182    0.182    0.972     H
H        0.182    0.972    0.182     H
C      0.19161  0.27981  0.97621     C
C      0.19161  0.97621  0.27981     C
C      0.19292  0.10945  0.45814     C
C      0.19292  0.45814  0.10945     C
C       0.1937   0.3691   0.4561     C
C       0.1937   0.4561   0.3691     C
C      0.20042  0.20042  0.37587     C
C      0.20042  0.37587  0.20042     C
N      0.20318  0.28948  0.28948     N
H       0.2117   0.0698   0.4776     H
H       0.2117   0.4776   0.0698     H
C      0.21285  0.21285   0.9745     C
C      0.21285   0.9745  0.21285     C
H       0.2154   0.3352   0.4818     H
H       0.2154   0.4818   0.3352     H
H       0.2231      0.0   0.7769     H
H       0.2231   0.7769      0.0     H
H       0.2237   0.3705   0.9839     H
H       0.2237   0.9839   0.3705     H
C      0.22703   0.1402   0.4042     C
C      0.22703   0.4042   0.1402     C
C      0.22882  0.40392  0.40392     C
C      0.23312  0.23312  0.31557     C
C      0.23312  0.31557  0.23312     C
C      0.23771  0.32575  0.98203     C
C      0.23771  0.98203  0.32575     C
C      0.24134  0.01156  0.67756     C
C      0.24134  0.67756  0.01156     C
C        0.257      0.0    0.743     C
C        0.257    0.743      0.0     C
O      0.26166  0.07855  0.97278     O
O      0.26166  0.97278  0.07855     O
H       0.2674    0.121   0.3869     H
H       0.2674   0.3869    0.121     H
Co     0.27793  0.97461  0.97461    Co
C      0.27981  0.19161  0.97621     C
C      0.27981  0.97621  0.19161     C
H       0.2823   0.0164   0.5828     H
H       0.2823   0.5828   0.0164     H
N      0.28948  0.20318  0.28948     N
N      0.28948  0.28948  0.20318     N
O      0.29043  0.87282  0.98234     O
O      0.29043  0.98234  0.87282     O
C      0.29231  0.01032  0.62684     C
C      0.29231  0.62684  0.01032     C
C        0.297   0.3782   0.3782     C
C      0.30279  0.12029  0.97319     C
C      0.30279  0.97319  0.12029     C
C      0.30468  0.30468  0.98518     C
C      0.30468  0.98518  0.30468     C
C      0.31557  0.23312  0.23312     C
N      0.32224  0.32224     0.41     N
N      0.32224     0.41  0.32224     N
C      0.32244  0.75866  0.98844     C
C      0.32244  0.98844  0.75866     C
C      0.32575  0.23771  0.98203     C
C      0.32575  0.98203  0.23771     C
O      0.33325  0.41397  0.99357     O
O      0.33325  0.99357  0.41397     O
H       0.3352   0.2154   0.4818     H
H       0.3352   0.4818   0.2154     H
C      0.33771  0.82993  0.97357     C
C      0.33771  0.97357  0.82993     C
C       0.3526   0.3526   0.9926     C
C       0.3526   0.9926   0.3526     C
C        0.358      0.0    0.642     C
C        0.358    0.642      1.0     C
H       0.3614   0.1051   0.5038     H
H       0.3614   0.5038   0.1051     H
O      0.36556  0.10166  0.98896     O
O      0.36556  0.98896  0.10166     O
C       0.3691   0.1937   0.4561     C
C       0.3691   0.4561   0.1937     C
H       0.3705   0.2237   0.9839     H
H       0.3705   0.9839   0.2237     H
C      0.37316  0.70769  0.98968     C
C      0.37316  0.98968  0.70769     C
C      0.37587  0.20042  0.20042     C
C       0.3782    0.297   0.3782     C
C       0.3782   0.3782    0.297     C
O      0.38152  0.98296  0.98296     O
C      0.38517  0.12777  0.46897     C
C      0.38517  0.46897  0.12777     C
H       0.3869    0.121   0.2674     H
H       0.3869   0.2674    0.121     H
O      0.39655  0.84012  0.95302     O
O      0.39655  0.95302  0.84012     O
O       0.4008  0.53272  0.98008     O
O       0.4008  0.98008  0.53272     O
C      0.40392  0.22882  0.40392     C
C      0.40392  0.40392  0.22882     C
C       0.4042   0.1402  0.22703     C
C       0.4042  0.22703   0.1402     C
N         0.41  0.32224  0.32224     N
C       0.4139      0.0   0.5861     C
C       0.4139   0.5861     -0.0     C
O      0.41397  0.33325  0.99357     O
O      0.41397  0.99357  0.33325     O
H       0.4172   0.7177   0.9836     H
H       0.4172   0.9836   0.7177     H
N       0.4339   0.0938   0.4339     N
N       0.4339   0.4339   0.0938     N
Co     0.43757  0.43757   0.9868    Co
Co     0.43757   0.9868  0.43757    Co
Co     0.44428  0.92337  0.92337    Co
C       0.4561   0.1937   0.3691     C
C       0.4561   0.3691   0.1937     C
C      0.45814  0.10945  0.19292     C
C      0.45814  0.19292  0.10945     C
O      0.46728  0.01992   0.5992     O
O      0.46728   0.5992  0.01992     O
C      0.46897  0.12777  0.38517     C
C      0.46897  0.38517  0.12777     C
H       0.4776   0.0698   0.2117     H
H       0.4776   0.2117   0.0698     H
H       0.4818   0.2154   0.3352     H
H       0.4818   0.3352   0.2154     H
N      0.48375  0.13405  0.13405     N
H       0.4962   0.6386   0.8949     H
H       0.4962   0.8949   0.6386     H
H       0.5038   0.1051   0.3614     H
H       0.5038   0.3614   0.1051     H
N      0.51625  0.86596  0.86596     N
H       0.5182   0.6648   0.7846     H
H       0.5182   0.7846   0.6648     H
H       0.5224   0.7883   0.9302     H
H       0.5224   0.9302   0.7883     H
C      0.53103  0.61483  0.87223     C
C      0.53103  0.87223  0.61483     C
O      0.53272   0.4008  0.98008     O
O      0.53272  0.98008   0.4008     O
C      0.54186  0.80708  0.89055     C
C      0.54186  0.89055  0.80708     C
C       0.5439   0.6309   0.8063     C
C       0.5439   0.8063   0.6309     C
Co     0.55572  0.07663  0.07663    Co
Co     0.56243   0.0132  0.56243    Co
Co     0.56243  0.56243   0.0132    Co
N       0.5661   0.5661   0.9062     N
N       0.5661   0.9062   0.5661     N
H       0.5828   0.0164   0.2823     H
H       0.5828   0.2823   0.0164     H
O      0.58603  0.00643  0.66675     O
O      0.58603  0.66675  0.00643     O
C       0.5861      0.0   0.4139     C
C       0.5861   0.4139      1.0     C
N         0.59  0.67776  0.67776     N
C       0.5958  0.77297   0.8598     C
C       0.5958   0.8598  0.77297     C
C      0.59608  0.59608  0.77118     C
C      0.59608  0.77118  0.59608     C
O       0.5992  0.01992  0.46728     O
O       0.5992  0.46728  0.01992     O
O      0.60345  0.04698  0.15988     O
O      0.60345  0.15988  0.04698     O
H       0.6131   0.7326    0.879     H
H       0.6131    0.879   0.7326     H
C      0.61483  0.53103  0.87223     C
C      0.61483  0.87223  0.53103     C
O      0.61848  0.01705  0.01705     O
C       0.6218   0.6218    0.703     C
C       0.6218    0.703   0.6218     C
C      0.62413  0.79958  0.79958     C
C      0.62684  0.01032  0.29231     C
C      0.62684  0.29231  0.01032     C
H       0.6295   0.0161   0.7763     H
H       0.6295   0.7763   0.0161     H
C       0.6309   0.5439   0.8063     C
C       0.6309   0.8063   0.5439     C
O      0.63444  0.01104  0.89834     O
O      0.63444  0.89834  0.01104     O
H       0.6386   0.4962   0.8949     H
H       0.6386   0.8949   0.4962     H
C        0.642      0.0    0.358     C
C        0.642    0.358      0.0     C
C       0.6474   0.0074   0.6474     C
C       0.6474   0.6474   0.0074     C
C      0.66229  0.02643  0.17007     C
C      0.66229  0.17007  0.02643     C
H       0.6648   0.5182   0.7846     H
H       0.6648   0.7846   0.5182     H
O      0.66675  0.00643  0.58603     O
O      0.66675  0.58603  0.00643     O
C      0.67425  0.01797  0.76229     C
C      0.67425  0.76229  0.01797     C
C      0.67756  0.01156  0.24134     C
C      0.67756  0.24134  0.01156     C
N      0.67776     0.59  0.67776     N
N      0.67776  0.67776     0.59     N
C      0.68443  0.76688  0.76688     C
C      0.69532  0.01482  0.69532     C
C      0.69532  0.69532  0.01482     C
C      0.69721  0.02681  0.87971     C
C      0.69721  0.87971  0.02681     C
C        0.703   0.6218   0.6218     C
C      0.70769  0.37316  0.98968     C
C      0.70769  0.98968  0.37316     C
O      0.70957  0.01766  0.12718     O
O      0.70957  0.12718  0.01766     O
N      0.71052  0.71052  0.79682     N
N      0.71052  0.79682  0.71052     N
H       0.7177   0.4172   0.9836     H
H       0.7177   0.9836   0.4172     H
C      0.72019  0.02379  0.80839     C
C      0.72019  0.80839  0.02379     C
Co     0.72207  0.02539  0.02539    Co
H       0.7326   0.6131    0.879     H
H       0.7326    0.879   0.6131     H
O      0.73834  0.02722  0.92145     O
O      0.73834  0.92145  0.02722     O
C        0.743      0.0    0.257     C
C        0.743    0.257      0.0     C
C      0.75866  0.32244  0.98844     C
C      0.75866  0.98844  0.32244     C
C      0.76229  0.01797  0.67425     C
C      0.76229  0.67425  0.01797     C
C      0.76688  0.68443  0.76688     C
C      0.76688  0.76688  0.68443     C
C      0.77118  0.59608  0.59608     C
C      0.77297   0.5958   0.8598     C
C      0.77297   0.8598   0.5958     C
H       0.7763   0.0161   0.6295     H
H       0.7763   0.6295   0.0161     H
H       0.7769     -0.0   0.2231     H
H       0.7769   0.2231     -0.0     H
H       0.7846   0.5182   0.6648     H
H       0.7846   0.6648   0.5182     H
C      0.78715   0.0255  0.78715     C
C      0.78715  0.78715   0.0255     C
H       0.7883   0.5224   0.9302     H
H       0.7883   0.9302   0.5224     H
N      0.79682  0.71052  0.71052     N
C      0.79958  0.62413  0.79958     C
C      0.79958  0.79958  0.62413     C
C       0.8063   0.5439   0.6309     C
C       0.8063   0.6309   0.5439     C
C      0.80708  0.54186  0.89055     C
C      0.80708  0.89055  0.54186     C
C      0.80839  0.02379  0.72019     C
C      0.80839  0.72019  0.02379     C
H        0.818    0.028    0.818     H
H        0.818    0.818    0.028     H
C      0.82993  0.33771  0.97357     C
C      0.82993  0.97357  0.33771     C
O      0.84012  0.39655  0.95302     O
O      0.84012  0.95302  0.39655     O
C       0.8598   0.5958  0.77297     C
C       0.8598  0.77297   0.5958     C
N      0.86596  0.51625  0.86596     N
N      0.86596  0.86596  0.51625     N
C      0.87223  0.53103  0.61483     C
C      0.87223  0.61483  0.53103     C
O      0.87282  0.29043  0.98234     O
O      0.87282  0.98234  0.29043     O
H        0.879   0.6131   0.7326     H
H        0.879   0.7326   0.6131     H
C      0.87971  0.02681  0.69721     C
C      0.87971  0.69721  0.02681     C
C      0.89055  0.54186  0.80708     C
C      0.89055  0.80708  0.54186     C
H       0.8949   0.4962   0.6386     H
H       0.8949   0.6386   0.4962     H
O      0.89834  0.01104  0.63444     O
O      0.89834  0.63444  0.01104     O
N       0.9062   0.5661   0.5661     N
O      0.92145  0.02722  0.73834     O
O      0.92145  0.73834  0.02722     O
Co     0.92337  0.44428  0.92337    Co
Co     0.92337  0.92337  0.44428    Co
H       0.9302   0.5224   0.7883     H
H       0.9302   0.7883   0.5224     H
O      0.95302  0.39655  0.84012     O
O      0.95302  0.84012  0.39655     O
H        0.972    0.182    0.182     H
O      0.97278  0.07855  0.26166     O
O      0.97278  0.26166  0.07855     O
C      0.97319  0.12029  0.30279     C
C      0.97319  0.30279  0.12029     C
C      0.97357  0.33771  0.82993     C
C      0.97357  0.82993  0.33771     C
C       0.9745  0.21285  0.21285     C
Co     0.97461  0.27793  0.97461    Co
Co     0.97461  0.97461  0.27793    Co
C      0.97621  0.19161  0.27981     C
C      0.97621  0.27981  0.19161     C
O      0.98008   0.4008  0.53272     O
O      0.98008  0.53272   0.4008     O
C      0.98203  0.23771  0.32575     C
C      0.98203  0.32575  0.23771     C
O      0.98234  0.29043  0.87282     O
O      0.98234  0.87282  0.29043     O
O      0.98296  0.38152  0.98296     O
O      0.98296  0.98296  0.38152     O
H       0.9836   0.4172   0.7177     H
H       0.9836   0.7177   0.4172     H
H       0.9839   0.2237   0.3705     H
H       0.9839   0.3705   0.2237     H
C      0.98518  0.30468  0.30468     C
Co      0.9868  0.43757  0.43757    Co
C      0.98844  0.32244  0.75866     C
C      0.98844  0.75866  0.32244     C
O      0.98896  0.10166  0.36556     O
O      0.98896  0.36556  0.10166     O
C      0.98968  0.37316  0.70769     C
C      0.98968  0.70769  0.37316     C
C       0.9926   0.3526   0.3526     C
O      0.99357  0.33325  0.41397     O
O      0.99357  0.41397  0.33325     O
