data_I
_chemical_name_common  '/home/zhangsd/repos/MofS-CGCNN/ML/data/SSD/clean_cifs/AWUPAL_clean'
_cell_length_a 23.48970
_cell_length_b 23.48950
_cell_length_c 31.96450
_cell_angle_alpha 90.00000
_cell_angle_beta  90.00000
_cell_angle_gamma 90.00000
_space_group_name_H-M_alt      'P 1'


loop_
_space_group_symop_operation_xyz
  'x, y, z' 

loop_
_atom_site_label
_atom_site_fract_x
_atom_site_fract_y
_atom_site_fract_z
_atom_site_type_symbol
Fe         0.0      0.0      0.0    Fe
N          0.0      0.0  0.06278     N
N          0.0      0.0  0.93722     N
In         0.0      0.5  0.25002    In
In         0.0      0.5  0.74998    In
O      0.01802  0.56052  0.19527     O
O      0.01802  0.56052  0.80473     O
C       0.0205   0.9798  0.13117     C
C       0.0205   0.9798  0.86883     C
O      0.03131   0.5908   0.2598     O
O      0.03131   0.5908   0.7402     O
C      0.03185   0.5986    0.221     C
C      0.03185   0.5986    0.779     C
C      0.03282   0.9676  0.08927     C
C      0.03282   0.9676  0.91073     C
H       0.0364   0.6397   0.1429     H
H       0.0364   0.6397   0.8571     H
H       0.0373   0.9632   0.1545     H
H       0.0373   0.9632   0.8455     H
H       0.0487    0.829   0.1147     H
H       0.0487    0.829   0.8853     H
C       0.0493   0.6674  0.16141     C
C       0.0493   0.6674  0.83859     C
C      0.05086  0.65638  0.20379     C
C      0.05086  0.65638  0.79621     C
O      0.06031  0.48235  0.30499     O
O      0.06031  0.48235  0.69501     O
N        0.061  0.93932      0.0     N
H       0.0636   0.7281   0.1183     H
H       0.0636   0.7281   0.8817     H
C        0.067   0.7198  0.14666     C
C        0.067   0.7198  0.85334     C
C       0.0714   0.6962  0.23131     C
C       0.0714   0.6962  0.76869     C
H        0.072   0.6887   0.2599     H
H        0.072   0.6887   0.7401     H
C      0.07338  0.92644  0.07546     C
C      0.07338  0.92644  0.92454     C
C      0.08242  0.84379  0.12541     C
C      0.08242  0.84379  0.87459     C
C      0.08557   0.9148  0.03514     C
C      0.08557   0.9148  0.96486     C
C       0.0898   0.7607  0.17367     C
C       0.0898   0.7607  0.82633     C
O      0.09091  0.46929  0.24035     O
O      0.09091  0.46929  0.75965     O
C       0.0917   0.7493  0.21568     C
C       0.0917   0.7493  0.78432     C
C        0.098   0.4683   0.2793     C
C        0.098   0.4683   0.7207     C
C      0.10467  0.89491  0.10991     C
C      0.10467  0.89491  0.89009     C
H       0.1064   0.7763   0.2341     H
H       0.1064   0.7763   0.7659     H
C      0.11167  0.81548   0.1572     C
C      0.11167  0.81548   0.8428     C
C       0.1257   0.8744  0.02101     C
C       0.1257   0.8744  0.97899     C
H       0.1408    0.467   0.3565     H
H       0.1408    0.467   0.6435     H
H       0.1484   0.8515    0.038     H
H       0.1484   0.8515    0.962     H
C      0.15592  0.91692  0.12515     C
C      0.15592  0.91692  0.87485     C
C      0.15644   0.4493  0.29619     C
C      0.15644   0.4493  0.70381     C
C      0.16124   0.8388  0.17228     C
C      0.16124   0.8388  0.82772     C
C        0.168   0.4524  0.33827     C
C        0.168   0.4524  0.66173     C
H       0.1707   0.9505   0.1143     H
H       0.1707   0.9505   0.8857     H
H       0.1799   0.8203   0.1941     H
H       0.1799   0.8203   0.8059     H
C      0.18457   0.8878  0.15686     C
C      0.18457   0.8878  0.84314     C
H       0.1906   0.4296   0.2391     H
H       0.1906   0.4296   0.7609     H
C       0.1975    0.429  0.26775     C
C       0.1975    0.429  0.73225     C
C        0.219    0.434  0.35356     C
C        0.219    0.434  0.64644     C
H       0.2251   0.8922    0.235     H
H       0.2251   0.8922    0.765     H
H       0.2267   0.4371    0.382     H
H       0.2267   0.4371    0.618     H
C      0.23949   0.9102  0.17362     C
C      0.23949   0.9102  0.82638     C
C       0.2484   0.4079   0.2833     C
C       0.2484   0.4079   0.7167     C
C       0.2516   0.9079   0.2167     C
C       0.2516   0.9079   0.7833     C
C      0.26051   0.4102  0.32638     C
C      0.26051   0.4102  0.67362     C
H       0.2733   0.9371    0.118     H
H       0.2733   0.9371    0.882     H
H       0.2749   0.3922    0.265     H
H       0.2749   0.3922    0.735     H
C        0.281    0.934  0.14644     C
C        0.281    0.934  0.85356     C
C       0.3025    0.929  0.23225     C
C       0.3025    0.929  0.76775     C
H       0.3094   0.9296   0.2609     H
H       0.3094   0.9296   0.7391     H
C      0.31543   0.3878  0.34314     C
C      0.31543   0.3878  0.65686     C
H       0.3201   0.3203   0.3059     H
H       0.3201   0.3203   0.6941     H
H       0.3293   0.4505   0.3857     H
H       0.3293   0.4505   0.6143     H
C        0.332   0.9524  0.16173     C
C        0.332   0.9524  0.83827     C
C      0.33876   0.3388  0.32772     C
C      0.33876   0.3388  0.67228     C
C      0.34356   0.9493  0.20381     C
C      0.34356   0.9493  0.79619     C
C      0.34408  0.41692  0.37485     C
C      0.34408  0.41692  0.62515     C
H       0.3516   0.3515    0.462     H
H       0.3516   0.3515    0.538     H
H       0.3592    0.967   0.1435     H
H       0.3592    0.967   0.8565     H
C       0.3743   0.3744  0.47899     C
C       0.3743   0.3744  0.52101     C
C      0.38833  0.31548   0.3428     C
C      0.38833  0.31548   0.6572     C
H       0.3936   0.2763   0.2659     H
H       0.3936   0.2763   0.7341     H
C      0.39533  0.39491  0.39009     C
C      0.39533  0.39491  0.60991     C
C        0.402   0.9683   0.2207     C
C        0.402   0.9683   0.7793     C
C       0.4083   0.2493  0.28432     C
C       0.4083   0.2493  0.71568     C
O      0.40909  0.96929  0.25965     O
O      0.40909  0.96929  0.74035     O
C       0.4102   0.2607  0.32633     C
C       0.4102   0.2607  0.67367     C
C      0.41443   0.4148  0.46486     C
C      0.41443   0.4148  0.53514     C
C      0.41758  0.34379  0.37459     C
C      0.41758  0.34379  0.62541     C
C      0.42662  0.42644  0.42454     C
C      0.42662  0.42644  0.57546     C
H        0.428   0.1887   0.2401     H
H        0.428   0.1887   0.7599     H
C       0.4286   0.1962  0.26869     C
C       0.4286   0.1962  0.73131     C
C        0.433   0.2198  0.35334     C
C        0.433   0.2198  0.64666     C
H       0.4364   0.2281   0.3817     H
H       0.4364   0.2281   0.6183     H
N        0.439  0.43932      0.5     N
O      0.43969  0.98235  0.19501     O
O      0.43969  0.98235  0.80499     O
C      0.44914  0.15638  0.29621     C
C      0.44914  0.15638  0.70379     C
C       0.4507   0.1674  0.33859     C
C       0.4507   0.1674  0.66141     C
H       0.4513    0.329   0.3853     H
H       0.4513    0.329   0.6147     H
H       0.4627   0.4632   0.3455     H
H       0.4627   0.4632   0.6545     H
H       0.4636   0.1397   0.3571     H
H       0.4636   0.1397   0.6429     H
C      0.46718   0.4676  0.41073     C
C      0.46718   0.4676  0.58927     C
C      0.46815   0.0986    0.279     C
C      0.46815   0.0986    0.721     C
O      0.46869   0.0908   0.2402     O
O      0.46869   0.0908   0.7598     O
C       0.4795   0.4798  0.36883     C
C       0.4795   0.4798  0.63117     C
O      0.48198  0.06052  0.30473     O
O      0.48198  0.06052  0.69527     O
In         0.5      0.0  0.24998    In
In         0.5      0.0  0.75002    In
N          0.5      0.5  0.43722     N
Fe         0.5      0.5      0.5    Fe
N          0.5      0.5  0.56278     N
O      0.51802  0.93948  0.30473     O
O      0.51802  0.93948  0.69527     O
C       0.5205   0.5202  0.36883     C
C       0.5205   0.5202  0.63117     C
O      0.53131   0.9092   0.2402     O
O      0.53131   0.9092   0.7598     O
C      0.53185   0.9014    0.279     C
C      0.53185   0.9014    0.721     C
C      0.53282   0.5324  0.41073     C
C      0.53282   0.5324  0.58927     C
H       0.5364   0.8603   0.3571     H
H       0.5364   0.8603   0.6429     H
H       0.5373   0.5368   0.3455     H
H       0.5373   0.5368   0.6545     H
H       0.5487    0.671   0.3853     H
H       0.5487    0.671   0.6147     H
C       0.5493   0.8326  0.33859     C
C       0.5493   0.8326  0.66141     C
C      0.55086  0.84362  0.29621     C
C      0.55086  0.84362  0.70379     C
O      0.56031  0.01765  0.19501     O
O      0.56031  0.01765  0.80499     O
N        0.561  0.56068      0.5     N
H       0.5636   0.7719   0.3817     H
H       0.5636   0.7719   0.6183     H
C        0.567   0.7802  0.35334     C
C        0.567   0.7802  0.64666     C
C       0.5714   0.8038  0.26869     C
C       0.5714   0.8038  0.73131     C
H        0.572   0.8113   0.2401     H
H        0.572   0.8113   0.7599     H
C      0.57338  0.57356  0.42454     C
C      0.57338  0.57356  0.57546     C
C      0.58242  0.65621  0.37459     C
C      0.58242  0.65621  0.62541     C
C      0.58557   0.5852  0.46486     C
C      0.58557   0.5852  0.53514     C
C       0.5898   0.7393  0.32633     C
C       0.5898   0.7393  0.67367     C
O      0.59091  0.03071  0.25965     O
O      0.59091  0.03071  0.74035     O
C       0.5917   0.7507  0.28432     C
C       0.5917   0.7507  0.71568     C
C        0.598   0.0317   0.2207     C
C        0.598   0.0317   0.7793     C
C      0.60467  0.60509  0.39009     C
C      0.60467  0.60509  0.60991     C
H       0.6064   0.7237   0.2659     H
H       0.6064   0.7237   0.7341     H
C      0.61167  0.68452   0.3428     C
C      0.61167  0.68452   0.6572     C
C       0.6257   0.6256  0.47899     C
C       0.6257   0.6256  0.52101     C
H       0.6408    0.033   0.1435     H
H       0.6408    0.033   0.8565     H
H       0.6484   0.6485    0.462     H
H       0.6484   0.6485    0.538     H
C      0.65592  0.58308  0.37485     C
C      0.65592  0.58308  0.62515     C
C      0.65644   0.0507  0.20381     C
C      0.65644   0.0507  0.79619     C
C      0.66124   0.6612  0.32772     C
C      0.66124   0.6612  0.67228     C
C        0.668   0.0476  0.16173     C
C        0.668   0.0476  0.83827     C
H       0.6707   0.5495   0.3857     H
H       0.6707   0.5495   0.6143     H
H       0.6799   0.6797   0.3059     H
H       0.6799   0.6797   0.6941     H
C      0.68457   0.6122  0.34314     C
C      0.68457   0.6122  0.65686     C
H       0.6906   0.0704   0.2609     H
H       0.6906   0.0704   0.7391     H
C       0.6975    0.071  0.23225     C
C       0.6975    0.071  0.76775     C
C        0.719    0.066  0.14644     C
C        0.719    0.066  0.85356     C
H       0.7251   0.6078    0.265     H
H       0.7251   0.6078    0.735     H
H       0.7267   0.0629    0.118     H
H       0.7267   0.0629    0.882     H
C      0.73949   0.5898  0.32638     C
C      0.73949   0.5898  0.67362     C
C       0.7484   0.0921   0.2167     C
C       0.7484   0.0921   0.7833     C
C       0.7516   0.5921   0.2833     C
C       0.7516   0.5921   0.7167     C
C      0.76051   0.0898  0.17362     C
C      0.76051   0.0898  0.82638     C
H       0.7733   0.5629    0.382     H
H       0.7733   0.5629    0.618     H
H       0.7749   0.1078    0.235     H
H       0.7749   0.1078    0.765     H
C        0.781    0.566  0.35356     C
C        0.781    0.566  0.64644     C
C       0.8025    0.571  0.26775     C
C       0.8025    0.571  0.73225     C
H       0.8094   0.5704   0.2391     H
H       0.8094   0.5704   0.7609     H
C      0.81543   0.1122  0.15686     C
C      0.81543   0.1122  0.84314     C
H       0.8201   0.1797   0.1941     H
H       0.8201   0.1797   0.8059     H
H       0.8293   0.0495   0.1143     H
H       0.8293   0.0495   0.8857     H
C        0.832   0.5476  0.33827     C
C        0.832   0.5476  0.66173     C
C      0.83876   0.1612  0.17228     C
C      0.83876   0.1612  0.82772     C
C      0.84356   0.5507  0.29619     C
C      0.84356   0.5507  0.70381     C
C      0.84408  0.08308  0.12515     C
C      0.84408  0.08308  0.87485     C
H       0.8516   0.1485    0.038     H
H       0.8516   0.1485    0.962     H
H       0.8592    0.533   0.3565     H
H       0.8592    0.533   0.6435     H
C       0.8743   0.1256  0.02101     C
C       0.8743   0.1256  0.97899     C
C      0.88833  0.18452   0.1572     C
C      0.88833  0.18452   0.8428     C
H       0.8936   0.2237   0.2341     H
H       0.8936   0.2237   0.7659     H
C      0.89533  0.10509  0.10991     C
C      0.89533  0.10509  0.89009     C
C        0.902   0.5317   0.2793     C
C        0.902   0.5317   0.7207     C
C       0.9083   0.2507  0.21568     C
C       0.9083   0.2507  0.78432     C
O      0.90909  0.53071  0.24035     O
O      0.90909  0.53071  0.75965     O
C       0.9102   0.2393  0.17367     C
C       0.9102   0.2393  0.82633     C
C      0.91443   0.0852  0.03514     C
C      0.91443   0.0852  0.96486     C
C      0.91758  0.15621  0.12541     C
C      0.91758  0.15621  0.87459     C
C      0.92662  0.07356  0.07546     C
C      0.92662  0.07356  0.92454     C
H        0.928   0.3113   0.2599     H
H        0.928   0.3113   0.7401     H
C       0.9286   0.3038  0.23131     C
C       0.9286   0.3038  0.76869     C
C        0.933   0.2802  0.14666     C
C        0.933   0.2802  0.85334     C
H       0.9364   0.2719   0.1183     H
H       0.9364   0.2719   0.8817     H
N        0.939  0.06068      0.0     N
O      0.93969  0.51765  0.30499     O
O      0.93969  0.51765  0.69501     O
C      0.94914  0.34362  0.20379     C
C      0.94914  0.34362  0.79621     C
C       0.9507   0.3326  0.16141     C
C       0.9507   0.3326  0.83859     C
H       0.9513    0.171   0.1147     H
H       0.9513    0.171   0.8853     H
H       0.9627   0.0368   0.1545     H
H       0.9627   0.0368   0.8455     H
H       0.9636   0.3603   0.1429     H
H       0.9636   0.3603   0.8571     H
C      0.96718   0.0324  0.08927     C
C      0.96718   0.0324  0.91073     C
C      0.96815   0.4014    0.221     C
C      0.96815   0.4014    0.779     C
O      0.96869   0.4092   0.2598     O
O      0.96869   0.4092   0.7402     O
C       0.9795   0.0202  0.13117     C
C       0.9795   0.0202  0.86883     C
O      0.98198  0.43948  0.19527     O
O      0.98198  0.43948  0.80473     O
