data_I
_chemical_name_common  '/home/zhangsd/repos/MofS-CGCNN/ML/data/SSD/clean_cifs/AXAQAT_clean'
_cell_length_a  6.73400
_cell_length_b 12.53600
_cell_length_c  9.12000
_cell_angle_alpha 90.00000
_cell_angle_beta  118.62200
_cell_angle_gamma 90.00000
_space_group_name_H-M_alt      'P 1'


loop_
_space_group_symop_operation_xyz
  'x, y, z' 

loop_
_atom_site_label
_atom_site_fract_x
_atom_site_fract_y
_atom_site_fract_z
_atom_site_type_symbol
H       0.0491   0.1575   0.0751     H
H       0.0491   0.8425   0.0751     H
C         0.05   0.3399   0.3763     C
C         0.05   0.6601   0.3763     C
N        0.085      0.0   0.0787     N
Ag      0.1463  0.26698   0.6015    Ag
Ag      0.1463  0.73302   0.6015    Ag
N        0.178      0.5   0.0859     N
H       0.2009   0.3435   0.0738     H
H       0.2009   0.6565   0.0738     H
C        0.225   0.1735   0.8091     C
C        0.225   0.8265   0.8091     C
N       0.2732   0.1109   0.9098     N
N       0.2732   0.8891   0.9098     N
C       0.2739   0.4092   0.0784     C
C       0.2739   0.5908   0.0784     C
Fe      0.3807      0.0    0.082    Fe
C       0.4814   0.4086   0.0771     C
C       0.4814   0.5914   0.0771     C
N       0.4883    0.107   0.2586     N
N       0.4883    0.893   0.2586     N
H       0.5491   0.3425   0.0751     H
H       0.5491   0.6575   0.0751     H
C         0.55   0.1601   0.3763     C
C         0.55   0.8399   0.3763     C
N        0.585      0.5   0.0787     N
Ag      0.6463  0.23302   0.6015    Ag
Ag      0.6463  0.76698   0.6015    Ag
N        0.678      0.0   0.0859     N
H       0.7009   0.1565   0.0738     H
H       0.7009   0.8435   0.0738     H
C        0.725   0.3265   0.8091     C
C        0.725   0.6735   0.8091     C
N       0.7732   0.3891   0.9098     N
N       0.7732   0.6109   0.9098     N
C       0.7739   0.0908   0.0784     C
C       0.7739   0.9092   0.0784     C
Fe      0.8807      0.5    0.082    Fe
C       0.9814   0.0914   0.0771     C
C       0.9814   0.9086   0.0771     C
N       0.9883    0.393   0.2586     N
N       0.9883    0.607   0.2586     N
