data_I
_chemical_name_common  '/home/zhangsd/repos/MofS-CGCNN/ML/data/SSD/clean_cifs/AZILEA_clean'
_cell_length_a 10.15880
_cell_length_b 12.79190
_cell_length_c 23.00550
_cell_angle_alpha 104.31600
_cell_angle_beta  90.00000
_cell_angle_gamma 113.39600
_space_group_name_H-M_alt      'P 1'


loop_
_space_group_symop_operation_xyz
  'x, y, z' 

loop_
_atom_site_label
_atom_site_fract_x
_atom_site_fract_y
_atom_site_fract_z
_atom_site_type_symbol
O       0.0189   0.9062   0.5279     O
H         0.02   0.0932   0.5029     H
Pr     0.02275  0.63658  0.72564    Pr
C       0.0245   0.1224   0.0357     C
C       0.0372   0.9858   0.2824     C
H       0.0452   0.1826   0.6266     H
O       0.0466   0.4786   0.7643     O
C        0.054   0.3008   0.0039     C
C       0.0549    0.154   0.2533     C
H        0.056   0.3194   0.9672     H
C       0.0655   0.2004   0.5899     C
C       0.0709   0.3068   0.5762     C
H       0.0732   0.0932   0.0029     H
C       0.0979   0.1224   0.5357     C
C       0.0991    0.154   0.7533     C
C       0.1031   0.0146    0.555     C
O       0.1106    0.832   0.1969     O
C       0.1189   0.3606   0.8089     C
C       0.1223   0.2762   0.7488     C
N       0.1341   0.1016   0.2769     N
C       0.1349   0.2004   0.0899     C
H       0.1372   0.2982   0.7129     H
H       0.1374   0.1826   0.1266     H
C       0.1381    0.481   0.8018     C
Pr     0.14588   0.8345  0.60034    Pr
C       0.1539   0.2762   0.2488     C
N       0.1587    0.384   0.0603     N
H        0.161   0.2982   0.2129     H
H       0.1625   0.1184    0.742     H
H        0.173   0.3732   0.3367     H
O       0.1831    0.831   0.7192     O
O       0.1911    0.583   0.6678     O
O       0.1912   0.0378   0.5999     O
H       0.1941   0.1482   0.3714     H
O       0.1986   0.6462   0.1419     O
H       0.2002   0.3732   0.8367     H
C       0.2094    0.174   0.3365     C
N       0.2253    0.384   0.5603     N
C       0.2359   0.3068   0.0762     C
C       0.2375    0.499   0.5501     C
C       0.2386   0.1876   0.5139     C
C       0.2417   0.3606   0.3089     C
O       0.2432   0.5736   0.8328     O
C       0.2468   0.3008   0.5039     C
C       0.2615    0.499   0.0501     C
H       0.2634   0.3194   0.4672     H
H       0.2648   0.9636   0.9812     H
P       0.2913    0.616  0.62056     P
O       0.2975   0.7286   0.6013     O
H       0.3083   0.1058   0.9067     H
H       0.3089    0.882   0.4179     H
H       0.3114   0.1606   0.5074     H
Pr     0.31312  0.87196  0.14042    Pr
C       0.3168   0.2976   0.3349     C
O       0.3199   0.8998   0.5286     O
P       0.3247    0.616  0.12056     P
O       0.3304   0.5736   0.3328     O
H       0.3347   0.3274   0.0768     H
C       0.3371   0.0452   0.9062     C
P       0.3406   0.9106  0.72913     P
C       0.3429    0.481   0.3018     C
C       0.3432   0.9958   0.9606     C
C        0.377   0.0268   0.7994     C
O       0.3775   0.9666   0.6752     O
N       0.3841    0.981   0.8529     N
O       0.3919    0.583   0.1678     O
C       0.3992   0.9438    0.421     C
O       0.4091   0.8536   0.2339     O
H       0.4148   0.3298    0.348     H
O       0.4243   0.9728   0.0699     O
O       0.4311   0.7286   0.1013     O
O        0.432   0.4786   0.2643     O
H       0.4358   0.0508   0.3528     H
O       0.4445   0.8536   0.7339     O
O       0.4476   0.6462   0.6419     O
C       0.4494   0.9516   0.5286     C
C       0.4696   0.0058   0.3696     C
H       0.4715   0.4414   0.8597     H
H        0.478   0.3142   0.9329     H
C        0.496    0.007   0.9759     C
C       0.5022   0.9516   0.0286     C
C        0.511    0.007   0.4759     C
H       0.5287   0.0908   0.4878     H
C       0.5362   0.0058   0.8696     C
C       0.5441   0.3872   0.9295     C
C       0.5446   0.9438    0.921     C
C       0.5478   0.4306   0.8757     C
O       0.5485   0.9728   0.5699     O
Pr     0.55884  0.87196  0.64042    Pr
H       0.5621   0.0908   0.9878     H
P         0.57   0.9106  0.22913     P
H       0.5731    0.882   0.9179     H
O       0.5799   0.8998   0.0286     O
O       0.5891   0.9666   0.1752     O
O       0.5954    0.498   0.7681     O
N       0.5969    0.981   0.3529     N
H       0.5988   0.4536   0.4705     H
Pr     0.61383  0.63658  0.22564    Pr
H        0.615   0.0508   0.8528     H
Pr      0.6159  0.60958  0.69696    Pr
C       0.6441     0.43   0.0334     C
O       0.6479    0.831   0.2192     O
C       0.6498   0.0268   0.2994     C
C       0.6526   0.9958   0.4606     C
N       0.6594   0.4748   0.9778     N
O       0.6733   0.6474   0.1098     O
H       0.6829   0.3796   0.3324     H
C       0.6865   0.4784   0.4544     C
Pr     0.68862   0.8345  0.10034    Pr
C       0.6914    0.456   0.8493     C
H       0.6967   0.3796   0.8324     H
H       0.6983   0.5944   0.3983     H
H       0.6988   0.9636   0.4812     H
O       0.7062    0.609   0.5983     O
O       0.7072    0.502   0.1558     O
C       0.7081   0.0452   0.4062     C
C       0.7092   0.5168   0.7974     C
C       0.7123   0.5278   0.4004     C
O       0.7214    0.832   0.6969     O
P       0.7385   0.5552  0.10114     P
O       0.7417   0.5704   0.2883     O
C       0.7646    0.456   0.3493     C
C       0.7859     0.43   0.5334     C
C       0.7919   0.4784   0.9544     C
O       0.7948    0.502   0.6558     O
H       0.7975   0.1058   0.4067     H
C       0.8076   0.5168   0.2974     C
N       0.8154   0.4748   0.4778     N
C       0.8155   0.5278   0.9004     C
P       0.8167   0.5552  0.60114     P
O       0.8287   0.5704   0.7883     O
H       0.8362   0.3142   0.4329     H
C       0.8431   0.3872   0.4295     C
O       0.8466   0.0378   0.0999     O
H       0.8492   0.1606   0.0074     H
H       0.8548   0.4536   0.9705     H
O       0.8732     0.75    0.231     O
O       0.8768     0.75    0.731     O
P       0.8824   0.8602  0.71376     P
C       0.8828   0.4306   0.3757     C
O       0.8873   0.9062   0.0279     O
H       0.8961   0.5944   0.8983     H
O       0.9026    0.498   0.2681     O
O       0.9028    0.609   0.0983     O
C       0.9115   0.0146    0.055     C
H        0.915   0.3298    0.848     H
O       0.9199   0.8924   0.1636     O
C       0.9486   0.9858   0.7824     C
C        0.949   0.1876   0.0139     C
H       0.9541   0.1482   0.8714     H
H       0.9559   0.1184    0.242     H
C       0.9646    0.174   0.8365     C
N       0.9675   0.1016   0.7769     N
H       0.9699   0.4414   0.3597     H
O       0.9725   0.8924   0.6636     O
O       0.9741   0.6474   0.6098     O
P       0.9778   0.8602  0.21376     P
C       0.9808   0.2976   0.8349     C
H       0.9927   0.3274   0.5768     H
Pr     0.99368  0.60958  0.19696    Pr
