data_I
_chemical_name_common  '/home/zhangsd/repos/MofS-CGCNN/ML/data/SSD/clean_cifs/AZIVAI_clean'
_cell_length_a 13.63600
_cell_length_b 13.63600
_cell_length_c 19.46700
_cell_angle_alpha 90.00000
_cell_angle_beta  90.00000
_cell_angle_gamma 90.00000
_space_group_name_H-M_alt      'P 1'


loop_
_space_group_symop_operation_xyz
  'x, y, z' 

loop_
_atom_site_label
_atom_site_fract_x
_atom_site_fract_y
_atom_site_fract_z
_atom_site_type_symbol
Cu         0.0      0.0      0.0    Cu
N          0.0      0.0    0.104     N
C          0.0      0.0   0.2479     C
C          0.0      0.0   0.3245     C
Cu         0.0      0.0      0.5    Cu
C          0.0      0.0   0.6755     C
C          0.0      0.0   0.7521     C
N          0.0      0.0    0.896     N
H       0.0008   0.8512   0.7659     H
C        0.001   0.9124   0.7892     C
C       0.0023   0.9154   0.8597     C
H       0.0049   0.8551   0.8842     H
H       0.0343   0.1956   0.0607     H
C        0.051   0.9259   0.3575     C
N       0.0679    0.923   0.4269     N
C       0.0741    0.949   0.6425     C
N        0.077   0.9321   0.5731     N
C       0.0846   0.9977   0.1403     C
C       0.0876    0.999   0.2108     C
C       0.0931   0.1869   0.0352     C
H       0.0969    0.827   0.2772     H
C       0.0996   0.8441   0.3245     C
N       0.1045   0.1045      0.0     N
C         0.13   0.8455   0.4381     C
H       0.1449   0.9951   0.1158     H
H       0.1488   0.9992   0.2341     H
H       0.1495    0.317   0.0626     H
C       0.1495   0.7968   0.3747     C
C       0.1545     0.87   0.5619     C
C       0.1559   0.9004   0.6755     C
C       0.1608    0.259   0.0368     C
H        0.173   0.9031   0.7228     H
C       0.1754   0.8246      0.5     C
H        0.183   0.6495   0.5626     H
C       0.1869   0.0931   0.9648     C
H       0.1904   0.7411   0.3687     H
H       0.1956   0.0343   0.9393     H
C       0.2032   0.8505   0.6253     C
C        0.241   0.6608   0.5368     C
H       0.2411   0.3096   0.8687     H
C       0.2472   0.2472      0.0     C
C       0.2528   0.7472      0.5     C
H       0.2589   0.8096   0.6313     H
C        0.259   0.1608   0.9632     C
C       0.2968   0.3505   0.8747     C
H       0.3044   0.5343   0.5607     H
H       0.3096   0.2411   0.1313     H
C       0.3131   0.5931   0.5352     C
H        0.317   0.1495   0.9374     H
C       0.3246   0.3246      0.0     C
H        0.327   0.4031   0.7772     H
C       0.3392    0.759   0.4632     C
C       0.3441   0.4004   0.8245     C
C       0.3455     0.37   0.9381     C
C       0.3505   0.2968   0.1253     C
H       0.3505    0.817   0.4374     H
H       0.3512   0.4992   0.2659     H
H       0.3551   0.4951   0.3842     H
C         0.37   0.3455   0.0619     C
N       0.3955   0.6045      0.5     N
C       0.4004   0.3441   0.1755     C
H       0.4031    0.327   0.2228     H
C       0.4069   0.6869   0.4648     C
C       0.4124    0.499   0.2892     C
C       0.4154   0.4977   0.3597     C
N        0.423   0.4321   0.9269     N
C       0.4259    0.449   0.8575     C
N       0.4321    0.423   0.0731     N
C        0.449   0.4259   0.1425     C
H       0.4657   0.6956   0.4393     H
H       0.4951   0.3551   0.6158     H
C       0.4977   0.4154   0.6403     C
C        0.499   0.4124   0.7108     C
H       0.4992   0.3512   0.7341     H
Cu         0.5      0.5      0.0    Cu
C          0.5      0.5   0.1755     C
C          0.5      0.5   0.2521     C
N          0.5      0.5    0.396     N
Cu         0.5      0.5      0.5    Cu
N          0.5      0.5    0.604     N
C          0.5      0.5   0.7479     C
C          0.5      0.5   0.8245     C
H       0.5008   0.6488   0.7341     H
C        0.501   0.5876   0.7108     C
C       0.5023   0.5846   0.6403     C
H       0.5049   0.6449   0.6158     H
H       0.5343   0.3044   0.4393     H
C        0.551   0.5741   0.1425     C
N       0.5679    0.577   0.0731     N
C       0.5741    0.551   0.8575     C
N        0.577   0.5679   0.9269     N
C       0.5846   0.5023   0.3597     C
C       0.5876    0.501   0.2892     C
C       0.5931   0.3131   0.4648     C
H       0.5969    0.673   0.2228     H
C       0.5996   0.6559   0.1755     C
N       0.6045   0.3955      0.5     N
C         0.63   0.6545   0.0619     C
H       0.6449   0.5049   0.3842     H
H       0.6488   0.5008   0.2659     H
H       0.6495    0.183   0.4374     H
C       0.6495   0.7032   0.1253     C
C       0.6545     0.63   0.9381     C
C       0.6559   0.5996   0.8245     C
C       0.6608    0.241   0.4632     C
H        0.673   0.5969   0.7772     H
C       0.6754   0.6754      0.0     C
H        0.683   0.8505   0.9374     H
C       0.6869   0.4069   0.5352     C
H       0.6904   0.7589   0.1313     H
H       0.6956   0.4657   0.5607     H
C       0.7032   0.6495   0.8747     C
C        0.741   0.8392   0.9632     C
H       0.7411   0.1904   0.6313     H
C       0.7472   0.2528      0.5     C
C       0.7528   0.7528      0.0     C
H       0.7589   0.6904   0.8687     H
C        0.759   0.3392   0.5368     C
C       0.7968   0.1495   0.6253     C
H       0.8044   0.9657   0.9393     H
H       0.8096   0.2589   0.3687     H
C       0.8131   0.9069   0.9648     C
H        0.817   0.3505   0.5626     H
C       0.8246   0.1754      0.5     C
H        0.827   0.0969   0.7228     H
C       0.8392    0.741   0.0368     C
C       0.8441   0.0996   0.6755     C
C       0.8455     0.13   0.5619     C
C       0.8505   0.2032   0.3747     C
H       0.8505    0.683   0.0626     H
H       0.8512   0.0008   0.2341     H
H       0.8551   0.0049   0.1158     H
C         0.87   0.1545   0.4381     C
N       0.8955   0.8955      0.0     N
C       0.9004   0.1559   0.3245     C
H       0.9031    0.173   0.2772     H
C       0.9069   0.8131   0.0352     C
C       0.9124    0.001   0.2108     C
C       0.9154   0.0023   0.1403     C
N        0.923   0.0679   0.5731     N
C       0.9259    0.051   0.6425     C
N       0.9321    0.077   0.4269     N
C        0.949   0.0741   0.3575     C
H       0.9657   0.8044   0.0607     H
H       0.9951   0.1449   0.8842     H
C       0.9977   0.0846   0.8597     C
C        0.999   0.0876   0.7892     C
H       0.9992   0.1488   0.7659     H
