data_I
_chemical_name_common  '/home/zhangsd/repos/MofS-CGCNN/ML/data/SSD/clean_cifs/BADYAJ_clean'
_cell_length_a 30.62100
_cell_length_b 19.85560
_cell_length_c 14.59200
_cell_angle_alpha 90.00000
_cell_angle_beta  102.38500
_cell_angle_gamma 90.00000
_space_group_name_H-M_alt      'P 1'


loop_
_space_group_symop_operation_xyz
  'x, y, z' 

loop_
_atom_site_label
_atom_site_fract_x
_atom_site_fract_y
_atom_site_fract_z
_atom_site_type_symbol
C       0.0154   0.1383   0.1428     C
C       0.0154   0.3617   0.6428     C
N       0.0214   0.6736   0.3605     N
N       0.0214   0.8264   0.8605     N
N       0.0243    0.106   0.0687     N
N       0.0243    0.394   0.5687     N
H       0.0259   0.6894   0.3084     H
H       0.0259   0.8106   0.8084     H
H       0.0335   0.6378   0.5444     H
H       0.0335   0.8622   0.0444     H
N       0.0399   0.1245   0.2396     N
N       0.0399   0.3755   0.7396     N
H        0.053   0.0468   0.9592     H
H        0.053   0.4532   0.4592     H
C       0.0554   0.6669   0.5324     C
C       0.0554   0.6881   0.4459     C
C       0.0554   0.8119   0.9459     C
C       0.0554   0.8331   0.0324     C
C       0.0618   0.0656   0.0887     C
C       0.0618   0.4344   0.5887     C
C       0.0712   0.0832    0.245     C
C       0.0712   0.4168    0.745     C
N       0.0713   0.0375   0.0111     N
N       0.0713   0.4625   0.5111     N
H       0.0864   0.7477   0.8736     H
H       0.0864   0.7523   0.3736     H
N        0.089   0.0545    0.172     N
N        0.089   0.4455    0.672     N
H       0.0893   0.1024   0.3759     H
H       0.0893   0.3976   0.8759     H
H       0.0893   0.5052    0.358     H
H       0.0893   0.9948    0.858     H
C       0.0895   0.7331   0.4328     C
C       0.0895   0.7669   0.9328     C
H       0.0901   0.6822   0.6693     H
H       0.0901   0.8178   0.1693     H
C       0.0911   0.6911   0.6072     C
C       0.0911   0.8089   0.1072     C
N       0.0949   0.0747   0.3346     N
N       0.0949   0.4253   0.8346     N
H       0.1004   0.5519   0.7723     H
H       0.1004   0.9481   0.2723     H
C       0.1062   0.5041   0.5045     C
C       0.1062   0.9959   0.0045     C
C       0.1079   0.5248   0.4098     C
C       0.1079   0.9752   0.9098     C
C       0.1236   0.5416   0.8229     C
C       0.1236   0.9584   0.3229     C
C       0.1242   0.7496   0.4945     C
C       0.1242   0.7504   0.9945     C
C        0.126   0.7264    0.588     C
C        0.126   0.7736    0.088     C
C       0.1284   0.0242   0.3672     C
C       0.1284   0.4758   0.8672     C
H       0.1344   0.5956   0.3401     H
H       0.1344   0.9044   0.8401     H
C       0.1381   0.5746   0.3983     C
C       0.1381   0.9254   0.8983     C
C       0.1407   0.5236   0.5783     C
C       0.1407   0.9764   0.0783     C
H       0.1426   0.5077    0.639     H
H       0.1426   0.9923    0.139     H
H        0.147   0.7246   0.9794     H
H        0.147   0.7754   0.4794     H
H       0.1538   0.6285   0.8308     H
H       0.1538   0.8715   0.3308     H
C       0.1553    0.587   0.8608     C
C       0.1553    0.913   0.3608     C
O       0.1627   0.7267    0.747     O
O       0.1627   0.7733    0.247     O
C       0.1633    0.037   0.4464     C
C       0.1633    0.463   0.9464     C
C       0.1653   0.7391   0.6668     C
C       0.1653   0.7609   0.1668     C
H       0.1666   0.0797   0.4732     H
H       0.1666   0.4203   0.9732     H
C       0.1726   0.5941   0.4672     C
C       0.1726   0.9059   0.9672     C
C        0.173   0.5689   0.5567     C
C        0.173   0.9311   0.0567     C
C       0.1896   0.5792   0.9382     C
C       0.1896   0.9208   0.4382     C
C       0.1916   0.5127   0.9828     C
C       0.1916   0.9873   0.4828     C
H        0.196   0.5828   0.6055     H
H        0.196   0.9172   0.1055     H
O       0.1995   0.7346   0.1482     O
O       0.1995   0.7654   0.6482     O
O       0.2038   0.6624   0.3689     O
O       0.2038   0.8376   0.8689     O
C       0.2069   0.6447   0.4497     C
C       0.2069   0.8553   0.9497     C
H        0.213   0.5048   0.0375     H
H        0.213   0.9952   0.5375     H
O       0.2151   0.6932   0.9483     O
O       0.2151   0.8068   0.4483     O
C       0.2175   0.6344   0.9833     C
C       0.2175   0.8656   0.4833     C
O       0.2352    0.663   0.5191     O
O       0.2352    0.837   0.0191     O
Tb     0.23787   0.7458  0.82021    Tb
Tb     0.23787   0.7542  0.32021    Tb
O       0.2433   0.6245   0.7953     O
O       0.2433   0.8755   0.2953     O
O       0.2442   0.6201   0.0606     O
O       0.2442   0.8799   0.5606     O
Tb     0.26634  0.73814  0.08703    Tb
Tb     0.26634  0.76186  0.58703    Tb
H       0.2716   0.5003   0.7953     H
H       0.2716   0.9997   0.2953     H
C       0.2758   0.6307   0.7502     C
C       0.2758   0.8693   0.2502     C
O       0.2801   0.6754   0.2705     O
O       0.2801   0.8246   0.7705     O
O        0.283     0.69   0.7203     O
O        0.283     0.81   0.2203     O
C       0.2969   0.5091   0.7716     C
C       0.2969   0.9909   0.2716     C
O       0.3019   0.7288   0.9437     O
O       0.3019   0.7712   0.4437     O
C       0.3034   0.5758   0.7406     C
C       0.3034   0.9242   0.2406     C
H       0.3118   0.5866   0.4026     H
H       0.3118   0.9134   0.9026     H
C       0.3143   0.6537   0.2438     C
C       0.3143   0.8463   0.7438     C
H       0.3201   0.0814   0.2962     H
H       0.3201   0.4186   0.7962     H
C        0.325   0.0408   0.2683     C
C        0.325   0.4592   0.7683     C
O       0.3257   0.6736   0.1699     O
O       0.3257   0.8264   0.6699     O
O       0.3321    0.708   0.5608     O
O       0.3321    0.792   0.0608     O
C       0.3348   0.7439   0.4846     C
C       0.3348   0.7561   0.9846     C
C        0.337   0.5734   0.3814     C
C        0.337   0.9266   0.8814     C
C       0.3418   0.5823   0.6974     C
C       0.3418   0.9177   0.1974     C
H       0.3461   0.6228   0.6686     H
H       0.3461   0.8772   0.1686     H
C       0.3464   0.6018   0.3005     C
C       0.3464   0.8982   0.8005     C
H       0.3589   0.5082   0.4835     H
H       0.3589   0.9918   0.9835     H
C       0.3612   0.0366    0.226     C
C       0.3612   0.4634    0.726     C
H       0.3631   0.7025   0.8427     H
H       0.3631   0.7975   0.3427     H
C       0.3652   0.5265    0.429     C
C       0.3652   0.9735    0.929     C
C       0.3707   0.5332   0.6973     C
C       0.3707   0.9668   0.1973     C
C       0.3757   0.7327   0.4465     C
C       0.3757   0.7673   0.9465     C
C        0.383   0.5805   0.2696     C
C        0.383   0.9195   0.7696     C
C       0.3841   0.7337   0.8722     C
C       0.3841   0.7663   0.3722     C
H       0.3895   0.5998    0.216     H
H       0.3895   0.9002    0.716     H
N       0.3898   0.0882    0.224     N
N       0.3898   0.4118    0.724     N
H       0.3919   0.1174   0.2683     H
H       0.3919   0.3826   0.7683     H
H       0.3974   0.5421    0.679     H
H       0.3974   0.9579    0.179     H
C       0.4017   0.5052   0.4004     C
C       0.4017   0.9948   0.9004     C
H       0.4024   0.6642   0.5515     H
H       0.4024   0.8358   0.0515     H
C       0.4075   0.6867   0.4988     C
C       0.4075   0.8133   0.9988     C
N       0.4078   0.0659   0.0825     N
N       0.4078   0.4341   0.5825     N
C       0.4096   0.5328   0.3148     C
C       0.4096   0.9672   0.8148     C
C       0.4161      0.1   0.1602     C
C       0.4161      0.4   0.6602     C
C       0.4188   0.7422     0.84     C
C       0.4188   0.7578     0.34     C
H        0.423   0.7189   0.7873     H
H        0.423   0.7811   0.2873     H
H       0.4335   0.5172   0.2907     H
H       0.4335   0.9828   0.7907     H
N       0.4336   0.0404   0.9427     N
N       0.4336   0.4596   0.4427     N
C       0.4376   0.0752   0.0295     C
C       0.4376   0.4248   0.5295     C
C       0.4457   0.6779   0.4664     C
C       0.4457   0.8221   0.9664     C
N       0.4507   0.1466   0.1902     N
N       0.4507   0.3534   0.6902     N
C       0.4528   0.7094    0.389     C
C       0.4528   0.7906    0.889     C
H       0.4542    0.049   0.9124     H
H       0.4542    0.451   0.4124     H
H       0.4676   0.6491   0.4987     H
H       0.4676   0.8509   0.9987     H
N       0.4699   0.1228   0.0387     N
N       0.4699   0.3772   0.5387     N
C       0.4746   0.1557   0.1236     C
C       0.4746   0.3443   0.6236     C
N       0.4927   0.7018   0.3516     N
N       0.4927   0.7982   0.8516     N
H       0.4958   0.7298   0.3085     H
H       0.4958   0.7702   0.8085     H
H       0.5042   0.2298   0.1915     H
H       0.5042   0.2702   0.6915     H
N       0.5073   0.2018   0.1484     N
N       0.5073   0.2982   0.6484     N
C       0.5254   0.6557   0.3764     C
C       0.5254   0.8443   0.8764     C
N       0.5301   0.6228   0.4613     N
N       0.5301   0.8772   0.9613     N
H       0.5324   0.1491   0.0013     H
H       0.5324   0.3509   0.5013     H
H       0.5458    0.549   0.5876     H
H       0.5458    0.951   0.0876     H
C       0.5472   0.2094    0.111     C
C       0.5472   0.2906    0.611     C
N       0.5493   0.6466   0.3098     N
N       0.5493   0.8534   0.8098     N
C       0.5543   0.1779   0.0336     C
C       0.5543   0.3221   0.5336     C
C       0.5624   0.5752   0.4705     C
C       0.5624   0.9248   0.9705     C
N       0.5664   0.5404   0.5573     N
N       0.5664   0.9596   0.0573     N
H       0.5665   0.0172   0.2093     H
H       0.5665   0.4828   0.7093     H
H        0.577   0.2189   0.7127     H
H        0.577   0.2811   0.2127     H
C       0.5812   0.2422     0.66     C
C       0.5812   0.2578     0.16     C
C       0.5839      0.6   0.3398     C
C       0.5839      0.9   0.8398     C
C       0.5904   0.0328   0.1852     C
C       0.5904   0.4672   0.6852     C
N       0.5922   0.5659   0.4175     N
N       0.5922   0.9341   0.9175     N
C       0.5925   0.1867   0.0012     C
C       0.5925   0.3133   0.5012     C
H       0.5976   0.1642   0.9485     H
H       0.5976   0.3358   0.4485     H
C       0.5983   0.0052   0.0996     C
C       0.5983   0.4948   0.5996     C
H       0.6026   0.0421    0.821     H
H       0.6026   0.4579    0.321     H
H       0.6081   0.6174   0.2317     H
H       0.6081   0.8826   0.7317     H
N       0.6102   0.5882    0.276     N
N       0.6102   0.9118    0.776     N
H       0.6105   0.0998    0.284     H
H       0.6105   0.4002    0.784     H
C       0.6159   0.2337   0.6278     C
C       0.6159   0.2663   0.1278     C
C        0.617   0.0805   0.2304     C
C        0.617   0.4195   0.7304     C
C       0.6243   0.2327   0.0535     C
C       0.6243   0.2673   0.5535     C
C       0.6293   0.0332   0.8027     C
C       0.6293   0.4668   0.3027     C
C       0.6348   0.0265    0.071     C
C       0.6348   0.4735    0.571     C
H       0.6369   0.2025   0.6573     H
H       0.6369   0.2975   0.1573     H
C       0.6388   0.5366    0.274     C
C       0.6388   0.9634    0.774     C
H       0.6411   0.0082   0.0165     H
H       0.6411   0.4918   0.5165     H
C       0.6536   0.1018   0.1995     C
C       0.6536   0.3982   0.6995     C
H       0.6539   0.1228   0.8314     H
H       0.6539   0.3772   0.3314     H
C       0.6582   0.0823   0.8026     C
C       0.6582   0.4177   0.3026     C
C        0.663   0.0734   0.1186     C
C        0.663   0.4266   0.6186     C
C       0.6652   0.2439   0.0154     C
C       0.6652   0.2561   0.5154     C
O       0.6679    0.208   0.9392     O
O       0.6679    0.292   0.4392     O
O       0.6743   0.1736   0.3301     O
O       0.6743   0.3264   0.8301     O
C        0.675   0.5408   0.2317     C
C        0.675   0.9592   0.7317     C
H       0.6799   0.5814   0.2038     H
H       0.6799   0.9186   0.7038     H
C       0.6857   0.1537   0.2562     C
C       0.6857   0.3463   0.7562     C
H       0.6882   0.0866   0.0974     H
H       0.6882   0.4134   0.5974     H
C       0.6966   0.0758   0.7594     C
C       0.6966   0.4242   0.2594     C
O       0.6981   0.2288   0.5563     O
O       0.6981   0.2712   0.0563     O
C       0.7031   0.0091   0.7284     C
C       0.7031   0.4909   0.2284     C
O        0.717     0.19   0.7797     O
O        0.717     0.31   0.2797     O
O       0.7199   0.1754   0.2295     O
O       0.7199   0.3246   0.7295     O
C       0.7242   0.1307   0.7498     C
C       0.7242   0.3693   0.2498     C
H       0.7284   0.0003   0.7047     H
H       0.7284   0.4997   0.2047     H
Tb     0.73366  0.23814  0.41297    Tb
Tb     0.73366  0.26186  0.91297    Tb
O       0.7558   0.1201   0.4394     O
O       0.7558   0.3799   0.9394     O
O       0.7567   0.1245   0.7047     O
O       0.7567   0.3755   0.2047     O
Tb     0.76213   0.2458  0.67979    Tb
Tb     0.76213   0.2542  0.17979    Tb
O       0.7648    0.163   0.9809     O
O       0.7648    0.337   0.4809     O
C       0.7825   0.1344   0.5167     C
C       0.7825   0.3656   0.0167     C
O       0.7849   0.1932   0.5517     O
O       0.7849   0.3068   0.0517     O
H        0.787   0.0048   0.4625     H
H        0.787   0.4952   0.9625     H
C       0.7931   0.1447   0.0503     C
C       0.7931   0.3553   0.5503     C
O       0.7962   0.1624   0.1311     O
O       0.7962   0.3376   0.6311     O
O       0.8005   0.2346   0.3518     O
O       0.8005   0.2654   0.8518     O
H        0.804   0.0828   0.8945     H
H        0.804   0.4172   0.3945     H
C       0.8084   0.0127   0.5172     C
C       0.8084   0.4873   0.0172     C
C       0.8104   0.0792   0.5618     C
C       0.8104   0.4208   0.0618     C
C        0.827   0.0689   0.9433     C
C        0.827   0.4311   0.4433     C
C       0.8274   0.0941   0.0328     C
C       0.8274   0.4059   0.5328     C
H       0.8334   0.5797   0.0268     H
H       0.8334   0.9203   0.5268     H
C       0.8347   0.2391   0.8332     C
C       0.8347   0.2609   0.3332     C
C       0.8367    0.537   0.0536     C
C       0.8367    0.963   0.5536     C
O       0.8373   0.2267    0.753     O
O       0.8373   0.2733    0.253     O
C       0.8447    0.087   0.6392     C
C       0.8447    0.413   0.1392     C
H       0.8462   0.1285   0.6692     H
H       0.8462   0.3715   0.1692     H
H        0.853   0.2246   0.5206     H
H        0.853   0.2754   0.0206     H
H       0.8574   0.0077    0.861     H
H       0.8574   0.4923    0.361     H
C       0.8593   0.0236   0.9217     C
C       0.8593   0.4764   0.4217     C
C       0.8619   0.0746   0.1017     C
C       0.8619   0.4254   0.6017     C
H       0.8656   0.0956   0.1599     H
H       0.8656   0.4044   0.6599     H
C       0.8716   0.5242   0.1328     C
C       0.8716   0.9758   0.6328     C
C        0.874   0.2264    0.912     C
C        0.874   0.2736    0.412     C
C       0.8758   0.2496   0.0055     C
C       0.8758   0.2504   0.5055     C
C       0.8764   0.0416   0.6771     C
C       0.8764   0.4584   0.1771     C
C       0.8921   0.0248   0.0902     C
C       0.8921   0.4752   0.5902     C
C       0.8938   0.0041   0.9955     C
C       0.8938   0.4959   0.4955     C
H       0.8996   0.0519   0.7277     H
H       0.8996   0.4481   0.2277     H
N       0.9051   0.5747   0.1654     N
N       0.9051   0.9253   0.6654     N
C       0.9089   0.1911   0.8928     C
C       0.9089   0.3089   0.3928     C
H       0.9099   0.1822   0.8307     H
H       0.9099   0.3178   0.3307     H
C       0.9105   0.2331   0.0672     C
C       0.9105   0.2669   0.5672     C
H       0.9107   0.0052    0.142     H
H       0.9107   0.4948    0.642     H
H       0.9107   0.6024   0.1241     H
H       0.9107   0.8976   0.6241     H
N        0.911   0.5545    0.328     N
N        0.911   0.9455    0.828     N
H       0.9136   0.2477   0.6264     H
H       0.9136   0.2523   0.1264     H
N       0.9287   0.5375   0.4889     N
N       0.9287   0.9625   0.9889     N
C       0.9288   0.5832    0.255     C
C       0.9288   0.9168    0.755     C
C       0.9382   0.5656   0.4113     C
C       0.9382   0.9344   0.9113     C
C       0.9446   0.1669   0.9676     C
C       0.9446   0.1881   0.0541     C
C       0.9446   0.3119   0.5541     C
C       0.9446   0.3331   0.4676     C
H        0.947   0.5468   0.5408     H
H        0.947   0.9532   0.0408     H
N       0.9601   0.6245   0.2604     N
N       0.9601   0.8755   0.7604     N
H       0.9665   0.1378   0.9556     H
H       0.9665   0.3622   0.4556     H
H       0.9741   0.1894   0.1916     H
H       0.9741   0.3106   0.6916     H
N       0.9757    0.606   0.4313     N
N       0.9757    0.894   0.9313     N
N       0.9786   0.1736   0.1395     N
N       0.9786   0.3264   0.6395     N
C       0.9846   0.6383   0.3572     C
C       0.9846   0.8617   0.8572     C
