data_I
_chemical_name_common  '/home/zhangsd/repos/MofS-CGCNN/ML/data/SSD/clean_cifs/BAKGAX_clean'
_cell_length_a  7.32460
_cell_length_b 13.22400
_cell_length_c 22.76690
_cell_angle_alpha 90.00000
_cell_angle_beta  90.00000
_cell_angle_gamma 90.00000
_space_group_name_H-M_alt      'P 1'


loop_
_space_group_symop_operation_xyz
  'x, y, z' 

loop_
_atom_site_label
_atom_site_fract_x
_atom_site_fract_y
_atom_site_fract_z
_atom_site_type_symbol
O        0.105     0.25  0.21016     O
H        0.105     0.25   0.7784     H
O       0.1107  0.15912  0.11747     O
O       0.1107  0.34088  0.11747     O
O       0.1264     0.75  0.65561     O
N       0.1341   0.5273  0.71343     N
N       0.1341   0.9727  0.71343     N
C       0.1359     0.25  0.73785     C
H       0.1397     0.25   0.3495     H
N       0.1407   0.5934  0.75756     N
N       0.1407   0.9066  0.75756     N
C       0.1474   0.0627  0.73987     C
C       0.1474   0.4373  0.73987     C
N       0.1552   0.5446  0.80816     N
N       0.1552   0.9554  0.80816     N
Co     0.15643     0.75  0.75854    Co
C       0.1585   0.1592  0.70813     C
C       0.1585   0.3408  0.70813     C
N       0.1594    0.055  0.79829     N
N       0.1594    0.445  0.79829     N
Co     0.17312  0.61722  0.88939    Co
Co     0.17312  0.88278  0.88939    Co
S      0.17587     0.25  0.14792     S
N       0.1943      0.7  0.96832     N
N       0.1943      0.8  0.96832     N
C       0.2006   0.1591  0.64831     C
C       0.2006   0.3409  0.64831     C
H       0.2166   0.0969   0.6281     H
H       0.2166   0.4031   0.6281     H
C       0.2192     0.25  0.61837     C
N       0.2231  0.66638  0.02271     N
N       0.2231  0.83362  0.02271     N
C       0.2409     0.75  0.05478     C
O       0.2439     0.75  0.84536     O
O       0.2561     0.25  0.34536     O
C       0.2591     0.25  0.55478     C
N       0.2769  0.16638  0.52271     N
N       0.2769  0.33362  0.52271     N
C       0.2808     0.75  0.11837     C
H       0.2834   0.5969   0.1281     H
H       0.2834   0.9031   0.1281     H
C       0.2994   0.6591  0.14831     C
C       0.2994   0.8409  0.14831     C
N       0.3057      0.2  0.46832     N
N       0.3057      0.3  0.46832     N
S      0.32413     0.75  0.64792     S
Co     0.32688  0.11722  0.38939    Co
Co     0.32688  0.38278  0.38939    Co
N       0.3406    0.555  0.29829     N
N       0.3406    0.945  0.29829     N
C       0.3415   0.6592  0.20813     C
C       0.3415   0.8408  0.20813     C
Co     0.34357     0.25  0.25854    Co
N       0.3448   0.0446  0.30816     N
N       0.3448   0.4554  0.30816     N
C       0.3526   0.5627  0.23987     C
C       0.3526   0.9373  0.23987     C
N       0.3593   0.0934  0.25756     N
N       0.3593   0.4066  0.25756     N
H       0.3603     0.75   0.8495     H
C       0.3641     0.75  0.23785     C
N       0.3659   0.0273  0.21343     N
N       0.3659   0.4727  0.21343     N
O       0.3736     0.25  0.15561     O
O       0.3893  0.65912  0.61747     O
O       0.3893  0.84088  0.61747     O
H        0.395     0.75   0.2784     H
O        0.395     0.75  0.71016     O
O        0.605     0.25  0.28984     O
H        0.605     0.25   0.7216     H
O       0.6107  0.15912  0.38253     O
O       0.6107  0.34088  0.38253     O
O       0.6264     0.75  0.84439     O
N       0.6341   0.5273  0.78657     N
N       0.6341   0.9727  0.78657     N
C       0.6359     0.25  0.76215     C
H       0.6397     0.25   0.1505     H
N       0.6407   0.5934  0.74244     N
N       0.6407   0.9066  0.74244     N
C       0.6474   0.0627  0.76013     C
C       0.6474   0.4373  0.76013     C
N       0.6552   0.5446  0.69184     N
N       0.6552   0.9554  0.69184     N
Co     0.65643     0.75  0.74146    Co
C       0.6585   0.1592  0.79187     C
C       0.6585   0.3408  0.79187     C
N       0.6594    0.055  0.70171     N
N       0.6594    0.445  0.70171     N
Co     0.67312  0.61722  0.61061    Co
Co     0.67312  0.88278  0.61061    Co
S      0.67587     0.25  0.35208     S
N       0.6943      0.7  0.53168     N
N       0.6943      0.8  0.53168     N
C       0.7006   0.1591  0.85169     C
C       0.7006   0.3409  0.85169     C
H       0.7166   0.0969   0.8719     H
H       0.7166   0.4031   0.8719     H
C       0.7192     0.25  0.88163     C
N       0.7231  0.66638  0.47729     N
N       0.7231  0.83362  0.47729     N
C       0.7409     0.75  0.44522     C
O       0.7439     0.75  0.65464     O
O       0.7561     0.25  0.15464     O
C       0.7591     0.25  0.94522     C
N       0.7769  0.16638  0.97729     N
N       0.7769  0.33362  0.97729     N
C       0.7808     0.75  0.38163     C
H       0.7834   0.5969   0.3719     H
H       0.7834   0.9031   0.3719     H
C       0.7994   0.6591  0.35169     C
C       0.7994   0.8409  0.35169     C
N       0.8057      0.2  0.03168     N
N       0.8057      0.3  0.03168     N
S      0.82413     0.75  0.85208     S
Co     0.82688  0.11722  0.11061    Co
Co     0.82688  0.38278  0.11061    Co
N       0.8406    0.555  0.20171     N
N       0.8406    0.945  0.20171     N
C       0.8415   0.6592  0.29187     C
C       0.8415   0.8408  0.29187     C
Co     0.84357     0.25  0.24146    Co
N       0.8448   0.0446  0.19184     N
N       0.8448   0.4554  0.19184     N
C       0.8526   0.5627  0.26013     C
C       0.8526   0.9373  0.26013     C
N       0.8593   0.0934  0.24244     N
N       0.8593   0.4066  0.24244     N
H       0.8603     0.75   0.6505     H
C       0.8641     0.75  0.26215     C
N       0.8659   0.0273  0.28657     N
N       0.8659   0.4727  0.28657     N
O       0.8736     0.25  0.34439     O
O       0.8893  0.65912  0.88253     O
O       0.8893  0.84088  0.88253     O
H        0.895     0.75   0.2216     H
O        0.895     0.75  0.78984     O
