data_I
_chemical_name_common  '/home/zhangsd/repos/MofS-CGCNN/ML/data/SSD/clean_cifs/BAKJII_clean'
_cell_length_a 11.85000
_cell_length_b 13.85300
_cell_length_c 13.94400
_cell_angle_alpha 90.00000
_cell_angle_beta  114.79300
_cell_angle_gamma 90.00000
_space_group_name_H-M_alt      'P 1'


loop_
_space_group_symop_operation_xyz
  'x, y, z' 

loop_
_atom_site_label
_atom_site_fract_x
_atom_site_fract_y
_atom_site_fract_z
_atom_site_type_symbol
H       0.0008   0.7478   0.2628     H
H       0.0008   0.7522   0.7628     H
O       0.0159   0.6454   0.9247     O
O       0.0159   0.8546   0.4247     O
O       0.0393   0.6333   0.1386     O
O       0.0393   0.8667   0.6386     O
C       0.0708   0.1065   0.3819     C
C       0.0708   0.3935   0.8819     C
C       0.0854   0.2351   0.2599     C
C       0.0854   0.2649   0.7599     C
C       0.0947   0.1306   0.6426     C
C       0.0947   0.3694   0.1426     C
Co      0.1065  0.55813  0.04996    Co
Co      0.1065  0.94187  0.54996    Co
O       0.1264   0.0385   0.4427     O
O       0.1264   0.4615   0.9427     O
C        0.141   0.1622    0.332     C
C        0.141   0.3378    0.832     C
C       0.1551   0.2099   0.7204     C
C       0.1551   0.2901   0.2204     C
O       0.1583   0.0563   0.6496     O
O       0.1583   0.4437   0.1496     O
H       0.2568   0.7464   0.1016     H
H       0.2568   0.7536   0.6016     H
C       0.2662   0.1402   0.3604     C
C       0.2662   0.3598   0.8604     C
C       0.2814   0.2307   0.7514     C
C       0.2814   0.2693   0.2514     C
N       0.2862   0.6062    0.097     N
N       0.2862   0.8938    0.597     N
H       0.3039   0.0889   0.4084     H
H       0.3039   0.4111   0.9084     H
C       0.3192   0.6995   0.1112     C
C       0.3192   0.8005   0.6112     C
H       0.3296   0.1924   0.7262     H
H       0.3296   0.3076   0.2262     H
C       0.3361    0.192   0.3197     C
C       0.3361    0.308   0.8197     C
H       0.3542   0.0261   0.6037     H
H       0.3542   0.4739   0.1037     H
C       0.3758   0.5404    0.112     C
C       0.3758   0.9596    0.612     C
C       0.4392   0.7307   0.1392     C
C       0.4392   0.7693   0.6392     C
H        0.441   0.0182   0.3514     H
H        0.441   0.4818   0.8514     H
H       0.4584   0.7025   0.6494     H
H       0.4584   0.7975   0.1494     H
C       0.4675   0.1637   0.3476     C
C       0.4675   0.3363   0.8476     C
C       0.4983   0.5665   0.1391     C
C       0.4983   0.9335   0.6391     C
C       0.5017   0.0665   0.3609     C
C       0.5017   0.4335   0.8609     C
C       0.5325   0.6637   0.1524     C
C       0.5325   0.8363   0.6524     C
H       0.5416   0.2025   0.8506     H
H       0.5416   0.2975   0.3506     H
H        0.559   0.5182   0.1486     H
H        0.559   0.9818   0.6486     H
C       0.5608   0.2307   0.3608     C
C       0.5608   0.2693   0.8608     C
C       0.6242   0.0404    0.388     C
C       0.6242   0.4596    0.888     C
H       0.6458   0.5261   0.8963     H
H       0.6458   0.9739   0.3963     H
C       0.6639    0.692   0.1803     C
C       0.6639    0.808   0.6803     C
H       0.6704   0.6924   0.7738     H
H       0.6704   0.8076   0.2738     H
C       0.6808   0.1995   0.3888     C
C       0.6808   0.3005   0.8888     C
H       0.6961   0.5889   0.0916     H
H       0.6961   0.9111   0.5916     H
N       0.7138   0.1062    0.403     N
N       0.7138   0.3938    0.903     N
C       0.7186   0.7307   0.7486     C
C       0.7186   0.7693   0.2486     C
C       0.7338   0.6402   0.1396     C
C       0.7338   0.8598   0.6396     C
H       0.7432   0.2464   0.3984     H
H       0.7432   0.2536   0.8984     H
O       0.8417   0.5563   0.8504     O
O       0.8417   0.9437   0.3504     O
C       0.8449   0.7099   0.7796     C
C       0.8449   0.7901   0.2796     C
C        0.859   0.6622    0.168     C
C        0.859   0.8378    0.668     C
O       0.8736   0.5385   0.0573     O
O       0.8736   0.9615   0.5573     O
Co      0.8935  0.05813  0.45004    Co
Co      0.8935  0.44187  0.95004    Co
C       0.9053   0.6306   0.8574     C
C       0.9053   0.8694   0.3574     C
C       0.9146   0.7351   0.2401     C
C       0.9146   0.7649   0.7401     C
C       0.9292   0.6065   0.1181     C
C       0.9292   0.8935   0.6181     C
O       0.9607   0.1333   0.3614     O
O       0.9607   0.3667   0.8614     O
O       0.9841   0.1454   0.5753     O
O       0.9841   0.3546   0.0753     O
H       0.9992   0.2478   0.2372     H
H       0.9992   0.2522   0.7372     H
