data_I
_chemical_name_common  '/home/zhangsd/repos/MofS-CGCNN/ML/data/SSD/clean_cifs/BEFKUU_clean'
_cell_length_a 13.86650
_cell_length_b 13.86650
_cell_length_c 15.05600
_cell_angle_alpha 90.00000
_cell_angle_beta  90.00000
_cell_angle_gamma 120.00000
_space_group_name_H-M_alt      'P 1'


loop_
_space_group_symop_operation_xyz
  'x, y, z' 

loop_
_atom_site_label
_atom_site_fract_x
_atom_site_fract_y
_atom_site_fract_z
_atom_site_type_symbol
Al     0.00747  0.23143  0.90473    Al
O      0.00827  0.69273  0.82433     O
P      0.00923  0.23387  0.11227     P
O      0.01023  0.27387  0.01957     O
O       0.0178   0.6584    0.491     O
O      0.02607  0.35113  0.84233     O
O      0.05947  0.40303  0.68623     O
O       0.0697   0.6769   0.6471     O
O      0.08077  0.88543  0.87733     O
O      0.08677  0.54103  0.80213     O
P      0.09947  0.44203  0.77893     P
Al      0.1019   0.4427   0.5714    Al
P       0.1087   0.6759   0.5544     P
Al     0.10937  0.67413  0.76193    Al
O      0.11457  0.19533  0.87733     O
O      0.12093  0.24657  0.13547     O
O      0.12563  0.87907  0.13547     O
O        0.138   0.5859    0.544     O
O      0.19533  0.08077  0.12267     O
O       0.2077   0.7876   0.5312     O
O       0.2124   0.4201   0.5312     O
O      0.21877  0.47133  0.78933     O
Al     0.22397  0.99253  0.90473    Al
P      0.22463  0.99077  0.11227     P
Al     0.23143  0.22397  0.09527    Al
P      0.23387  0.22463  0.88773     P
O      0.24657  0.12563  0.86453     O
O      0.25257  0.78123  0.78933     O
O      0.26363  0.98977  0.01957     O
O      0.27387  0.26363  0.98043     O
O      0.30727  0.31553  0.82433     O
O      0.31553  0.00827  0.17567     O
O       0.3231   0.3928   0.6471     O
P       0.3241   0.4328   0.5544     P
O      0.32507  0.97393  0.84233     O
Al     0.32587  0.43523  0.76193    Al
Al      0.3408   0.8981   0.5714    Al
O       0.3416   0.3594    0.491     O
P      0.34257  0.90053  0.77893     P
O      0.34357  0.94053  0.68623     O
O      0.35113  0.32507  0.15767     O
O       0.3594   0.0178    0.509     O
O       0.3928   0.0697   0.3529     O
O      0.40303  0.34357  0.31377     O
O       0.4141   0.5521    0.544     O
O       0.4201   0.2077   0.4688     O
P       0.4328   0.1087   0.4456     P
Al     0.43523  0.10937  0.23807    Al
P      0.44203  0.34257  0.22107     P
Al      0.4427   0.3408   0.4286    Al
O       0.4479    0.862    0.544     O
O      0.45427  0.91323  0.80213     O
O      0.45897  0.54573  0.80213     O
O      0.47133  0.25257  0.21067     O
O      0.52867  0.74743  0.78933     O
O      0.54103  0.45427  0.19787     O
O      0.54573  0.08677  0.19787     O
O       0.5521    0.138    0.456     O
Al      0.5573   0.6592   0.5714    Al
P      0.55797  0.65743  0.77893     P
Al     0.56477  0.89063  0.76193    Al
P       0.5672   0.8913   0.5544     P
O       0.5799   0.7923   0.5312     O
O       0.5859   0.4479    0.456     O
O      0.59697  0.65643  0.68623     O
O       0.6072   0.9303   0.6471     O
O       0.6406   0.9822    0.491     O
O      0.64887  0.67493  0.84233     O
O      0.65643  0.05947  0.31377     O
P      0.65743  0.09947  0.22107     P
O       0.6584   0.6406    0.509     O
Al      0.6592   0.1019   0.4286    Al
Al     0.67413  0.56477  0.23807    Al
O      0.67493  0.02607  0.15767     O
P       0.6759   0.5672   0.4456     P
O       0.6769   0.6072   0.3529     O
O      0.68447  0.99173  0.82433     O
O      0.69273  0.68447  0.17567     O
O      0.72613  0.73637  0.01957     O
O      0.73637  0.01023  0.98043     O
O      0.74743  0.21877  0.21067     O
O      0.75343  0.87437  0.13547     O
P      0.76613  0.77537  0.11227     P
Al     0.76857  0.77603  0.90473    Al
P      0.77537  0.00923  0.88773     P
Al     0.77603  0.00747  0.09527    Al
O      0.78123  0.52867  0.21067     O
O       0.7876   0.5799   0.4688     O
O       0.7923   0.2124   0.4688     O
O      0.80467  0.91923  0.87733     O
O        0.862   0.4141    0.456     O
O      0.87437  0.12093  0.86453     O
O      0.87907  0.75343  0.86453     O
O      0.88543  0.80467  0.12267     O
Al     0.89063  0.32587  0.23807    Al
P       0.8913   0.3241   0.4456     P
Al      0.8981   0.5573   0.4286    Al
P      0.90053  0.55797  0.22107     P
O      0.91323  0.45897  0.19787     O
O      0.91923  0.11457  0.12267     O
O       0.9303   0.3231   0.3529     O
O      0.94053  0.59697  0.31377     O
O      0.97393  0.64887  0.15767     O
O       0.9822   0.3416    0.509     O
O      0.98977  0.72613  0.98043     O
P      0.99077  0.76613  0.88773     P
O      0.99173  0.30727  0.17567     O
Al     0.99253  0.76857  0.09527    Al
