data_I
_chemical_name_common  '/home/zhangsd/repos/MofS-CGCNN/ML/data/SSD/clean_cifs/BEFLIJ_clean'
_cell_length_a 10.22030
_cell_length_b 14.14500
_cell_length_c 14.60100
_cell_angle_alpha 90.00000
_cell_angle_beta  90.00000
_cell_angle_gamma 90.00000
_space_group_name_H-M_alt      'P 1'


loop_
_space_group_symop_operation_xyz
  'x, y, z' 

loop_
_atom_site_label
_atom_site_fract_x
_atom_site_fract_y
_atom_site_fract_z
_atom_site_type_symbol
O       0.0133   0.3514   0.6554     O
O       0.0133   0.3986   0.0946     O
O       0.0133   0.8514   0.1554     O
O       0.0133   0.8986   0.5946     O
O       0.0788   0.0219   0.7031     O
O       0.0788   0.2281   0.5469     O
O       0.0788   0.5219   0.2031     O
O       0.0788   0.7281   0.0469     O
Al       0.125    0.125   0.4795    Al
Al       0.125    0.125   0.7705    Al
P        0.125    0.289    0.625     P
P        0.125    0.461    0.125     P
Al       0.125    0.625   0.2705    Al
Al       0.125    0.625   0.9795    Al
P        0.125    0.789    0.125     P
P        0.125    0.961    0.625     P
O       0.1712   0.0219   0.5469     O
O       0.1712   0.2281   0.7031     O
O       0.1712   0.5219   0.0469     O
O       0.1712   0.7281   0.2031     O
O       0.2367   0.3514   0.5946     O
O       0.2367   0.3986   0.1554     O
O       0.2367   0.8514   0.0946     O
O       0.2367   0.8986   0.6554     O
O       0.2633   0.1014   0.8446     O
O       0.2633   0.1486   0.4054     O
O       0.2633   0.6014   0.3446     O
O       0.2633   0.6486   0.9054     O
O       0.3288   0.2719   0.2969     O
O       0.3288   0.4781   0.4531     O
O       0.3288   0.7719   0.7969     O
O       0.3288   0.9781   0.9531     O
P        0.375    0.039    0.875     P
P        0.375    0.211    0.375     P
Al       0.375    0.375   0.2295    Al
Al       0.375    0.375   0.5205    Al
P        0.375    0.539    0.375     P
P        0.375    0.711    0.875     P
Al       0.375    0.875   0.0205    Al
Al       0.375    0.875   0.7295    Al
O       0.4212   0.2719   0.4531     O
O       0.4212   0.4781   0.2969     O
O       0.4212   0.7719   0.9531     O
O       0.4212   0.9781   0.7969     O
O       0.4867   0.1014   0.9054     O
O       0.4867   0.1486   0.3446     O
O       0.4867   0.6014   0.4054     O
O       0.4867   0.6486   0.8446     O
O       0.5133   0.3514   0.1554     O
O       0.5133   0.3986   0.5946     O
O       0.5133   0.8514   0.6554     O
O       0.5133   0.8986   0.0946     O
O       0.5788   0.0219   0.2031     O
O       0.5788   0.2281   0.0469     O
O       0.5788   0.5219   0.7031     O
O       0.5788   0.7281   0.5469     O
Al       0.625    0.125   0.2705    Al
Al       0.625    0.125   0.9795    Al
P        0.625    0.289    0.125     P
P        0.625    0.461    0.625     P
Al       0.625    0.625   0.4795    Al
Al       0.625    0.625   0.7705    Al
P        0.625    0.789    0.625     P
P        0.625    0.961    0.125     P
O       0.6712   0.0219   0.0469     O
O       0.6712   0.2281   0.2031     O
O       0.6712   0.5219   0.5469     O
O       0.6712   0.7281   0.7031     O
O       0.7367   0.3514   0.0946     O
O       0.7367   0.3986   0.6554     O
O       0.7367   0.8514   0.5946     O
O       0.7367   0.8986   0.1554     O
O       0.7633   0.1014   0.3446     O
O       0.7633   0.1486   0.9054     O
O       0.7633   0.6014   0.8446     O
O       0.7633   0.6486   0.4054     O
O       0.8288   0.2719   0.7969     O
O       0.8288   0.4781   0.9531     O
O       0.8288   0.7719   0.2969     O
O       0.8288   0.9781   0.4531     O
P        0.875    0.039    0.375     P
P        0.875    0.211    0.875     P
Al       0.875    0.375   0.0205    Al
Al       0.875    0.375   0.7295    Al
P        0.875    0.539    0.875     P
P        0.875    0.711    0.375     P
Al       0.875    0.875   0.2295    Al
Al       0.875    0.875   0.5205    Al
O       0.9212   0.2719   0.9531     O
O       0.9212   0.4781   0.7969     O
O       0.9212   0.7719   0.4531     O
O       0.9212   0.9781   0.2969     O
O       0.9867   0.1014   0.4054     O
O       0.9867   0.1486   0.8446     O
O       0.9867   0.6014   0.9054     O
O       0.9867   0.6486   0.3446     O
