data_I
_chemical_name_common  '/home/zhangsd/repos/MofS-CGCNN/ML/data/SSD/clean_cifs/BEFLEF_clean'
_cell_length_a 13.82570
_cell_length_b 14.47880
_cell_length_c 10.16580
_cell_angle_alpha 90.00000
_cell_angle_beta  90.00000
_cell_angle_gamma 90.00000
_space_group_name_H-M_alt      'P 1'


loop_
_space_group_symop_operation_xyz
  'x, y, z' 

loop_
_atom_site_label
_atom_site_fract_x
_atom_site_fract_y
_atom_site_fract_z
_atom_site_type_symbol
Al         0.0   0.0897     0.75    Al
Al         0.0   0.3843     0.75    Al
Al         0.0   0.6157     0.25    Al
Al         0.0   0.9103     0.25    Al
O       0.0032   0.4535   0.8954     O
O       0.0032   0.5465   0.1046     O
O       0.0312   0.0155   0.6155     O
O       0.0312   0.9845   0.3845     O
P       0.0684      0.5      0.0     P
P        0.095      0.0      0.5     P
O        0.101   0.1552   0.8064     O
O        0.101   0.8448   0.1936     O
O       0.1088   0.3149   0.7249     O
O       0.1088   0.6851   0.2751     O
O       0.1308   0.4298   0.0698     O
O       0.1308   0.5702   0.9302     O
O       0.1569   0.0845   0.4796     O
O       0.1569   0.9155   0.5204     O
P       0.1673    0.237   0.7842     P
P       0.1673    0.763   0.2158     P
O       0.2121   0.2601   0.9106     O
O       0.2121   0.7399   0.0894     O
Al      0.2364   0.3528   0.0327    Al
Al      0.2364   0.6472   0.9673    Al
O       0.2462   0.2132   0.6904     O
O       0.2462   0.7868   0.3096     O
O       0.2538   0.2868   0.1904     O
O       0.2538   0.7132   0.8096     O
Al      0.2636   0.1472   0.5327    Al
Al      0.2636   0.8528   0.4673    Al
O       0.2879   0.2399   0.4106     O
O       0.2879   0.7601   0.5894     O
P       0.3327    0.263   0.2842     P
P       0.3327    0.737   0.7158     P
O       0.3431   0.4155   0.9796     O
O       0.3431   0.5845   0.0204     O
O       0.3692   0.0702   0.5698     O
O       0.3692   0.9298   0.4302     O
O       0.3912   0.1851   0.2249     O
O       0.3912   0.8149   0.7751     O
O        0.399   0.3448   0.3064     O
O        0.399   0.6552   0.6936     O
P        0.405      0.5      0.0     P
P       0.4316      0.0      0.5     P
O       0.4688   0.4845   0.1155     O
O       0.4688   0.5155   0.8845     O
O       0.4968   0.0465   0.3954     O
O       0.4968   0.9535   0.6046     O
Al         0.5   0.1157     0.25    Al
Al         0.5   0.4103     0.25    Al
Al         0.5   0.5897     0.75    Al
Al         0.5   0.8843     0.75    Al
O       0.5032   0.0465   0.1046     O
O       0.5032   0.9535   0.8954     O
O       0.5312   0.4845   0.3845     O
O       0.5312   0.5155   0.6155     O
P       0.5684      0.0      0.0     P
P        0.595      0.5      0.5     P
O        0.601   0.3448   0.1936     O
O        0.601   0.6552   0.8064     O
O       0.6088   0.1851   0.2751     O
O       0.6088   0.8149   0.7249     O
O       0.6308   0.0702   0.9302     O
O       0.6308   0.9298   0.0698     O
O       0.6569   0.4155   0.5204     O
O       0.6569   0.5845   0.4796     O
P       0.6673    0.263   0.2158     P
P       0.6673    0.737   0.7842     P
O       0.7121   0.2399   0.0894     O
O       0.7121   0.7601   0.9106     O
Al      0.7364   0.1472   0.9673    Al
Al      0.7364   0.8528   0.0327    Al
O       0.7462   0.2868   0.3096     O
O       0.7462   0.7132   0.6904     O
O       0.7538   0.2132   0.8096     O
O       0.7538   0.7868   0.1904     O
Al      0.7636   0.3528   0.4673    Al
Al      0.7636   0.6472   0.5327    Al
O       0.7879   0.2601   0.5894     O
O       0.7879   0.7399   0.4106     O
P       0.8327    0.237   0.7158     P
P       0.8327    0.763   0.2842     P
O       0.8431   0.0845   0.0204     O
O       0.8431   0.9155   0.9796     O
O       0.8692   0.4298   0.4302     O
O       0.8692   0.5702   0.5698     O
O       0.8912   0.3149   0.7751     O
O       0.8912   0.6851   0.2249     O
O        0.899   0.1552   0.6936     O
O        0.899   0.8448   0.3064     O
P        0.905      0.0      0.0     P
P       0.9316      0.5      0.5     P
O       0.9688   0.0155   0.8845     O
O       0.9688   0.9845   0.1155     O
O       0.9968   0.4535   0.6046     O
O       0.9968   0.5465   0.3954     O
