data_I
_chemical_name_common  '/home/zhangsd/repos/MofS-CGCNN/ML/data/SSD/clean_cifs/BEFLUV_clean'
_cell_length_a 14.66150
_cell_length_b 14.66150
_cell_length_c  9.61460
_cell_angle_alpha 90.00000
_cell_angle_beta  90.00000
_cell_angle_gamma 90.00000
_space_group_name_H-M_alt      'P 1'


loop_
_space_group_symop_operation_xyz
  'x, y, z' 

loop_
_atom_site_label
_atom_site_fract_x
_atom_site_fract_y
_atom_site_fract_z
_atom_site_type_symbol
O       0.0013   0.2471   0.4762     O
O       0.0013   0.2529   0.0238     O
Al      0.0076    0.636   0.6001    Al
Al      0.0076    0.864   0.8999    Al
P       0.0112   0.6478   0.9358     P
P       0.0112   0.8522   0.5642     P
O       0.0452   0.6359   0.7903     O
O       0.0452   0.8641   0.7097     O
O       0.0739   0.0949   0.4653     O
O       0.0739   0.4051   0.0347     O
O       0.0859   0.6156   0.0304     O
O       0.0859   0.8844   0.4696     O
O       0.0949   0.0739   0.0347     O
O       0.0949   0.4261   0.4653     O
O       0.1156   0.5859   0.5304     O
O       0.1156   0.9141   0.9696     O
O       0.1359   0.5452   0.2903     O
O       0.1359   0.9548   0.2097     O
Al       0.136   0.5076   0.1001    Al
Al       0.136   0.9924   0.3999    Al
P       0.1478   0.5112   0.4358     P
P       0.1478   0.9888   0.0642     P
O       0.2471   0.0013   0.0238     O
O       0.2471   0.4987   0.4762     O
O       0.2529   0.0013   0.4762     O
O       0.2529   0.4987   0.0238     O
P       0.3522   0.5112   0.0642     P
P       0.3522   0.9888   0.4358     P
Al       0.364   0.5076   0.3999    Al
Al       0.364   0.9924   0.1001    Al
O       0.3641   0.5452   0.2097     O
O       0.3641   0.9548   0.2903     O
O       0.3844   0.5859   0.9696     O
O       0.3844   0.9141   0.5304     O
O       0.4051   0.0739   0.4653     O
O       0.4051   0.4261   0.0347     O
O       0.4141   0.6156   0.4696     O
O       0.4141   0.8844   0.0304     O
O       0.4261   0.0949   0.0347     O
O       0.4261   0.4051   0.4653     O
O       0.4548   0.6359   0.7097     O
O       0.4548   0.8641   0.7903     O
P       0.4888   0.6478   0.5642     P
P       0.4888   0.8522   0.9358     P
Al      0.4924    0.636   0.8999    Al
Al      0.4924    0.864   0.6001    Al
O       0.4987   0.2471   0.0238     O
O       0.4987   0.2529   0.4762     O
O       0.5013   0.7471   0.5238     O
O       0.5013   0.7529   0.9762     O
Al      0.5076    0.136   0.3999    Al
Al      0.5076    0.364   0.1001    Al
P       0.5112   0.1478   0.0642     P
P       0.5112   0.3522   0.4358     P
O       0.5452   0.1359   0.2097     O
O       0.5452   0.3641   0.2903     O
O       0.5739   0.5949   0.5347     O
O       0.5739   0.9051   0.9653     O
O       0.5859   0.1156   0.9696     O
O       0.5859   0.3844   0.5304     O
O       0.5949   0.5739   0.9653     O
O       0.5949   0.9261   0.5347     O
O       0.6156   0.0859   0.4696     O
O       0.6156   0.4141   0.0304     O
O       0.6359   0.0452   0.7097     O
O       0.6359   0.4548   0.7903     O
Al       0.636   0.0076   0.8999    Al
Al       0.636   0.4924   0.6001    Al
P       0.6478   0.0112   0.5642     P
P       0.6478   0.4888   0.9358     P
O       0.7471   0.5013   0.9762     O
O       0.7471   0.9987   0.5238     O
O       0.7529   0.5013   0.5238     O
O       0.7529   0.9987   0.9762     O
P       0.8522   0.0112   0.9358     P
P       0.8522   0.4888   0.5642     P
Al       0.864   0.0076   0.6001    Al
Al       0.864   0.4924   0.8999    Al
O       0.8641   0.0452   0.7903     O
O       0.8641   0.4548   0.7097     O
O       0.8844   0.0859   0.0304     O
O       0.8844   0.4141   0.4696     O
O       0.9051   0.5739   0.5347     O
O       0.9051   0.9261   0.9653     O
O       0.9141   0.1156   0.5304     O
O       0.9141   0.3844   0.9696     O
O       0.9261   0.5949   0.9653     O
O       0.9261   0.9051   0.5347     O
O       0.9548   0.1359   0.2903     O
O       0.9548   0.3641   0.2097     O
P       0.9888   0.1478   0.4358     P
P       0.9888   0.3522   0.0642     P
Al      0.9924    0.136   0.1001    Al
Al      0.9924    0.364   0.3999    Al
O       0.9987   0.7471   0.9762     O
O       0.9987   0.7529   0.5238     O
