data_I
_chemical_name_common  '/home/zhangsd/repos/MofS-CGCNN/ML/data/SSD/clean_cifs/BEFMAC_clean'
_cell_length_a 10.22330
_cell_length_b 14.60520
_cell_length_c 14.30410
_cell_angle_alpha 90.00000
_cell_angle_beta  90.16200
_cell_angle_gamma 90.00000
_space_group_name_H-M_alt      'P 1'


loop_
_space_group_symop_operation_xyz
  'x, y, z' 

loop_
_atom_site_label
_atom_site_fract_x
_atom_site_fract_y
_atom_site_fract_z
_atom_site_type_symbol
O       0.0334   0.1088   0.5521     O
O       0.0334   0.8912   0.0521     O
O       0.0379   0.3086   0.1136     O
O       0.0379   0.6914   0.6136     O
Al      0.1338   0.2693   0.3711    Al
Al      0.1338   0.7307   0.8711    Al
Al      0.1418   0.1139   0.9837    Al
Al      0.1418   0.8861   0.4837    Al
P       0.1674   0.2648   0.1426     P
P       0.1674   0.7352   0.6426     P
P       0.1695   0.1023    0.513     P
P       0.1695   0.8977    0.013     P
O       0.1741   0.2482   0.2462     O
O       0.1741   0.7518   0.7462     O
O        0.178   0.1548   0.4219     O
O        0.178   0.8452   0.9219     O
O       0.1831   0.1714   0.0961     O
O       0.1831   0.8286   0.5961     O
O       0.2086   0.0037   0.4921     O
O       0.2086   0.9963   0.9921     O
O       0.2215   0.1727    0.883     O
O       0.2215   0.8273    0.383     O
O       0.2347   0.3617   0.4162     O
O       0.2347   0.6383   0.9162     O
O       0.2653   0.1383   0.5838     O
O       0.2653   0.8617   0.0838     O
O       0.2785   0.3273    0.117     O
O       0.2785   0.6727    0.617     O
O       0.2914   0.4963   0.5079     O
O       0.2914   0.5037   0.0079     O
O       0.3169   0.3286   0.9039     O
O       0.3169   0.6714   0.4039     O
O        0.322   0.3452   0.5781     O
O        0.322   0.6548   0.0781     O
O       0.3259   0.2518   0.7538     O
O       0.3259   0.7482   0.2538     O
P       0.3305   0.3977    0.487     P
P       0.3305   0.6023    0.987     P
P       0.3326   0.2352   0.8574     P
P       0.3326   0.7648   0.3574     P
Al      0.3582   0.3861   0.0163    Al
Al      0.3582   0.6139   0.5163    Al
Al      0.3662   0.2307   0.6289    Al
Al      0.3662   0.7693   0.1289    Al
O       0.4621   0.1914   0.8864     O
O       0.4621   0.8086   0.3864     O
O       0.4666   0.3912   0.4479     O
O       0.4666   0.6088   0.9479     O
O       0.5334   0.3912   0.0521     O
O       0.5334   0.6088   0.5521     O
O       0.5379   0.1914   0.6136     O
O       0.5379   0.8086   0.1136     O
Al      0.6338   0.2307   0.8711    Al
Al      0.6338   0.7693   0.3711    Al
Al      0.6418   0.3861   0.4837    Al
Al      0.6418   0.6139   0.9837    Al
P       0.6674   0.2352   0.6426     P
P       0.6674   0.7648   0.1426     P
P       0.6695   0.3977    0.013     P
P       0.6695   0.6023    0.513     P
O       0.6741   0.2518   0.7462     O
O       0.6741   0.7482   0.2462     O
O        0.678   0.3452   0.9219     O
O        0.678   0.6548   0.4219     O
O       0.6831   0.3286   0.5961     O
O       0.6831   0.6714   0.0961     O
O       0.7086   0.4963   0.9921     O
O       0.7086   0.5037   0.4921     O
O       0.7215   0.3273    0.383     O
O       0.7215   0.6727    0.883     O
O       0.7347   0.1383   0.9162     O
O       0.7347   0.8617   0.4162     O
O       0.7653   0.3617   0.0838     O
O       0.7653   0.6383   0.5838     O
O       0.7785   0.1727    0.617     O
O       0.7785   0.8273    0.117     O
O       0.7914   0.0037   0.0079     O
O       0.7914   0.9963   0.5079     O
O       0.8169   0.1714   0.4039     O
O       0.8169   0.8286   0.9039     O
O        0.822   0.1548   0.0781     O
O        0.822   0.8452   0.5781     O
O       0.8259   0.2482   0.2538     O
O       0.8259   0.7518   0.7538     O
P       0.8305   0.1023    0.987     P
P       0.8305   0.8977    0.487     P
P       0.8326   0.2648   0.3574     P
P       0.8326   0.7352   0.8574     P
Al      0.8582   0.1139   0.5163    Al
Al      0.8582   0.8861   0.0163    Al
Al      0.8662   0.2693   0.1289    Al
Al      0.8662   0.7307   0.6289    Al
O       0.9621   0.3086   0.3864     O
O       0.9621   0.6914   0.8864     O
O       0.9666   0.1088   0.9479     O
O       0.9666   0.8912   0.4479     O
