data_I
_chemical_name_common  '/home/zhangsd/repos/MofS-CGCNN/ML/data/SSD/clean_cifs/BEFNUX_clean'
_cell_length_a  8.90910
_cell_length_b 14.97480
_cell_length_c 14.78910
_cell_angle_alpha 90.00000
_cell_angle_beta  90.00000
_cell_angle_gamma 90.00000
_space_group_name_H-M_alt      'P 1'


loop_
_space_group_symop_operation_xyz
  'x, y, z' 

loop_
_atom_site_label
_atom_site_fract_x
_atom_site_fract_y
_atom_site_fract_z
_atom_site_type_symbol
O       0.0233   0.6392   0.1288     O
O       0.0233   0.6392   0.3712     O
O       0.0233   0.8608   0.6288     O
O       0.0233   0.8608   0.8712     O
O       0.0455   0.1491   0.6631     O
O       0.0455   0.1491   0.8369     O
O       0.0455   0.3509   0.1631     O
O       0.0455   0.3509   0.3369     O
Ga      0.0775   0.1302     0.25    Ga
Ga      0.0775   0.3698     0.75    Ga
P       0.1363   0.1694     0.75     P
P       0.1363   0.3306     0.25     P
O       0.1486   0.6152   0.0047     O
O       0.1486   0.6152   0.4953     O
O       0.1486   0.8848   0.5047     O
O       0.1486   0.8848   0.9953     O
Co      0.1556   0.6553   0.6179    Co
Co      0.1556   0.6553   0.8821    Co
Co      0.1556   0.8447   0.1179    Co
Co      0.1556   0.8447   0.3821    Co
P       0.1732    0.634   0.1021     P
P       0.1732    0.634   0.3979     P
P       0.1732    0.866   0.6021     P
P       0.1732    0.866   0.8979     P
O       0.1852   0.2326     0.25     O
O       0.1852   0.2674     0.75     O
O        0.193   0.0296    0.202     O
O        0.193   0.0296    0.298     O
O        0.193   0.4704    0.702     O
O        0.193   0.4704    0.798     O
O       0.2435   0.7264   0.1207     O
O       0.2435   0.7264   0.3793     O
O       0.2435   0.7736   0.6207     O
O       0.2435   0.7736   0.8793     O
O       0.2697   0.5638   0.1353     O
O       0.2697   0.5638   0.3647     O
O       0.2697   0.9362   0.6353     O
O       0.2697   0.9362   0.8647     O
O       0.2851   0.1202     0.75     O
O       0.2851   0.3798     0.25     O
P       0.3113   0.5241     0.75     P
P       0.3113   0.9759     0.25     P
O       0.3175   0.5949   0.6854     O
O       0.3175   0.5949   0.8146     O
O       0.3175   0.9051   0.1854     O
O       0.3175   0.9051   0.3146     O
Co      0.3305   0.5067     0.25    Co
Co      0.3305   0.9933     0.75    Co
O       0.4543     0.03     0.25     O
O       0.4543     0.47     0.75     O
O       0.5457     0.53     0.25     O
O       0.5457     0.97     0.75     O
Co      0.6695   0.0067     0.25    Co
Co      0.6695   0.4933     0.75    Co
O       0.6825   0.0949   0.6854     O
O       0.6825   0.0949   0.8146     O
O       0.6825   0.4051   0.1854     O
O       0.6825   0.4051   0.3146     O
P       0.6887   0.0241     0.75     P
P       0.6887   0.4759     0.25     P
O       0.7149   0.6202     0.75     O
O       0.7149   0.8798     0.25     O
O       0.7303   0.0638   0.1353     O
O       0.7303   0.0638   0.3647     O
O       0.7303   0.4362   0.6353     O
O       0.7303   0.4362   0.8647     O
O       0.7565   0.2264   0.1207     O
O       0.7565   0.2264   0.3793     O
O       0.7565   0.2736   0.6207     O
O       0.7565   0.2736   0.8793     O
O        0.807   0.5296    0.202     O
O        0.807   0.5296    0.298     O
O        0.807   0.9704    0.702     O
O        0.807   0.9704    0.798     O
O       0.8148   0.7326     0.25     O
O       0.8148   0.7674     0.75     O
P       0.8268    0.134   0.1021     P
P       0.8268    0.134   0.3979     P
P       0.8268    0.366   0.6021     P
P       0.8268    0.366   0.8979     P
Co      0.8444   0.1553   0.6179    Co
Co      0.8444   0.1553   0.8821    Co
Co      0.8444   0.3447   0.1179    Co
Co      0.8444   0.3447   0.3821    Co
O       0.8514   0.1152   0.0047     O
O       0.8514   0.1152   0.4953     O
O       0.8514   0.3848   0.5047     O
O       0.8514   0.3848   0.9953     O
P       0.8637   0.6694     0.75     P
P       0.8637   0.8306     0.25     P
Ga      0.9225   0.6302     0.25    Ga
Ga      0.9225   0.8698     0.75    Ga
O       0.9545   0.6491   0.6631     O
O       0.9545   0.6491   0.8369     O
O       0.9545   0.8509   0.1631     O
O       0.9545   0.8509   0.3369     O
O       0.9767   0.1392   0.1288     O
O       0.9767   0.1392   0.3712     O
O       0.9767   0.3608   0.6288     O
O       0.9767   0.3608   0.8712     O
