data_I
_chemical_name_common  '/home/zhangsd/repos/MofS-CGCNN/ML/data/SSD/clean_cifs/BEFNIL_clean'
_cell_length_a 10.24000
_cell_length_b 10.24000
_cell_length_c  9.65230
_cell_angle_alpha 90.00000
_cell_angle_beta  90.00000
_cell_angle_gamma 90.00000
_space_group_name_H-M_alt      'P 1'


loop_
_space_group_symop_operation_xyz
  'x, y, z' 

loop_
_atom_site_label
_atom_site_fract_x
_atom_site_fract_y
_atom_site_fract_z
_atom_site_type_symbol
O       0.0182   0.1965   0.7181     O
O       0.0182   0.8035   0.2819     O
Al      0.1332   0.1332   0.3684    Al
Al      0.1332   0.8668   0.6316    Al
P       0.1647   0.1647   0.6909     P
P       0.1647   0.8353   0.3091     P
O       0.1965   0.0182   0.7181     O
O       0.1965   0.9818   0.2819     O
O       0.1999   0.1999   0.5445     O
O       0.1999   0.8001   0.4555     O
O       0.2413   0.2413   0.7954     O
O       0.2413   0.7587   0.2046     O
O       0.2587   0.2587   0.2954     O
O       0.2587   0.7413   0.7046     O
O       0.3001   0.3001   0.0445     O
O       0.3001   0.6999   0.9555     O
O       0.3035   0.4818   0.2181     O
O       0.3035   0.5182   0.7819     O
P       0.3353   0.3353   0.1909     P
P       0.3353   0.6647   0.8091     P
Al      0.3668   0.3668   0.8684    Al
Al      0.3668   0.6332   0.1316    Al
O       0.4818   0.3035   0.2181     O
O       0.4818   0.6965   0.7819     O
O       0.5182   0.3035   0.7819     O
O       0.5182   0.6965   0.2181     O
Al      0.6332   0.3668   0.1316    Al
Al      0.6332   0.6332   0.8684    Al
P       0.6647   0.3353   0.8091     P
P       0.6647   0.6647   0.1909     P
O       0.6965   0.4818   0.7819     O
O       0.6965   0.5182   0.2181     O
O       0.6999   0.3001   0.9555     O
O       0.6999   0.6999   0.0445     O
O       0.7413   0.2587   0.7046     O
O       0.7413   0.7413   0.2954     O
O       0.7587   0.2413   0.2046     O
O       0.7587   0.7587   0.7954     O
O       0.8001   0.1999   0.4555     O
O       0.8001   0.8001   0.5445     O
O       0.8035   0.0182   0.2819     O
O       0.8035   0.9818   0.7181     O
P       0.8353   0.1647   0.3091     P
P       0.8353   0.8353   0.6909     P
Al      0.8668   0.1332   0.6316    Al
Al      0.8668   0.8668   0.3684    Al
O       0.9818   0.1965   0.2819     O
O       0.9818   0.8035   0.7181     O
