data_I
_chemical_name_common  '/home/zhangsd/repos/MofS-CGCNN/ML/data/SSD/clean_cifs/BENXUP_clean'
_cell_length_a  9.00500
_cell_length_b 11.16600
_cell_length_c 16.67200
_cell_angle_alpha 108.44700
_cell_angle_beta  90.00000
_cell_angle_gamma 113.78000
_space_group_name_H-M_alt      'P 1'


loop_
_space_group_symop_operation_xyz
  'x, y, z' 

loop_
_atom_site_label
_atom_site_fract_x
_atom_site_fract_y
_atom_site_fract_z
_atom_site_type_symbol
C       0.0138   0.7992   0.9325     C
H       0.0192   0.9124    0.055     H
C       0.0239   0.7706   0.6068     C
C       0.0442   0.1722   0.9903     C
O       0.0558   0.8894    0.662     O
N       0.0614    0.382   0.2165     N
H       0.0671    0.456   0.5321     H
O       0.0701   0.6852   0.6188     O
C       0.0708   0.2644   0.4773     C
H       0.0783   0.7046   0.3102     H
C       0.0842    0.326   0.1319     C
C       0.1016    0.391   0.5416     C
H       0.1068   0.0876    0.445     H
H       0.1159    0.862   0.9236     H
C        0.128   0.1722   0.4903     C
Zn     0.14448  0.67838  0.73249    Zn
H       0.1513   0.5504   0.3773     H
O       0.1664   0.1106    0.838     O
C       0.1839   0.4176   0.6193     C
C       0.1891   0.7354   0.3388     C
C       0.1936   0.2644   0.9773     C
C       0.1984    0.501   0.2502     C
H       0.2023    0.797   0.3978     H
H       0.2044   0.6242   0.8872     H
C       0.2146   0.2008   0.5675     C
C       0.2173   0.5978   0.3391     C
N       0.2237   0.5302   0.6961     N
C       0.2337   0.4176   0.1193     C
C       0.2418    0.326   0.6319     C
Zn     0.24815      1.0     0.75    Zn
C       0.2533   0.2294   0.8932     C
H       0.2539    0.138   0.5764     H
H         0.27    0.786   0.3082     H
O       0.2883   0.6738   0.8712     O
C       0.2894    0.391   0.0416     C
O       0.3007   0.8706   0.7808     O
C       0.3026    0.501   0.7502     C
N       0.3065   0.5302   0.1961     N
N       0.3206    0.382   0.7165     N
H        0.332     0.87    0.815     H
H       0.3737   0.2954   0.1898     H
C       0.3805   0.5978   0.8391     C
O       0.3849   0.3148   0.8812     O
O       0.3855   0.6738   0.3712     O
H       0.3889    0.456   0.0321     H
H       0.3991   0.5504   0.8773     H
H       0.4053    0.203   0.1022     H
H       0.4198   0.6242   0.3872     H
O       0.4301   0.1294   0.7192     O
C       0.4537   0.2646   0.1612     C
H        0.462     0.13    0.685     H
Zn      0.4661  0.32162  0.76751    Zn
H        0.484    0.214   0.1918     H
H        0.516    0.786   0.8082     H
Zn      0.5339  0.67838  0.23249    Zn
H        0.538     0.87    0.315     H
C       0.5463   0.7354   0.8388     C
O       0.5699   0.8706   0.2808     O
H       0.5802   0.3758   0.6128     H
H       0.5947    0.797   0.8978     H
H       0.6009   0.4496   0.1227     H
H       0.6111    0.544   0.9679     H
O       0.6145   0.3262   0.6288     O
O       0.6151   0.6852   0.1188     O
C       0.6195   0.4022   0.1609     C
H       0.6263   0.7046   0.8102     H
H        0.668     0.13    0.185     H
N       0.6794    0.618   0.2835     N
N       0.6935   0.4698   0.8039     N
C       0.6974    0.499   0.2498     C
O       0.6993   0.1294   0.2192     O
C       0.7106    0.609   0.9584     C
O       0.7117   0.3262   0.1288     O
H         0.73    0.214   0.6918     H
H       0.7461    0.862   0.4236     H
C       0.7467   0.7706   0.1068     C
Zn     0.75185      1.0     0.25    Zn
C       0.7582    0.674   0.3681     C
C       0.7663   0.5824   0.8807     C
N       0.7763   0.4698   0.3039     N
C       0.7827   0.4022   0.6609     C
C       0.7854   0.7992   0.4325     C
H       0.7956   0.3758   0.1128     H
H       0.7977    0.203   0.6022     H
C       0.8016    0.499   0.7498     C
C       0.8064   0.7356   0.0227     C
C       0.8109   0.2646   0.6612     C
C       0.8161   0.5824   0.3807     C
O       0.8336   0.8894    0.162     O
H       0.8487   0.4496   0.6227     H
Zn     0.85552  0.32162  0.26751    Zn
C        0.872   0.8278   0.5097     C
H       0.8841    0.138   0.0764     H
H       0.8932   0.9124    0.555     H
C       0.8984    0.609   0.4584     C
C       0.9158    0.674   0.8681     C
H       0.9217   0.2954   0.6898     H
C       0.9292   0.7356   0.5227     C
O       0.9299   0.3148   0.3812     O
H       0.9329    0.544   0.4679     H
N       0.9386    0.618   0.7835     N
O       0.9442   0.1106    0.338     O
C       0.9558   0.8278   0.0097     C
C       0.9761   0.2294   0.3932     C
H       0.9808   0.0876    0.945     H
C       0.9862   0.2008   0.0675     C
