data_I
_chemical_name_common  '/home/zhangsd/repos/MofS-CGCNN/ML/data/SSD/clean_cifs/BEPVAV_clean'
_cell_length_a 11.37000
_cell_length_b 11.42740
_cell_length_c 12.19120
_cell_angle_alpha 67.95200
_cell_angle_beta  87.74300
_cell_angle_gamma 69.80300
_space_group_name_H-M_alt      'P 1'


loop_
_space_group_symop_operation_xyz
  'x, y, z' 

loop_
_atom_site_label
_atom_site_fract_x
_atom_site_fract_y
_atom_site_fract_z
_atom_site_type_symbol
H       0.0338    0.507    0.609     H
C       0.0397   0.7008   0.2022     C
C       0.0427   0.7878   0.2665     C
C       0.0493   0.0426   0.6574     C
C       0.0649   0.1204   0.7141     C
C       0.0683   0.9423   0.3794     C
H       0.0791    0.996    0.419     H
H       0.0811   0.7268   0.1285     H
H       0.0816   0.1165   0.0661     H
H       0.0858   0.5855   0.6683     H
C       0.0866   0.2943   0.8307     C
H       0.0906    0.606   0.2525     H
C       0.1074    0.504   0.6507     C
H       0.1209   0.9779   0.6438     H
H       0.1465   0.1119   0.7393     H
C       0.1468   0.3816   0.7647     C
H       0.1486     0.02   0.9975     H
C       0.1573   0.0843   0.0289     C
N       0.1592   0.7727   0.3036     N
C       0.1721   0.8484   0.3588     C
C       0.1735   0.1994   0.9312     C
H       0.1769   0.4996   0.6004     H
H       0.1981   0.1592   0.3113     H
H        0.231   0.0395   0.0882     H
N       0.2612   0.3385   0.8269     N
N       0.2778   0.2265   0.9275     N
C        0.288   0.1297   0.3362     C
H       0.2908   0.6793   0.7158     H
H       0.3065    0.205    0.342     H
C       0.3086    0.822   0.3957     C
Cu     0.31511  0.63247  0.27502    Cu
H        0.317   0.3781   0.8047     H
C       0.3206   0.0164   0.4531     C
C       0.3257   0.8836   0.4793     C
N       0.3265    0.462   0.3937     N
H       0.3377   0.1004   0.2776     H
C       0.3404   0.3584   0.4671     C
N       0.3463   0.0318   0.5506     N
H       0.3488   0.8568   0.3231     H
H       0.3537   0.7231   0.4333     H
C       0.3546   0.8213   0.5964     C
N       0.3696   0.9099    0.641     N
C       0.3706   0.6799   0.6825     C
Cu     0.37101   0.1839  0.58052    Cu
H       0.3908   0.8906   0.7161     H
H       0.3951   0.6182   0.6405     H
C        0.411   0.6948   0.1544     C
N        0.435    0.087   0.7472     N
H       0.4362   0.6504   0.7469     H
Cu      0.4518  0.12349  0.01006    Cu
N       0.4687   0.7453   0.0843     N
C       0.4773   0.0144   0.8415     C
C       0.5227   0.9856   0.1585     C
N       0.5313   0.2547   0.9157     N
Cu      0.5482  0.87651  0.98994    Cu
H       0.5638   0.3496   0.2531     H
N        0.565    0.913   0.2528     N
C        0.589   0.3052   0.8456     C
H       0.6049   0.3818   0.3595     H
H       0.6092   0.1094   0.2839     H
Cu     0.62899   0.8161  0.41948    Cu
C       0.6294   0.3201   0.3175     C
N       0.6304   0.0901    0.359     N
C       0.6454   0.1787   0.4036     C
H       0.6463   0.2769   0.5667     H
H       0.6512   0.1432   0.6769     H
N       0.6537   0.9682   0.4494     N
C       0.6596   0.6416   0.5329     C
H       0.6623   0.8996   0.7224     H
N       0.6735    0.538   0.6063     N
C       0.6743   0.1164   0.5207     C
C       0.6794   0.9836   0.5469     C
H        0.683   0.6219   0.1953     H
Cu     0.68489  0.36753  0.72498    Cu
C       0.6914    0.178   0.6043     C
H       0.6935    0.795    0.658     H
H       0.7092   0.3207   0.2842     H
C        0.712   0.8703   0.6638     C
N       0.7222   0.7735   0.0725     N
N       0.7388   0.6615   0.1731     N
H        0.769   0.9605   0.9118     H
H       0.8019   0.8408   0.6887     H
H       0.8231   0.5004   0.3996     H
C       0.8265   0.8006   0.0688     C
C       0.8279   0.1516   0.6412     C
N       0.8408   0.2273   0.6964     N
C       0.8427   0.9157   0.9711     C
H       0.8514     0.98   0.0025     H
C       0.8532   0.6184   0.2353     C
H       0.8535   0.8881   0.2607     H
H       0.8791   0.0221   0.3562     H
C       0.8926    0.496   0.3493     C
H       0.9094    0.394   0.7475     H
C       0.9134   0.7057   0.1693     C
H       0.9142   0.4145   0.3317     H
H       0.9184   0.8835   0.9339     H
H       0.9189   0.2732   0.8715     H
H       0.9209    0.004    0.581     H
C       0.9317   0.0577   0.6206     C
C       0.9351   0.8796   0.2859     C
C       0.9507   0.9574   0.3426     C
C       0.9573   0.2122   0.7335     C
C       0.9603   0.2992   0.7978     C
H       0.9662    0.493    0.391     H
