data_I
_chemical_name_common  '/home/zhangsd/repos/MofS-CGCNN/ML/data/SSD/clean_cifs/BEPVOJ01_clean'
_cell_length_a 11.35710
_cell_length_b 11.49640
_cell_length_c 12.93520
_cell_angle_alpha 88.86700
_cell_angle_beta  64.61400
_cell_angle_gamma 69.30500
_space_group_name_H-M_alt      'P 1'


loop_
_space_group_symop_operation_xyz
  'x, y, z' 

loop_
_atom_site_label
_atom_site_fract_x
_atom_site_fract_y
_atom_site_fract_z
_atom_site_type_symbol
H       0.0113   0.5725   0.4109     H
C      0.01223  0.01185  0.14773     C
H       0.0149   0.6501   0.9798     H
H       0.0163   0.3777    0.366     H
H       0.0311   0.7373   0.0603     H
N      0.03115  0.84788  0.55187     N
C      0.03416  0.82102  0.45036     C
C       0.0413    0.551   0.6493     C
C       0.0441  0.43558   0.6223     C
N      0.05615  0.94303  0.75739     N
C       0.0786   0.6613   0.0055     C
H       0.0824    0.179   0.6948     H
C      0.09634  0.17793  0.53277     C
N      0.10228  0.13214  0.36806     N
H       0.1098   0.5909   0.0415     H
H       0.1199   0.6415   0.7179     H
C       0.1224  0.56286   0.6987     C
C      0.13112  0.33104  0.64534     C
H       0.1329   0.1119   0.2949     H
Cu     0.13681  0.94121  0.99385    Cu
C      0.14064  0.19981   0.6226     C
H       0.1422   0.8124   0.2771     H
C        0.166   0.7904  0.33965     C
Cu     0.17028  0.87794  0.59423    Cu
C      0.18048   0.1473  0.41519     C
C      0.20258  0.66986   0.9042     C
C      0.20777  0.45566  0.71918     C
N      0.21218  0.34221  0.69227     N
H       0.2188   0.8372   0.3453     H
H       0.2218    0.702   0.3253     H
N      0.23323  0.77134   0.8994     N
H       0.2373   0.1422   0.5982     H
N      0.26293  0.02308  0.88877     N
H       0.2765    0.417   0.8423     H
C      0.30073  0.58138  0.80344     C
C       0.3021  0.08326  0.82239     C
C       0.3028  0.45521  0.77256     C
C       0.3332   0.1321   0.3426     C
H       0.3379   0.1898   0.2877     H
N      0.34773  0.74915  0.79807     N
C       0.3563  0.84809  0.48951     C
Cu     0.35734  0.18077  0.70689    Cu
H       0.3701   0.1494   0.3922     H
H        0.388   0.0474    0.302     H
H        0.388    0.802   0.7746     H
C       0.3933  0.63572  0.73677     C
H       0.3987    0.402   0.7189     H
H       0.4036   0.4743   0.3706     H
H       0.4523   0.3414   0.4069     H
N       0.4671  0.83539  0.42002     N
C       0.4796   0.4102   0.3785     C
H       0.4987   0.5555    0.568     H
H       0.5013   0.4445    0.432     H
C       0.5204   0.5898   0.6215     C
N       0.5329  0.16461  0.57998     N
H       0.5477   0.6586   0.5931     H
H       0.5964   0.5257   0.6294     H
H       0.6013    0.598   0.2811     H
C       0.6067  0.36428  0.26323     C
H        0.612    0.198   0.2254     H
H        0.612   0.9526    0.698     H
H       0.6299   0.8506   0.6078     H
Cu     0.64266  0.81923  0.29311    Cu
C       0.6437  0.15191  0.51049     C
N      0.65227  0.25085  0.20193     N
H       0.6621   0.8102   0.7123     H
C       0.6668   0.8679   0.6574     C
C       0.6972  0.54479  0.22744     C
C       0.6979  0.91674  0.17761     C
C      0.69927  0.41862  0.19656     C
H       0.7235    0.583   0.1577     H
N      0.73707  0.97692  0.11123     N
H       0.7627   0.8578   0.4018     H
N      0.76677  0.22866   0.1006     N
H       0.7782    0.298   0.6747     H
H       0.7812   0.1628   0.6547     H
N      0.78782  0.65779  0.30773     N
C      0.79223  0.54434  0.28082     C
C      0.79742  0.33014   0.0958     C
C      0.81952   0.8527  0.58481     C
Cu     0.82972  0.12206  0.40577    Cu
C        0.834   0.2096  0.66035     C
H       0.8578   0.1876   0.7229     H
C      0.85936  0.80019   0.3774     C
Cu     0.86319  0.05879  0.00615    Cu
H       0.8671   0.8881   0.7051     H
C      0.86888  0.66896  0.35466     C
C       0.8776  0.43714   0.3013     C
H       0.8801   0.3585   0.2821     H
H       0.8902   0.4091   0.9585     H
N      0.89772  0.86786  0.63194     N
C      0.90366  0.82207  0.46723     C
H       0.9176    0.821   0.3052     H
C       0.9214   0.3387   0.9945     C
N      0.94385  0.05697  0.24261     N
C       0.9559  0.56442   0.3777     C
C       0.9587    0.449   0.3507     C
C      0.96584  0.17898  0.54964     C
N      0.96885  0.15212  0.44813     N
H       0.9689   0.2627   0.9397     H
H       0.9837   0.6223    0.634     H
H       0.9851   0.3499   0.0202     H
C      0.98777  0.98815  0.85227     C
H       0.9887   0.4275   0.5891     H
