data_I
_chemical_name_common  '/home/zhangsd/repos/MofS-CGCNN/ML/data/SSD/clean_cifs/BETGIS_clean'
_cell_length_a 18.64830
_cell_length_b 18.64830
_cell_length_c 18.64830
_cell_angle_alpha 90.00000
_cell_angle_beta  90.00000
_cell_angle_gamma 90.00000
_space_group_name_H-M_alt      'P 1'


loop_
_space_group_symop_operation_xyz
  'x, y, z' 

loop_
_atom_site_label
_atom_site_fract_x
_atom_site_fract_y
_atom_site_fract_z
_atom_site_type_symbol
Ni         0.0  0.36564      0.5    Ni
Ni         0.0      0.5  0.36564    Ni
Cl         0.0      0.5      0.5    Cl
Ni         0.0      0.5  0.63436    Ni
Ni         0.0  0.63436      0.5    Ni
N      0.07702  0.37103  0.42035     N
N      0.07702  0.37103  0.57965     N
N      0.07702  0.42035  0.37103     N
N      0.07702  0.42035  0.62897     N
N      0.07702  0.57965  0.37103     N
N      0.07702  0.57965  0.62897     N
N      0.07702  0.62897  0.42035     N
N      0.07702  0.62897  0.57965     N
N      0.13175  0.32613   0.4104     N
N      0.13175  0.32613   0.5896     N
N      0.13175   0.4104  0.32613     N
N      0.13175   0.4104  0.67387     N
N      0.13175   0.5896  0.32613     N
N      0.13175   0.5896  0.67387     N
N      0.13175  0.67387   0.4104     N
N      0.13175  0.67387   0.5896     N
Ni     0.13427   0.2486      0.5    Ni
Ni     0.13427      0.5   0.2486    Ni
Ni     0.13427      0.5   0.7514    Ni
Ni     0.13427   0.7514      0.5    Ni
Cl      0.1426   0.1426    0.424    Cl
Cl      0.1426   0.1426    0.576    Cl
Cl      0.1426    0.424   0.1426    Cl
Cl      0.1426    0.424   0.8574    Cl
Cl      0.1426    0.576   0.1426    Cl
Cl      0.1426    0.576   0.8574    Cl
Cl      0.1426   0.8574    0.424    Cl
Cl      0.1426   0.8574    0.576    Cl
C       0.1643  0.35186  0.35186     C
C       0.1643  0.35186  0.64814     C
C       0.1643  0.64814  0.35186     C
C       0.1643  0.64814  0.64814     C
C       0.2275  0.31895  0.31895     C
C       0.2275  0.31895  0.68105     C
C       0.2275  0.68105  0.31895     C
C       0.2275  0.68105  0.68105     C
H       0.2393   0.2393   0.3913     H
H       0.2393   0.2393   0.6087     H
H       0.2393   0.3913   0.2393     H
H       0.2393   0.3913   0.7607     H
H       0.2393   0.6087   0.2393     H
H       0.2393   0.6087   0.7607     H
H       0.2393   0.7607   0.3913     H
H       0.2393   0.7607   0.6087     H
Ni      0.2486  0.13427      0.5    Ni
Ni      0.2486      0.5  0.13427    Ni
Ni      0.2486      0.5  0.86573    Ni
Ni      0.2486  0.86573      0.5    Ni
C      0.25879  0.25879   0.3497     C
C      0.25879  0.25879   0.6503     C
C      0.25879   0.3497  0.25879     C
C      0.25879   0.3497  0.74121     C
C      0.25879   0.6503  0.25879     C
C      0.25879   0.6503  0.74121     C
C      0.25879  0.74121   0.3497     C
C      0.25879  0.74121   0.6503     C
C      0.31895   0.2275  0.31895     C
C      0.31895   0.2275  0.68105     C
C      0.31895  0.31895   0.2275     C
C      0.31895  0.31895   0.7725     C
C      0.31895  0.68105   0.2275     C
C      0.31895  0.68105   0.7725     C
C      0.31895   0.7725  0.31895     C
C      0.31895   0.7725  0.68105     C
N      0.32613  0.13175   0.4104     N
N      0.32613  0.13175   0.5896     N
N      0.32613   0.4104  0.13175     N
N      0.32613   0.4104  0.86825     N
N      0.32613   0.5896  0.13175     N
N      0.32613   0.5896  0.86825     N
N      0.32613  0.86825   0.4104     N
N      0.32613  0.86825   0.5896     N
C       0.3497  0.25879  0.25879     C
C       0.3497  0.25879  0.74121     C
C       0.3497  0.74121  0.25879     C
C       0.3497  0.74121  0.74121     C
C      0.35186   0.1643  0.35186     C
C      0.35186   0.1643  0.64814     C
C      0.35186  0.35186   0.1643     C
C      0.35186  0.35186   0.8357     C
C      0.35186  0.64814   0.1643     C
C      0.35186  0.64814   0.8357     C
C      0.35186   0.8357  0.35186     C
C      0.35186   0.8357  0.64814     C
Ni     0.36564      0.0      0.5    Ni
Ni     0.36564      0.5      0.0    Ni
N      0.37103  0.07702  0.42035     N
N      0.37103  0.07702  0.57965     N
N      0.37103  0.42035  0.07702     N
N      0.37103  0.42035  0.92298     N
N      0.37103  0.57965  0.07702     N
N      0.37103  0.57965  0.92298     N
N      0.37103  0.92298  0.42035     N
N      0.37103  0.92298  0.57965     N
H       0.3913   0.2393   0.2393     H
H       0.3913   0.2393   0.7607     H
H       0.3913   0.7607   0.2393     H
H       0.3913   0.7607   0.7607     H
N       0.4104  0.13175  0.32613     N
N       0.4104  0.13175  0.67387     N
N       0.4104  0.32613  0.13175     N
N       0.4104  0.32613  0.86825     N
N       0.4104  0.67387  0.13175     N
N       0.4104  0.67387  0.86825     N
N       0.4104  0.86825  0.32613     N
N       0.4104  0.86825  0.67387     N
N      0.42035  0.07702  0.37103     N
N      0.42035  0.07702  0.62897     N
N      0.42035  0.37103  0.07702     N
N      0.42035  0.37103  0.92298     N
N      0.42035  0.62897  0.07702     N
N      0.42035  0.62897  0.92298     N
N      0.42035  0.92298  0.37103     N
N      0.42035  0.92298  0.62897     N
Cl       0.424   0.1426   0.1426    Cl
Cl       0.424   0.1426   0.8574    Cl
Cl       0.424   0.8574   0.1426    Cl
Cl       0.424   0.8574   0.8574    Cl
Ni         0.5      0.0  0.36564    Ni
Cl         0.5      0.0      0.5    Cl
Ni         0.5      0.0  0.63436    Ni
Ni         0.5  0.13427   0.2486    Ni
Ni         0.5  0.13427   0.7514    Ni
Ni         0.5   0.2486  0.13427    Ni
Ni         0.5   0.2486  0.86573    Ni
Ni         0.5  0.36564      0.0    Ni
Cl         0.5      0.5      0.0    Cl
Ni         0.5  0.63436      0.0    Ni
Ni         0.5   0.7514  0.13427    Ni
Ni         0.5   0.7514  0.86573    Ni
Ni         0.5  0.86573   0.2486    Ni
Ni         0.5  0.86573   0.7514    Ni
Cl       0.576   0.1426   0.1426    Cl
Cl       0.576   0.1426   0.8574    Cl
Cl       0.576   0.8574   0.1426    Cl
Cl       0.576   0.8574   0.8574    Cl
N      0.57965  0.07702  0.37103     N
N      0.57965  0.07702  0.62897     N
N      0.57965  0.37103  0.07702     N
N      0.57965  0.37103  0.92298     N
N      0.57965  0.62897  0.07702     N
N      0.57965  0.62897  0.92298     N
N      0.57965  0.92298  0.37103     N
N      0.57965  0.92298  0.62897     N
N       0.5896  0.13175  0.32613     N
N       0.5896  0.13175  0.67387     N
N       0.5896  0.32613  0.13175     N
N       0.5896  0.32613  0.86825     N
N       0.5896  0.67387  0.13175     N
N       0.5896  0.67387  0.86825     N
N       0.5896  0.86825  0.32613     N
N       0.5896  0.86825  0.67387     N
H       0.6087   0.2393   0.2393     H
H       0.6087   0.2393   0.7607     H
H       0.6087   0.7607   0.2393     H
H       0.6087   0.7607   0.7607     H
N      0.62897  0.07702  0.42035     N
N      0.62897  0.07702  0.57965     N
N      0.62897  0.42035  0.07702     N
N      0.62897  0.42035  0.92298     N
N      0.62897  0.57965  0.07702     N
N      0.62897  0.57965  0.92298     N
N      0.62897  0.92298  0.42035     N
N      0.62897  0.92298  0.57965     N
Ni     0.63436      0.0      0.5    Ni
Ni     0.63436      0.5      0.0    Ni
C      0.64814   0.1643  0.35186     C
C      0.64814   0.1643  0.64814     C
C      0.64814  0.35186   0.1643     C
C      0.64814  0.35186   0.8357     C
C      0.64814  0.64814   0.1643     C
C      0.64814  0.64814   0.8357     C
C      0.64814   0.8357  0.35186     C
C      0.64814   0.8357  0.64814     C
C       0.6503  0.25879  0.25879     C
C       0.6503  0.25879  0.74121     C
C       0.6503  0.74121  0.25879     C
C       0.6503  0.74121  0.74121     C
N      0.67387  0.13175   0.4104     N
N      0.67387  0.13175   0.5896     N
N      0.67387   0.4104  0.13175     N
N      0.67387   0.4104  0.86825     N
N      0.67387   0.5896  0.13175     N
N      0.67387   0.5896  0.86825     N
N      0.67387  0.86825   0.4104     N
N      0.67387  0.86825   0.5896     N
C      0.68105   0.2275  0.31895     C
C      0.68105   0.2275  0.68105     C
C      0.68105  0.31895   0.2275     C
C      0.68105  0.31895   0.7725     C
C      0.68105  0.68105   0.2275     C
C      0.68105  0.68105   0.7725     C
C      0.68105   0.7725  0.31895     C
C      0.68105   0.7725  0.68105     C
C      0.74121  0.25879   0.3497     C
C      0.74121  0.25879   0.6503     C
C      0.74121   0.3497  0.25879     C
C      0.74121   0.3497  0.74121     C
C      0.74121   0.6503  0.25879     C
C      0.74121   0.6503  0.74121     C
C      0.74121  0.74121   0.3497     C
C      0.74121  0.74121   0.6503     C
Ni      0.7514  0.13427      0.5    Ni
Ni      0.7514      0.5  0.13427    Ni
Ni      0.7514      0.5  0.86573    Ni
Ni      0.7514  0.86573      0.5    Ni
H       0.7607   0.2393   0.3913     H
H       0.7607   0.2393   0.6087     H
H       0.7607   0.3913   0.2393     H
H       0.7607   0.3913   0.7607     H
H       0.7607   0.6087   0.2393     H
H       0.7607   0.6087   0.7607     H
H       0.7607   0.7607   0.3913     H
H       0.7607   0.7607   0.6087     H
C       0.7725  0.31895  0.31895     C
C       0.7725  0.31895  0.68105     C
C       0.7725  0.68105  0.31895     C
C       0.7725  0.68105  0.68105     C
C       0.8357  0.35186  0.35186     C
C       0.8357  0.35186  0.64814     C
C       0.8357  0.64814  0.35186     C
C       0.8357  0.64814  0.64814     C
Cl      0.8574   0.1426    0.424    Cl
Cl      0.8574   0.1426    0.576    Cl
Cl      0.8574    0.424   0.1426    Cl
Cl      0.8574    0.424   0.8574    Cl
Cl      0.8574    0.576   0.1426    Cl
Cl      0.8574    0.576   0.8574    Cl
Cl      0.8574   0.8574    0.424    Cl
Cl      0.8574   0.8574    0.576    Cl
Ni     0.86573   0.2486      0.5    Ni
Ni     0.86573      0.5   0.2486    Ni
Ni     0.86573      0.5   0.7514    Ni
Ni     0.86573   0.7514      0.5    Ni
N      0.86825  0.32613   0.4104     N
N      0.86825  0.32613   0.5896     N
N      0.86825   0.4104  0.32613     N
N      0.86825   0.4104  0.67387     N
N      0.86825   0.5896  0.32613     N
N      0.86825   0.5896  0.67387     N
N      0.86825  0.67387   0.4104     N
N      0.86825  0.67387   0.5896     N
N      0.92298  0.37103  0.42035     N
N      0.92298  0.37103  0.57965     N
N      0.92298  0.42035  0.37103     N
N      0.92298  0.42035  0.62897     N
N      0.92298  0.57965  0.37103     N
N      0.92298  0.57965  0.62897     N
N      0.92298  0.62897  0.42035     N
N      0.92298  0.62897  0.57965     N
