data_I
_chemical_name_common  '/home/zhangsd/repos/MofS-CGCNN/ML/data/SSD/clean_cifs/BETGEO_clean'
_cell_length_a 18.55640
_cell_length_b 18.55640
_cell_length_c 18.55640
_cell_angle_alpha 90.00000
_cell_angle_beta  90.00000
_cell_angle_gamma 90.00000
_space_group_name_H-M_alt      'P 1'


loop_
_space_group_symop_operation_xyz
  'x, y, z' 

loop_
_atom_site_label
_atom_site_fract_x
_atom_site_fract_y
_atom_site_fract_z
_atom_site_type_symbol
Ni         0.0  0.36647      0.5    Ni
Ni         0.0      0.5  0.36647    Ni
Cl         0.0      0.5      0.5    Cl
Ni         0.0      0.5  0.63353    Ni
Ni         0.0  0.63353      0.5    Ni
N      0.07629  0.37153  0.42154     N
N      0.07629  0.37153  0.57846     N
N      0.07629  0.42154  0.37153     N
N      0.07629  0.42154  0.62847     N
N      0.07629  0.57846  0.37153     N
N      0.07629  0.57846  0.62847     N
N      0.07629  0.62847  0.42154     N
N      0.07629  0.62847  0.57846     N
N      0.13058  0.32637  0.41064     N
N      0.13058  0.32637  0.58936     N
N      0.13058  0.41064  0.32637     N
N      0.13058  0.41064  0.67363     N
N      0.13058  0.58936  0.32637     N
N      0.13058  0.58936  0.67363     N
N      0.13058  0.67363  0.41064     N
N      0.13058  0.67363  0.58936     N
Ni     0.14052  0.26048      0.5    Ni
Ni     0.14052      0.5  0.26048    Ni
Ni     0.14052      0.5  0.73952    Ni
Ni     0.14052  0.73952      0.5    Ni
O       0.1539   0.1539      0.5     O
O       0.1539      0.5   0.1539     O
O       0.1539      0.5   0.8461     O
O       0.1539   0.8461      0.5     O
C       0.1626   0.3511   0.3511     C
C       0.1626   0.3511   0.6489     C
C       0.1626   0.6489   0.3511     C
C       0.1626   0.6489   0.6489     C
C       0.2255    0.317    0.317     C
C       0.2255    0.317    0.683     C
C       0.2255    0.683    0.317     C
C       0.2255    0.683    0.683     C
H       0.2355   0.2355   0.3891     H
H       0.2355   0.2355   0.6109     H
H       0.2355   0.3891   0.2355     H
H       0.2355   0.3891   0.7645     H
H       0.2355   0.6109   0.2355     H
H       0.2355   0.6109   0.7645     H
H       0.2355   0.7645   0.3891     H
H       0.2355   0.7645   0.6109     H
C       0.2558   0.2558   0.3481     C
C       0.2558   0.2558   0.6519     C
C       0.2558   0.3481   0.2558     C
C       0.2558   0.3481   0.7442     C
C       0.2558   0.6519   0.2558     C
C       0.2558   0.6519   0.7442     C
C       0.2558   0.7442   0.3481     C
C       0.2558   0.7442   0.6519     C
Ni     0.26048  0.14052      0.5    Ni
Ni     0.26048      0.5  0.14052    Ni
Ni     0.26048      0.5  0.85948    Ni
Ni     0.26048  0.85948      0.5    Ni
Cl      0.2712   0.2712      0.5    Cl
Cl      0.2712      0.5   0.2712    Cl
Cl      0.2712      0.5   0.7288    Cl
Cl      0.2712   0.7288      0.5    Cl
C        0.317   0.2255    0.317     C
C        0.317   0.2255    0.683     C
C        0.317    0.317   0.2255     C
C        0.317    0.317   0.7745     C
C        0.317    0.683   0.2255     C
C        0.317    0.683   0.7745     C
C        0.317   0.7745    0.317     C
C        0.317   0.7745    0.683     C
N      0.32637  0.13058  0.41064     N
N      0.32637  0.13058  0.58936     N
N      0.32637  0.41064  0.13058     N
N      0.32637  0.41064  0.86942     N
N      0.32637  0.58936  0.13058     N
N      0.32637  0.58936  0.86942     N
N      0.32637  0.86942  0.41064     N
N      0.32637  0.86942  0.58936     N
C       0.3481   0.2558   0.2558     C
C       0.3481   0.2558   0.7442     C
C       0.3481   0.7442   0.2558     C
C       0.3481   0.7442   0.7442     C
C       0.3511   0.1626   0.3511     C
C       0.3511   0.1626   0.6489     C
C       0.3511   0.3511   0.1626     C
C       0.3511   0.3511   0.8374     C
C       0.3511   0.6489   0.1626     C
C       0.3511   0.6489   0.8374     C
C       0.3511   0.8374   0.3511     C
C       0.3511   0.8374   0.6489     C
Ni     0.36647      0.0      0.5    Ni
Ni     0.36647      0.5      0.0    Ni
N      0.37153  0.07629  0.42154     N
N      0.37153  0.07629  0.57846     N
N      0.37153  0.42154  0.07629     N
N      0.37153  0.42154  0.92371     N
N      0.37153  0.57846  0.07629     N
N      0.37153  0.57846  0.92371     N
N      0.37153  0.92371  0.42154     N
N      0.37153  0.92371  0.57846     N
H       0.3891   0.2355   0.2355     H
H       0.3891   0.2355   0.7645     H
H       0.3891   0.7645   0.2355     H
H       0.3891   0.7645   0.7645     H
N      0.41064  0.13058  0.32637     N
N      0.41064  0.13058  0.67363     N
N      0.41064  0.32637  0.13058     N
N      0.41064  0.32637  0.86942     N
N      0.41064  0.67363  0.13058     N
N      0.41064  0.67363  0.86942     N
N      0.41064  0.86942  0.32637     N
N      0.41064  0.86942  0.67363     N
N      0.42154  0.07629  0.37153     N
N      0.42154  0.07629  0.62847     N
N      0.42154  0.37153  0.07629     N
N      0.42154  0.37153  0.92371     N
N      0.42154  0.62847  0.07629     N
N      0.42154  0.62847  0.92371     N
N      0.42154  0.92371  0.37153     N
N      0.42154  0.92371  0.62847     N
Ni         0.5      0.0  0.36647    Ni
Cl         0.5      0.0      0.5    Cl
Ni         0.5      0.0  0.63353    Ni
Ni         0.5  0.14052  0.26048    Ni
Ni         0.5  0.14052  0.73952    Ni
O          0.5   0.1539   0.1539     O
O          0.5   0.1539   0.8461     O
Ni         0.5  0.26048  0.14052    Ni
Ni         0.5  0.26048  0.85948    Ni
Cl         0.5   0.2712   0.2712    Cl
Cl         0.5   0.2712   0.7288    Cl
Ni         0.5  0.36647      0.0    Ni
Cl         0.5      0.5      0.0    Cl
Ni         0.5  0.63353      0.0    Ni
Cl         0.5   0.7288   0.2712    Cl
Cl         0.5   0.7288   0.7288    Cl
Ni         0.5  0.73952  0.14052    Ni
Ni         0.5  0.73952  0.85948    Ni
O          0.5   0.8461   0.1539     O
O          0.5   0.8461   0.8461     O
Ni         0.5  0.85948  0.26048    Ni
Ni         0.5  0.85948  0.73952    Ni
N      0.57846  0.07629  0.37153     N
N      0.57846  0.07629  0.62847     N
N      0.57846  0.37153  0.07629     N
N      0.57846  0.37153  0.92371     N
N      0.57846  0.62847  0.07629     N
N      0.57846  0.62847  0.92371     N
N      0.57846  0.92371  0.37153     N
N      0.57846  0.92371  0.62847     N
N      0.58936  0.13058  0.32637     N
N      0.58936  0.13058  0.67363     N
N      0.58936  0.32637  0.13058     N
N      0.58936  0.32637  0.86942     N
N      0.58936  0.67363  0.13058     N
N      0.58936  0.67363  0.86942     N
N      0.58936  0.86942  0.32637     N
N      0.58936  0.86942  0.67363     N
H       0.6109   0.2355   0.2355     H
H       0.6109   0.2355   0.7645     H
H       0.6109   0.7645   0.2355     H
H       0.6109   0.7645   0.7645     H
N      0.62847  0.07629  0.42154     N
N      0.62847  0.07629  0.57846     N
N      0.62847  0.42154  0.07629     N
N      0.62847  0.42154  0.92371     N
N      0.62847  0.57846  0.07629     N
N      0.62847  0.57846  0.92371     N
N      0.62847  0.92371  0.42154     N
N      0.62847  0.92371  0.57846     N
Ni     0.63353      0.0      0.5    Ni
Ni     0.63353      0.5      0.0    Ni
C       0.6489   0.1626   0.3511     C
C       0.6489   0.1626   0.6489     C
C       0.6489   0.3511   0.1626     C
C       0.6489   0.3511   0.8374     C
C       0.6489   0.6489   0.1626     C
C       0.6489   0.6489   0.8374     C
C       0.6489   0.8374   0.3511     C
C       0.6489   0.8374   0.6489     C
C       0.6519   0.2558   0.2558     C
C       0.6519   0.2558   0.7442     C
C       0.6519   0.7442   0.2558     C
C       0.6519   0.7442   0.7442     C
N      0.67363  0.13058  0.41064     N
N      0.67363  0.13058  0.58936     N
N      0.67363  0.41064  0.13058     N
N      0.67363  0.41064  0.86942     N
N      0.67363  0.58936  0.13058     N
N      0.67363  0.58936  0.86942     N
N      0.67363  0.86942  0.41064     N
N      0.67363  0.86942  0.58936     N
C        0.683   0.2255    0.317     C
C        0.683   0.2255    0.683     C
C        0.683    0.317   0.2255     C
C        0.683    0.317   0.7745     C
C        0.683    0.683   0.2255     C
C        0.683    0.683   0.7745     C
C        0.683   0.7745    0.317     C
C        0.683   0.7745    0.683     C
Cl      0.7288   0.2712      0.5    Cl
Cl      0.7288      0.5   0.2712    Cl
Cl      0.7288      0.5   0.7288    Cl
Cl      0.7288   0.7288      0.5    Cl
Ni     0.73952  0.14052      0.5    Ni
Ni     0.73952      0.5  0.14052    Ni
Ni     0.73952      0.5  0.85948    Ni
Ni     0.73952  0.85948      0.5    Ni
C       0.7442   0.2558   0.3481     C
C       0.7442   0.2558   0.6519     C
C       0.7442   0.3481   0.2558     C
C       0.7442   0.3481   0.7442     C
C       0.7442   0.6519   0.2558     C
C       0.7442   0.6519   0.7442     C
C       0.7442   0.7442   0.3481     C
C       0.7442   0.7442   0.6519     C
H       0.7645   0.2355   0.3891     H
H       0.7645   0.2355   0.6109     H
H       0.7645   0.3891   0.2355     H
H       0.7645   0.3891   0.7645     H
H       0.7645   0.6109   0.2355     H
H       0.7645   0.6109   0.7645     H
H       0.7645   0.7645   0.3891     H
H       0.7645   0.7645   0.6109     H
C       0.7745    0.317    0.317     C
C       0.7745    0.317    0.683     C
C       0.7745    0.683    0.317     C
C       0.7745    0.683    0.683     C
C       0.8374   0.3511   0.3511     C
C       0.8374   0.3511   0.6489     C
C       0.8374   0.6489   0.3511     C
C       0.8374   0.6489   0.6489     C
O       0.8461   0.1539      0.5     O
O       0.8461      0.5   0.1539     O
O       0.8461      0.5   0.8461     O
O       0.8461   0.8461      0.5     O
Ni     0.85948  0.26048      0.5    Ni
Ni     0.85948      0.5  0.26048    Ni
Ni     0.85948      0.5  0.73952    Ni
Ni     0.85948  0.73952      0.5    Ni
N      0.86942  0.32637  0.41064     N
N      0.86942  0.32637  0.58936     N
N      0.86942  0.41064  0.32637     N
N      0.86942  0.41064  0.67363     N
N      0.86942  0.58936  0.32637     N
N      0.86942  0.58936  0.67363     N
N      0.86942  0.67363  0.41064     N
N      0.86942  0.67363  0.58936     N
N      0.92371  0.37153  0.42154     N
N      0.92371  0.37153  0.57846     N
N      0.92371  0.42154  0.37153     N
N      0.92371  0.42154  0.62847     N
N      0.92371  0.57846  0.37153     N
N      0.92371  0.57846  0.62847     N
N      0.92371  0.62847  0.42154     N
N      0.92371  0.62847  0.57846     N
