data_I
_chemical_name_common  '/home/zhangsd/repos/MofS-CGCNN/ML/data/SSD/clean_cifs/BETHIT_clean'
_cell_length_a 19.36200
_cell_length_b 19.36200
_cell_length_c 19.36200
_cell_angle_alpha 90.00000
_cell_angle_beta  90.00000
_cell_angle_gamma 90.00000
_space_group_name_H-M_alt      'P 1'


loop_
_space_group_symop_operation_xyz
  'x, y, z' 

loop_
_atom_site_label
_atom_site_fract_x
_atom_site_fract_y
_atom_site_fract_z
_atom_site_type_symbol
Cd         0.0  0.35542      0.5    Cd
Cd         0.0      0.5  0.35542    Cd
Cd         0.0      0.5  0.64458    Cd
Cd         0.0  0.64458      0.5    Cd
N      0.08266  0.36585  0.41388     N
N      0.08266  0.36585  0.58612     N
N      0.08266  0.41388  0.36585     N
N      0.08266  0.41388  0.63415     N
N      0.08266  0.58612  0.36585     N
N      0.08266  0.58612  0.63415     N
N      0.08266  0.63415  0.41388     N
N      0.08266  0.63415  0.58612     N
N      0.13615  0.32375  0.40471     N
N      0.13615  0.32375  0.59529     N
N      0.13615  0.40471  0.32375     N
N      0.13615  0.40471  0.67625     N
N      0.13615  0.59529  0.32375     N
N      0.13615  0.59529  0.67625     N
N      0.13615  0.67625  0.40471     N
N      0.13615  0.67625  0.59529     N
C      0.16773  0.34895  0.34895     C
C      0.16773  0.34895  0.65105     C
C      0.16773  0.65105  0.34895     C
C      0.16773  0.65105  0.65105     C
C      0.23034  0.31849  0.31849     C
C      0.23034  0.31849  0.68151     C
C      0.23034  0.68151  0.31849     C
C      0.23034  0.68151  0.68151     C
H       0.2403   0.2403   0.3871     H
H       0.2403   0.2403   0.6129     H
H       0.2403   0.3871   0.2403     H
H       0.2403   0.3871   0.7597     H
H       0.2403   0.6129   0.2403     H
H       0.2403   0.6129   0.7597     H
H       0.2403   0.7597   0.3871     H
H       0.2403   0.7597   0.6129     H
C      0.25984  0.25984  0.34782     C
C      0.25984  0.25984  0.65218     C
C      0.25984  0.34782  0.25984     C
C      0.25984  0.34782  0.74016     C
C      0.25984  0.65218  0.25984     C
C      0.25984  0.65218  0.74016     C
C      0.25984  0.74016  0.34782     C
C      0.25984  0.74016  0.65218     C
C      0.31849  0.23034  0.31849     C
C      0.31849  0.23034  0.68151     C
C      0.31849  0.31849  0.23034     C
C      0.31849  0.31849  0.76966     C
C      0.31849  0.68151  0.23034     C
C      0.31849  0.68151  0.76966     C
C      0.31849  0.76966  0.31849     C
C      0.31849  0.76966  0.68151     C
N      0.32375  0.13615  0.40471     N
N      0.32375  0.13615  0.59529     N
N      0.32375  0.40471  0.13615     N
N      0.32375  0.40471  0.86385     N
N      0.32375  0.59529  0.13615     N
N      0.32375  0.59529  0.86385     N
N      0.32375  0.86385  0.40471     N
N      0.32375  0.86385  0.59529     N
C      0.34782  0.25984  0.25984     C
C      0.34782  0.25984  0.74016     C
C      0.34782  0.74016  0.25984     C
C      0.34782  0.74016  0.74016     C
C      0.34895  0.16773  0.34895     C
C      0.34895  0.16773  0.65105     C
C      0.34895  0.34895  0.16773     C
C      0.34895  0.34895  0.83227     C
C      0.34895  0.65105  0.16773     C
C      0.34895  0.65105  0.83227     C
C      0.34895  0.83227  0.34895     C
C      0.34895  0.83227  0.65105     C
Cd     0.35542      0.0      0.5    Cd
Cd     0.35542      0.5      0.0    Cd
N      0.36585  0.08266  0.41388     N
N      0.36585  0.08266  0.58612     N
N      0.36585  0.41388  0.08266     N
N      0.36585  0.41388  0.91734     N
N      0.36585  0.58612  0.08266     N
N      0.36585  0.58612  0.91734     N
N      0.36585  0.91734  0.41388     N
N      0.36585  0.91734  0.58612     N
H       0.3871   0.2403   0.2403     H
H       0.3871   0.2403   0.7597     H
H       0.3871   0.7597   0.2403     H
H       0.3871   0.7597   0.7597     H
N      0.40471  0.13615  0.32375     N
N      0.40471  0.13615  0.67625     N
N      0.40471  0.32375  0.13615     N
N      0.40471  0.32375  0.86385     N
N      0.40471  0.67625  0.13615     N
N      0.40471  0.67625  0.86385     N
N      0.40471  0.86385  0.32375     N
N      0.40471  0.86385  0.67625     N
N      0.41388  0.08266  0.36585     N
N      0.41388  0.08266  0.63415     N
N      0.41388  0.36585  0.08266     N
N      0.41388  0.36585  0.91734     N
N      0.41388  0.63415  0.08266     N
N      0.41388  0.63415  0.91734     N
N      0.41388  0.91734  0.36585     N
N      0.41388  0.91734  0.63415     N
Cd         0.5      0.0  0.35542    Cd
Cd         0.5      0.0  0.64458    Cd
Cd         0.5  0.35542      0.0    Cd
Cd         0.5  0.64458      0.0    Cd
N      0.58612  0.08266  0.36585     N
N      0.58612  0.08266  0.63415     N
N      0.58612  0.36585  0.08266     N
N      0.58612  0.36585  0.91734     N
N      0.58612  0.63415  0.08266     N
N      0.58612  0.63415  0.91734     N
N      0.58612  0.91734  0.36585     N
N      0.58612  0.91734  0.63415     N
N      0.59529  0.13615  0.32375     N
N      0.59529  0.13615  0.67625     N
N      0.59529  0.32375  0.13615     N
N      0.59529  0.32375  0.86385     N
N      0.59529  0.67625  0.13615     N
N      0.59529  0.67625  0.86385     N
N      0.59529  0.86385  0.32375     N
N      0.59529  0.86385  0.67625     N
H       0.6129   0.2403   0.2403     H
H       0.6129   0.2403   0.7597     H
H       0.6129   0.7597   0.2403     H
H       0.6129   0.7597   0.7597     H
N      0.63415  0.08266  0.41388     N
N      0.63415  0.08266  0.58612     N
N      0.63415  0.41388  0.08266     N
N      0.63415  0.41388  0.91734     N
N      0.63415  0.58612  0.08266     N
N      0.63415  0.58612  0.91734     N
N      0.63415  0.91734  0.41388     N
N      0.63415  0.91734  0.58612     N
Cd     0.64458      0.0      0.5    Cd
Cd     0.64458      0.5      0.0    Cd
C      0.65105  0.16773  0.34895     C
C      0.65105  0.16773  0.65105     C
C      0.65105  0.34895  0.16773     C
C      0.65105  0.34895  0.83227     C
C      0.65105  0.65105  0.16773     C
C      0.65105  0.65105  0.83227     C
C      0.65105  0.83227  0.34895     C
C      0.65105  0.83227  0.65105     C
C      0.65218  0.25984  0.25984     C
C      0.65218  0.25984  0.74016     C
C      0.65218  0.74016  0.25984     C
C      0.65218  0.74016  0.74016     C
N      0.67625  0.13615  0.40471     N
N      0.67625  0.13615  0.59529     N
N      0.67625  0.40471  0.13615     N
N      0.67625  0.40471  0.86385     N
N      0.67625  0.59529  0.13615     N
N      0.67625  0.59529  0.86385     N
N      0.67625  0.86385  0.40471     N
N      0.67625  0.86385  0.59529     N
C      0.68151  0.23034  0.31849     C
C      0.68151  0.23034  0.68151     C
C      0.68151  0.31849  0.23034     C
C      0.68151  0.31849  0.76966     C
C      0.68151  0.68151  0.23034     C
C      0.68151  0.68151  0.76966     C
C      0.68151  0.76966  0.31849     C
C      0.68151  0.76966  0.68151     C
C      0.74016  0.25984  0.34782     C
C      0.74016  0.25984  0.65218     C
C      0.74016  0.34782  0.25984     C
C      0.74016  0.34782  0.74016     C
C      0.74016  0.65218  0.25984     C
C      0.74016  0.65218  0.74016     C
C      0.74016  0.74016  0.34782     C
C      0.74016  0.74016  0.65218     C
H       0.7597   0.2403   0.3871     H
H       0.7597   0.2403   0.6129     H
H       0.7597   0.3871   0.2403     H
H       0.7597   0.3871   0.7597     H
H       0.7597   0.6129   0.2403     H
H       0.7597   0.6129   0.7597     H
H       0.7597   0.7597   0.3871     H
H       0.7597   0.7597   0.6129     H
C      0.76966  0.31849  0.31849     C
C      0.76966  0.31849  0.68151     C
C      0.76966  0.68151  0.31849     C
C      0.76966  0.68151  0.68151     C
C      0.83227  0.34895  0.34895     C
C      0.83227  0.34895  0.65105     C
C      0.83227  0.65105  0.34895     C
C      0.83227  0.65105  0.65105     C
N      0.86385  0.32375  0.40471     N
N      0.86385  0.32375  0.59529     N
N      0.86385  0.40471  0.32375     N
N      0.86385  0.40471  0.67625     N
N      0.86385  0.59529  0.32375     N
N      0.86385  0.59529  0.67625     N
N      0.86385  0.67625  0.40471     N
N      0.86385  0.67625  0.59529     N
N      0.91734  0.36585  0.41388     N
N      0.91734  0.36585  0.58612     N
N      0.91734  0.41388  0.36585     N
N      0.91734  0.41388  0.63415     N
N      0.91734  0.58612  0.36585     N
N      0.91734  0.58612  0.63415     N
N      0.91734  0.63415  0.41388     N
N      0.91734  0.63415  0.58612     N
