data_I
_chemical_name_common  '/home/zhangsd/repos/MofS-CGCNN/ML/data/SSD/clean_cifs/BINROH_clean'
_cell_length_a 32.99000
_cell_length_b 32.99000
_cell_length_c 32.99000
_cell_angle_alpha 90.00000
_cell_angle_beta  90.00000
_cell_angle_gamma 90.00000
_space_group_name_H-M_alt      'P 1'


loop_
_space_group_symop_operation_xyz
  'x, y, z' 

loop_
_atom_site_label
_atom_site_fract_x
_atom_site_fract_y
_atom_site_fract_z
_atom_site_type_symbol
C      0.00073   0.0466  0.89464     C
C      0.00073   0.4534  0.60536     C
C      0.00073  0.60536   0.0466     C
C      0.00073  0.89464   0.4534     C
C      0.00094  0.14854  0.81706     C
C      0.00094  0.35146  0.68294     C
C      0.00094  0.68294  0.14854     C
C      0.00094  0.81706  0.35146     C
C      0.00197  0.18632  0.78943     C
C      0.00197  0.31368  0.71057     C
C      0.00197  0.71057  0.18632     C
C      0.00197  0.78943  0.31368     C
C      0.00207  0.08134  0.86797     C
C      0.00207  0.41866  0.63203     C
C      0.00207  0.63203  0.08134     C
C      0.00207  0.86797  0.41866     C
C      0.00306  0.03448  0.43642     C
C      0.00306  0.06358  0.03448     C
C      0.00306  0.43642  0.46552     C
C      0.00306  0.46552  0.06358     C
C      0.00397   0.0335  0.06394     C
C      0.00397  0.06394   0.4665     C
C      0.00397  0.43606   0.0335     C
C      0.00397   0.4665  0.43606     C
H       0.0156   0.5333   0.5842     H
H       0.0156   0.5842   0.9667     H
H       0.0156   0.9158   0.5333     H
H       0.0156   0.9667   0.9158     H
H        0.025   0.0353   0.9036     H
H        0.025   0.4647   0.5964     H
H        0.025   0.5964   0.0353     H
H        0.025   0.9036   0.4647     H
C      0.03022    0.534  0.90685     C
C      0.03022  0.59315    0.534     C
C      0.03022  0.90685    0.966     C
C      0.03022    0.966  0.59315     C
C      0.03285   0.1716  0.63237     C
C      0.03285   0.3284  0.86763     C
C      0.03285  0.63237   0.3284     C
C      0.03285  0.86763   0.1716     C
H       0.0333   0.0842   0.9844     H
H       0.0333   0.4158   0.5156     H
H       0.0333   0.5156   0.0842     H
H       0.0333   0.9844   0.4158     H
O      0.03334  0.21821  0.69957     O
O      0.03334  0.28179  0.80043     O
O      0.03334  0.69957  0.28179     O
O      0.03334  0.80043  0.21821     O
C       0.0335  0.00397  0.43606     C
C       0.0335  0.06394  0.00397     C
C       0.0335  0.43606  0.49603     C
C       0.0335  0.49603  0.06394     C
C        0.034  0.09315  0.53022     C
C        0.034  0.40685  0.96978     C
C        0.034  0.53022  0.40685     C
C        0.034  0.96978  0.09315     C
C      0.03423   0.1456   0.5971     C
C      0.03423   0.3544   0.9029     C
C      0.03423   0.5971   0.3544     C
C      0.03423   0.9029   0.1456     C
C      0.03448  0.00306  0.06358     C
C      0.03448  0.06358  0.49694     C
C      0.03448  0.43642  0.00306     C
C      0.03448  0.49694  0.43642     C
H        0.035   0.5951   0.9005     H
H        0.035   0.5995   0.5951     H
H        0.035   0.9005   0.9049     H
H        0.035   0.9049   0.5995     H
H       0.0353    0.025   0.5964     H
H       0.0353    0.475   0.9036     H
H       0.0353   0.5964    0.475     H
H       0.0353   0.9036    0.025     H
O      0.03575   0.1999  0.78198     O
O      0.03575   0.3001  0.71802     O
O      0.03575  0.71802   0.1999     O
O      0.03575  0.78198   0.3001     O
C      0.03819  0.09763  0.85481     C
C      0.03819  0.40237  0.64519     C
C      0.03819  0.64519  0.09763     C
C      0.03819  0.85481  0.40237     C
C      0.03862  0.13214  0.82967     C
C      0.03862  0.36786  0.67033     C
C      0.03862  0.67033  0.13214     C
C      0.03862  0.82967  0.36786     C
Cu     0.03974     0.25     0.75    Cu
Cu     0.03974     0.75     0.25    Cu
C       0.0465  0.57072  0.89244     C
C       0.0465  0.60756  0.57072     C
C       0.0465  0.89244  0.92928     C
C       0.0465  0.92928  0.60756     C
C       0.0466  0.00073  0.60536     C
C       0.0466  0.49927  0.89464     C
C       0.0466  0.60536  0.49927     C
C       0.0466  0.89464  0.00073     C
H       0.0571   0.1804   0.6438     H
H       0.0571   0.3196   0.8562     H
H       0.0571   0.6438   0.3196     H
H       0.0571   0.8562   0.1804     H
H       0.0625   0.0857   0.8626     H
H       0.0625   0.4143   0.6374     H
H       0.0625   0.6374   0.0857     H
H       0.0625   0.8626   0.4143     H
H        0.063   0.1438   0.8216     H
H        0.063   0.3562   0.6784     H
H        0.063   0.6784   0.1438     H
H        0.063   0.8216   0.3562     H
C      0.06358  0.00306  0.46552     C
C      0.06358  0.03448  0.00306     C
C      0.06358  0.46552  0.49694     C
C      0.06358  0.49694  0.03448     C
C      0.06394  0.00397   0.0335     C
C      0.06394   0.0335  0.49603     C
C      0.06394   0.4665  0.00397     C
C      0.06394  0.49603   0.4665     C
C      0.07072  0.10756   0.5465     C
C      0.07072  0.39244   0.9535     C
C      0.07072   0.5465  0.39244     C
C      0.07072   0.9535  0.10756     C
C      0.07102  0.13307  0.57877     C
C      0.07102  0.36693  0.92123     C
C      0.07102  0.57877  0.36693     C
C      0.07102  0.92123  0.13307     C
C      0.07877  0.57102  0.86693     C
C      0.07877  0.63307  0.57102     C
C      0.07877  0.86693  0.92898     C
C      0.07877  0.92898  0.63307     C
C      0.08134  0.00207  0.63203     C
C      0.08134  0.49793  0.86797     C
C      0.08134  0.63203  0.49793     C
C      0.08134  0.86797  0.00207     C
H       0.0842   0.0333   0.5156     H
H       0.0842   0.4667   0.9844     H
H       0.0842   0.5156   0.4667     H
H       0.0842   0.9844   0.0333     H
H       0.0857   0.0625   0.6374     H
H       0.0857   0.4375   0.8626     H
H       0.0857   0.6374   0.4375     H
H       0.0857   0.8626   0.0625     H
H        0.089   0.5956   0.8576     H
H        0.089   0.6424   0.5956     H
H        0.089   0.8576   0.9044     H
H        0.089   0.9044   0.6424     H
C      0.09315    0.034  0.96978     C
C      0.09315    0.466  0.53022     C
C      0.09315  0.53022    0.034     C
C      0.09315  0.96978    0.466     C
H       0.0951   0.0995    0.535     H
H       0.0951   0.4005    0.965     H
H       0.0951    0.535   0.4005     H
H       0.0951    0.965   0.0995     H
H       0.0956   0.1424    0.589     H
H       0.0956   0.3576    0.911     H
H       0.0956    0.589   0.3576     H
H       0.0956    0.911   0.1424     H
H       0.0964    0.525   0.5353     H
H       0.0964   0.5353    0.975     H
H       0.0964   0.9647    0.525     H
H       0.0964    0.975   0.9647     H
C       0.0971  0.53423   0.8544     C
C       0.0971   0.6456  0.53423     C
C       0.0971   0.8544  0.96577     C
C       0.0971  0.96577   0.6456     C
C      0.09763  0.03819  0.64519     C
C      0.09763  0.46181  0.85481     C
C      0.09763  0.64519  0.46181     C
C      0.09763  0.85481  0.03819     C
H       0.0995   0.0951    0.965     H
H       0.0995   0.4049    0.535     H
H       0.0995    0.535   0.0951     H
H       0.0995    0.965   0.4049     H
C      0.10536  0.50073   0.5466     C
C      0.10536   0.5466  0.99927     C
C      0.10536   0.9534  0.50073     C
C      0.10536  0.99927   0.9534     C
C      0.10756  0.07072   0.9535     C
C      0.10756  0.42928   0.5465     C
C      0.10756   0.5465  0.07072     C
C      0.10756   0.9535  0.42928     C
C      0.13203  0.50207  0.58134     C
C      0.13203  0.58134  0.99793     C
C      0.13203  0.91866  0.50207     C
C      0.13203  0.99793  0.91866     C
C      0.13214  0.03862  0.67033     C
C      0.13214  0.46138  0.82967     C
C      0.13214  0.67033  0.46138     C
C      0.13214  0.82967  0.03862     C
C      0.13237  0.53285   0.8284     C
C      0.13237   0.6716  0.53285     C
C      0.13237   0.8284  0.96715     C
C      0.13237  0.96715   0.6716     C
C      0.13307  0.07102  0.92123     C
C      0.13307  0.42898  0.57877     C
C      0.13307  0.57877  0.07102     C
C      0.13307  0.92123  0.42898     C
H       0.1374   0.5625   0.5857     H
H       0.1374   0.5857   0.9375     H
H       0.1374   0.9143   0.5625     H
H       0.1374   0.9375   0.9143     H
H       0.1424   0.0956    0.911     H
H       0.1424   0.4044    0.589     H
H       0.1424    0.589   0.0956     H
H       0.1424    0.911   0.4044     H
H       0.1438    0.063   0.6784     H
H       0.1438    0.437   0.8216     H
H       0.1438   0.5571   0.8196     H
H       0.1438   0.6784    0.437     H
H       0.1438   0.6804   0.5571     H
H       0.1438   0.8196   0.9429     H
H       0.1438   0.8216    0.063     H
H       0.1438   0.9429   0.6804     H
C      0.14519  0.53819  0.59763     C
C      0.14519  0.59763  0.96181     C
C      0.14519  0.90237  0.53819     C
C      0.14519  0.96181  0.90237     C
C       0.1456  0.03423   0.9029     C
C       0.1456  0.46577   0.5971     C
C       0.1456   0.5971  0.03423     C
C       0.1456   0.9029  0.46577     C
C      0.14854  0.00094  0.68294     C
C      0.14854  0.49906  0.81706     C
C      0.14854  0.68294  0.49906     C
C      0.14854  0.81706  0.00094     C
C      0.17033  0.53862  0.63214     C
C      0.17033  0.63214  0.96138     C
C      0.17033  0.86786  0.53862     C
C      0.17033  0.96138  0.86786     C
C       0.1716  0.03285  0.86763     C
C       0.1716  0.46715  0.63237     C
C       0.1716  0.63237  0.03285     C
C       0.1716  0.86763  0.46715     C
H       0.1784    0.563   0.6438     H
H       0.1784   0.6438    0.937     H
H       0.1784   0.8562    0.563     H
H       0.1784    0.937   0.8562     H
H       0.1804   0.0571   0.8562     H
H       0.1804   0.4429   0.6438     H
H       0.1804   0.6438   0.0571     H
H       0.1804   0.8562   0.4429     H
C      0.18294  0.50094  0.64854     C
C      0.18294  0.64854  0.99906     C
C      0.18294  0.85146  0.50094     C
C      0.18294  0.99906  0.85146     C
C      0.18632  0.00197  0.71057     C
C      0.18632  0.49803  0.78943     C
C      0.18632  0.71057  0.49803     C
C      0.18632  0.78943  0.00197     C
O      0.19957  0.53334  0.78179     O
O      0.19957  0.71821  0.53334     O
O      0.19957  0.78179  0.96666     O
O      0.19957  0.96666  0.71821     O
O       0.1999  0.03575  0.71802     O
O       0.1999  0.46425  0.78198     O
O       0.1999  0.71802  0.46425     O
O       0.1999  0.78198  0.03575     O
C      0.21057  0.50197  0.68632     C
C      0.21057  0.68632  0.99803     C
C      0.21057  0.81368  0.50197     C
C      0.21057  0.99803  0.81368     C
O      0.21802  0.53575   0.6999     O
O      0.21802   0.6999  0.96425     O
O      0.21802   0.8001  0.53575     O
O      0.21802  0.96425   0.8001     O
O      0.21821  0.03334  0.80043     O
O      0.21821  0.46666  0.69957     O
O      0.21821  0.69957  0.03334     O
O      0.21821  0.80043  0.46666     O
Cu        0.25  0.03974     0.75    Cu
Cu        0.25  0.46026     0.75    Cu
Cu        0.25  0.53974     0.75    Cu
Cu        0.25     0.75  0.03974    Cu
Cu        0.25     0.75  0.46026    Cu
Cu        0.25     0.75  0.53974    Cu
Cu        0.25     0.75  0.96026    Cu
Cu        0.25  0.96026     0.75    Cu
O      0.28179  0.03334  0.69957     O
O      0.28179  0.46666  0.80043     O
O      0.28179  0.69957  0.46666     O
O      0.28179  0.80043  0.03334     O
O      0.28198  0.53575   0.8001     O
O      0.28198   0.6999  0.53575     O
O      0.28198   0.8001  0.96425     O
O      0.28198  0.96425   0.6999     O
C      0.28943  0.50197  0.81368     C
C      0.28943  0.68632  0.50197     C
C      0.28943  0.81368  0.99803     C
C      0.28943  0.99803  0.68632     C
O       0.3001  0.03575  0.78198     O
O       0.3001  0.46425  0.71802     O
O       0.3001  0.71802  0.03575     O
O       0.3001  0.78198  0.46425     O
O      0.30043  0.53334  0.71821     O
O      0.30043  0.71821  0.96666     O
O      0.30043  0.78179  0.53334     O
O      0.30043  0.96666  0.78179     O
C      0.31368  0.00197  0.78943     C
C      0.31368  0.49803  0.71057     C
C      0.31368  0.71057  0.00197     C
C      0.31368  0.78943  0.49803     C
C      0.31706  0.50094  0.85146     C
C      0.31706  0.64854  0.50094     C
C      0.31706  0.85146  0.99906     C
C      0.31706  0.99906  0.64854     C
H       0.3196   0.0571   0.6438     H
H       0.3196   0.4429   0.8562     H
H       0.3196   0.6438   0.4429     H
H       0.3196   0.8562   0.0571     H
H       0.3216    0.563   0.8562     H
H       0.3216   0.6438    0.563     H
H       0.3216   0.8562    0.937     H
H       0.3216    0.937   0.6438     H
C       0.3284  0.03285  0.63237     C
C       0.3284  0.46715  0.86763     C
C       0.3284  0.63237  0.46715     C
C       0.3284  0.86763  0.03285     C
C      0.32967  0.53862  0.86786     C
C      0.32967  0.63214  0.53862     C
C      0.32967  0.86786  0.96138     C
C      0.32967  0.96138  0.63214     C
C      0.35146  0.00094  0.81706     C
C      0.35146  0.49906  0.68294     C
C      0.35146  0.68294  0.00094     C
C      0.35146  0.81706  0.49906     C
C       0.3544  0.03423   0.5971     C
C       0.3544  0.46577   0.9029     C
C       0.3544   0.5971  0.46577     C
C       0.3544   0.9029  0.03423     C
C      0.35481  0.53819  0.90237     C
C      0.35481  0.59763  0.53819     C
C      0.35481  0.90237  0.96181     C
C      0.35481  0.96181  0.59763     C
H       0.3562    0.063   0.8216     H
H       0.3562    0.437   0.6784     H
H       0.3562   0.5571   0.6804     H
H       0.3562   0.6784    0.063     H
H       0.3562   0.6804   0.9429     H
H       0.3562   0.8196   0.5571     H
H       0.3562   0.8216    0.437     H
H       0.3562   0.9429   0.8196     H
H       0.3576   0.0956    0.589     H
H       0.3576   0.4044    0.911     H
H       0.3576    0.589   0.4044     H
H       0.3576    0.911   0.0956     H
H       0.3626   0.5625   0.9143     H
H       0.3626   0.5857   0.5625     H
H       0.3626   0.9143   0.9375     H
H       0.3626   0.9375   0.5857     H
C      0.36693  0.07102  0.57877     C
C      0.36693  0.42898  0.92123     C
C      0.36693  0.57877  0.42898     C
C      0.36693  0.92123  0.07102     C
C      0.36763  0.53285   0.6716     C
C      0.36763   0.6716  0.96715     C
C      0.36763   0.8284  0.53285     C
C      0.36763  0.96715   0.8284     C
C      0.36786  0.03862  0.82967     C
C      0.36786  0.46138  0.67033     C
C      0.36786  0.67033  0.03862     C
C      0.36786  0.82967  0.46138     C
C      0.36797  0.50207  0.91866     C
C      0.36797  0.58134  0.50207     C
C      0.36797  0.91866  0.99793     C
C      0.36797  0.99793  0.58134     C
C      0.39244  0.07072   0.5465     C
C      0.39244  0.42928   0.9535     C
C      0.39244   0.5465  0.42928     C
C      0.39244   0.9535  0.07072     C
C      0.39464  0.50073   0.9534     C
C      0.39464   0.5466  0.50073     C
C      0.39464   0.9534  0.99927     C
C      0.39464  0.99927   0.5466     C
H       0.4005   0.0951    0.535     H
H       0.4005   0.4049    0.965     H
H       0.4005    0.535   0.4049     H
H       0.4005    0.965   0.0951     H
C      0.40237  0.03819  0.85481     C
C      0.40237  0.46181  0.64519     C
C      0.40237  0.64519  0.03819     C
C      0.40237  0.85481  0.46181     C
C       0.4029  0.53423   0.6456     C
C       0.4029   0.6456  0.96577     C
C       0.4029   0.8544  0.53423     C
C       0.4029  0.96577   0.8544     C
H       0.4036    0.525   0.9647     H
H       0.4036   0.5353    0.525     H
H       0.4036   0.9647    0.975     H
H       0.4036    0.975   0.5353     H
H       0.4044   0.1424    0.911     H
H       0.4044   0.3576    0.589     H
H       0.4044    0.589   0.1424     H
H       0.4044    0.911   0.3576     H
H       0.4049   0.0995    0.965     H
H       0.4049   0.4005    0.535     H
H       0.4049    0.535   0.0995     H
H       0.4049    0.965   0.4005     H
C      0.40685    0.034  0.53022     C
C      0.40685    0.466  0.96978     C
C      0.40685  0.53022    0.466     C
C      0.40685  0.96978    0.034     C
H        0.411   0.5956   0.6424     H
H        0.411   0.6424   0.9044     H
H        0.411   0.8576   0.5956     H
H        0.411   0.9044   0.8576     H
H       0.4143   0.0625   0.8626     H
H       0.4143   0.4375   0.6374     H
H       0.4143   0.6374   0.0625     H
H       0.4143   0.8626   0.4375     H
H       0.4158   0.0333   0.9844     H
H       0.4158   0.4667   0.5156     H
H       0.4158   0.5156   0.0333     H
H       0.4158   0.9844   0.4667     H
C      0.41866  0.00207  0.86797     C
C      0.41866  0.49793  0.63203     C
C      0.41866  0.63203  0.00207     C
C      0.41866  0.86797  0.49793     C
C      0.42123  0.57102  0.63307     C
C      0.42123  0.63307  0.92898     C
C      0.42123  0.86693  0.57102     C
C      0.42123  0.92898  0.86693     C
C      0.42898  0.13307  0.92123     C
C      0.42898  0.36693  0.57877     C
C      0.42898  0.57877  0.13307     C
C      0.42898  0.92123  0.36693     C
C      0.42928  0.10756   0.9535     C
C      0.42928  0.39244   0.5465     C
C      0.42928   0.5465  0.10756     C
C      0.42928   0.9535  0.39244     C
C      0.43606  0.00397   0.4665     C
C      0.43606   0.0335  0.00397     C
C      0.43606   0.4665  0.49603     C
C      0.43606  0.49603   0.0335     C
C      0.43642  0.00306  0.03448     C
C      0.43642  0.03448  0.49694     C
C      0.43642  0.46552  0.00306     C
C      0.43642  0.49694  0.46552     C
H        0.437   0.1438   0.6784     H
H        0.437   0.3562   0.8216     H
H        0.437   0.6784   0.3562     H
H        0.437   0.8216   0.1438     H
H       0.4375   0.0857   0.6374     H
H       0.4375   0.4143   0.8626     H
H       0.4375   0.6374   0.4143     H
H       0.4375   0.8626   0.0857     H
H       0.4429   0.1804   0.8562     H
H       0.4429   0.3196   0.6438     H
H       0.4429   0.6438   0.1804     H
H       0.4429   0.8562   0.3196     H
C       0.4534  0.00073  0.89464     C
C       0.4534  0.49927  0.60536     C
C       0.4534  0.60536  0.00073     C
C       0.4534  0.89464  0.49927     C
C       0.4535  0.57072  0.60756     C
C       0.4535  0.60756  0.92928     C
C       0.4535  0.89244  0.57072     C
C       0.4535  0.92928  0.89244     C
Cu     0.46026     0.25     0.75    Cu
Cu     0.46026     0.75     0.25    Cu
C      0.46138  0.13214  0.67033     C
C      0.46138  0.36786  0.82967     C
C      0.46138  0.67033  0.36786     C
C      0.46138  0.82967  0.13214     C
C      0.46181  0.09763  0.64519     C
C      0.46181  0.40237  0.85481     C
C      0.46181  0.64519  0.40237     C
C      0.46181  0.85481  0.09763     C
O      0.46425   0.1999  0.71802     O
O      0.46425   0.3001  0.78198     O
O      0.46425  0.71802   0.3001     O
O      0.46425  0.78198   0.1999     O
H       0.4647    0.025   0.9036     H
H       0.4647    0.475   0.5964     H
H       0.4647   0.5964    0.025     H
H       0.4647   0.9036    0.475     H
H        0.465   0.5951   0.5995     H
H        0.465   0.5995   0.9049     H
H        0.465   0.9005   0.5951     H
H        0.465   0.9049   0.9005     H
C      0.46552  0.00306  0.43642     C
C      0.46552  0.06358  0.00306     C
C      0.46552  0.43642  0.49694     C
C      0.46552  0.49694  0.06358     C
C      0.46577   0.1456   0.9029     C
C      0.46577   0.3544   0.5971     C
C      0.46577   0.5971   0.1456     C
C      0.46577   0.9029   0.3544     C
C        0.466  0.09315  0.96978     C
C        0.466  0.40685  0.53022     C
C        0.466  0.53022  0.09315     C
C        0.466  0.96978  0.40685     C
C       0.4665  0.00397  0.06394     C
C       0.4665  0.06394  0.49603     C
C       0.4665  0.43606  0.00397     C
C       0.4665  0.49603  0.43606     C
O      0.46666  0.21821  0.80043     O
O      0.46666  0.28179  0.69957     O
O      0.46666  0.69957  0.21821     O
O      0.46666  0.80043  0.28179     O
H       0.4667   0.0842   0.5156     H
H       0.4667   0.4158   0.9844     H
H       0.4667   0.5156   0.4158     H
H       0.4667   0.9844   0.0842     H
C      0.46715   0.1716  0.86763     C
C      0.46715   0.3284  0.63237     C
C      0.46715  0.63237   0.1716     C
C      0.46715  0.86763   0.3284     C
C      0.46978    0.534  0.59315     C
C      0.46978  0.59315    0.966     C
C      0.46978  0.90685    0.534     C
C      0.46978    0.966  0.90685     C
H        0.475   0.0353   0.5964     H
H        0.475   0.4647   0.9036     H
H        0.475   0.5964   0.4647     H
H        0.475   0.9036   0.0353     H
H       0.4844   0.5333   0.9158     H
H       0.4844   0.5842   0.5333     H
H       0.4844   0.9158   0.9667     H
H       0.4844   0.9667   0.5842     H
C      0.49603   0.0335  0.43606     C
C      0.49603  0.06394   0.0335     C
C      0.49603  0.43606   0.4665     C
C      0.49603   0.4665  0.06394     C
C      0.49694  0.03448  0.06358     C
C      0.49694  0.06358  0.46552     C
C      0.49694  0.43642  0.03448     C
C      0.49694  0.46552  0.43642     C
C      0.49793  0.08134  0.63203     C
C      0.49793  0.41866  0.86797     C
C      0.49793  0.63203  0.41866     C
C      0.49793  0.86797  0.08134     C
C      0.49803  0.18632  0.71057     C
C      0.49803  0.31368  0.78943     C
C      0.49803  0.71057  0.31368     C
C      0.49803  0.78943  0.18632     C
C      0.49906  0.14854  0.68294     C
C      0.49906  0.35146  0.81706     C
C      0.49906  0.68294  0.35146     C
C      0.49906  0.81706  0.14854     C
C      0.49927   0.0466  0.60536     C
C      0.49927   0.4534  0.89464     C
C      0.49927  0.60536   0.4534     C
C      0.49927  0.89464   0.0466     C
C      0.50073  0.10536   0.9534     C
C      0.50073  0.39464   0.5466     C
C      0.50073   0.5466  0.10536     C
C      0.50073   0.9534  0.39464     C
C      0.50094  0.18294  0.85146     C
C      0.50094  0.31706  0.64854     C
C      0.50094  0.64854  0.18294     C
C      0.50094  0.85146  0.31706     C
C      0.50197  0.21057  0.81368     C
C      0.50197  0.28943  0.68632     C
C      0.50197  0.68632  0.21057     C
C      0.50197  0.81368  0.28943     C
C      0.50207  0.13203  0.91866     C
C      0.50207  0.36797  0.58134     C
C      0.50207  0.58134  0.13203     C
C      0.50207  0.91866  0.36797     C
C      0.50306  0.53448  0.56358     C
C      0.50306  0.56358  0.96552     C
C      0.50306  0.93642  0.53448     C
C      0.50306  0.96552  0.93642     C
C      0.50397   0.5335  0.93606     C
C      0.50397  0.56394   0.5335     C
C      0.50397  0.93606   0.9665     C
C      0.50397   0.9665  0.56394     C
H       0.5156   0.0333   0.4158     H
H       0.5156   0.0842   0.0333     H
H       0.5156   0.4158   0.4667     H
H       0.5156   0.4667   0.0842     H
H        0.525   0.0964   0.9647     H
H        0.525   0.4036   0.5353     H
H        0.525   0.5353   0.0964     H
H        0.525   0.9647   0.4036     H
C      0.53022    0.034  0.09315     C
C      0.53022  0.09315    0.466     C
C      0.53022  0.40685    0.034     C
C      0.53022    0.466  0.40685     C
C      0.53285  0.13237   0.6716     C
C      0.53285  0.36763   0.8284     C
C      0.53285   0.6716  0.36763     C
C      0.53285   0.8284  0.13237     C
H       0.5333   0.0156   0.9158     H
H       0.5333   0.4844   0.5842     H
H       0.5333   0.5842   0.0156     H
H       0.5333   0.9158   0.4844     H
O      0.53334  0.19957  0.71821     O
O      0.53334  0.30043  0.78179     O
O      0.53334  0.71821  0.30043     O
O      0.53334  0.78179  0.19957     O
C       0.5335  0.50397  0.56394     C
C       0.5335  0.56394  0.99603     C
C       0.5335  0.93606  0.50397     C
C       0.5335  0.99603  0.93606     C
C        0.534  0.03022  0.59315     C
C        0.534  0.46978  0.90685     C
C        0.534  0.59315  0.46978     C
C        0.534  0.90685  0.03022     C
C      0.53423   0.0971   0.6456     C
C      0.53423   0.4029   0.8544     C
C      0.53423   0.6456   0.4029     C
C      0.53423   0.8544   0.0971     C
C      0.53448  0.50306  0.93642     C
C      0.53448  0.56358  0.50306     C
C      0.53448  0.93642  0.99694     C
C      0.53448  0.99694  0.56358     C
H        0.535   0.0951   0.0995     H
H        0.535   0.0995   0.4049     H
H        0.535   0.4005   0.0951     H
H        0.535   0.4049   0.4005     H
H       0.5353   0.0964    0.525     H
H       0.5353   0.4036    0.975     H
H       0.5353    0.525   0.4036     H
H       0.5353    0.975   0.0964     H
O      0.53575  0.21802   0.8001     O
O      0.53575  0.28198   0.6999     O
O      0.53575   0.6999  0.21802     O
O      0.53575   0.8001  0.28198     O
C      0.53819  0.14519  0.90237     C
C      0.53819  0.35481  0.59763     C
C      0.53819  0.59763  0.14519     C
C      0.53819  0.90237  0.35481     C
C      0.53862  0.17033  0.86786     C
C      0.53862  0.32967  0.63214     C
C      0.53862  0.63214  0.17033     C
C      0.53862  0.86786  0.32967     C
Cu     0.53974     0.25     0.75    Cu
Cu     0.53974     0.75     0.25    Cu
C       0.5465  0.07072  0.10756     C
C       0.5465  0.10756  0.42928     C
C       0.5465  0.39244  0.07072     C
C       0.5465  0.42928  0.39244     C
C       0.5466  0.10536  0.50073     C
C       0.5466  0.39464  0.99927     C
C       0.5466  0.50073  0.39464     C
C       0.5466  0.99927  0.10536     C
H       0.5571   0.1438   0.6804     H
H       0.5571   0.3562   0.8196     H
H       0.5571   0.6804   0.3562     H
H       0.5571   0.8196   0.1438     H
H       0.5625   0.1374   0.9143     H
H       0.5625   0.3626   0.5857     H
H       0.5625   0.5857   0.1374     H
H       0.5625   0.9143   0.3626     H
H        0.563   0.1784   0.8562     H
H        0.563   0.3216   0.6438     H
H        0.563   0.6438   0.1784     H
H        0.563   0.8562   0.3216     H
C      0.56358  0.50306  0.53448     C
C      0.56358  0.53448  0.99694     C
C      0.56358  0.96552  0.50306     C
C      0.56358  0.99694  0.96552     C
C      0.56394  0.50397   0.9665     C
C      0.56394   0.5335  0.50397     C
C      0.56394   0.9665  0.99603     C
C      0.56394  0.99603   0.5335     C
C      0.57072   0.0465  0.60756     C
C      0.57072   0.4535  0.89244     C
C      0.57072  0.60756   0.4535     C
C      0.57072  0.89244   0.0465     C
C      0.57102  0.07877  0.63307     C
C      0.57102  0.42123  0.86693     C
C      0.57102  0.63307  0.42123     C
C      0.57102  0.86693  0.07877     C
C      0.57877  0.07102  0.13307     C
C      0.57877  0.13307  0.42898     C
C      0.57877  0.36693  0.07102     C
C      0.57877  0.42898  0.36693     C
C      0.58134  0.13203  0.50207     C
C      0.58134  0.36797  0.99793     C
C      0.58134  0.50207  0.36797     C
C      0.58134  0.99793  0.13203     C
H       0.5842   0.0156   0.5333     H
H       0.5842   0.4844   0.9667     H
H       0.5842   0.5333   0.4844     H
H       0.5842   0.9667   0.0156     H
H       0.5857   0.1374   0.5625     H
H       0.5857   0.3626   0.9375     H
H       0.5857   0.5625   0.3626     H
H       0.5857   0.9375   0.1374     H
H        0.589   0.0956   0.1424     H
H        0.589   0.1424   0.4044     H
H        0.589   0.3576   0.0956     H
H        0.589   0.4044   0.3576     H
C      0.59315  0.03022    0.966     C
C      0.59315  0.46978    0.534     C
C      0.59315    0.534  0.03022     C
C      0.59315    0.966  0.46978     C
H       0.5951    0.035   0.5995     H
H       0.5951    0.465   0.9005     H
H       0.5951   0.5995    0.465     H
H       0.5951   0.9005    0.035     H
H       0.5956    0.089   0.6424     H
H       0.5956    0.411   0.8576     H
H       0.5956   0.6424    0.411     H
H       0.5956   0.8576    0.089     H
H       0.5964    0.025   0.4647     H
H       0.5964   0.0353    0.025     H
H       0.5964   0.4647    0.475     H
H       0.5964    0.475   0.0353     H
C       0.5971  0.03423   0.1456     C
C       0.5971   0.1456  0.46577     C
C       0.5971   0.3544  0.03423     C
C       0.5971  0.46577   0.3544     C
C      0.59763  0.14519  0.53819     C
C      0.59763  0.35481  0.96181     C
C      0.59763  0.53819  0.35481     C
C      0.59763  0.96181  0.14519     C
H       0.5995    0.035   0.9049     H
H       0.5995    0.465   0.5951     H
H       0.5995   0.5951    0.035     H
H       0.5995   0.9049    0.465     H
C      0.60536  0.00073   0.4534     C
C      0.60536   0.0466  0.00073     C
C      0.60536   0.4534  0.49927     C
C      0.60536  0.49927   0.0466     C
C      0.60756   0.0465  0.92928     C
C      0.60756   0.4535  0.57072     C
C      0.60756  0.57072   0.0465     C
C      0.60756  0.92928   0.4535     C
C      0.63203  0.00207  0.41866     C
C      0.63203  0.08134  0.00207     C
C      0.63203  0.41866  0.49793     C
C      0.63203  0.49793  0.08134     C
C      0.63214  0.17033  0.53862     C
C      0.63214  0.32967  0.96138     C
C      0.63214  0.53862  0.32967     C
C      0.63214  0.96138  0.17033     C
C      0.63237  0.03285   0.1716     C
C      0.63237   0.1716  0.46715     C
C      0.63237   0.3284  0.03285     C
C      0.63237  0.46715   0.3284     C
C      0.63307  0.07877  0.92898     C
C      0.63307  0.42123  0.57102     C
C      0.63307  0.57102  0.07877     C
C      0.63307  0.92898  0.42123     C
H       0.6374   0.0625   0.4143     H
H       0.6374   0.0857   0.0625     H
H       0.6374   0.4143   0.4375     H
H       0.6374   0.4375   0.0857     H
H       0.6424    0.089   0.9044     H
H       0.6424    0.411   0.5956     H
H       0.6424   0.5956    0.089     H
H       0.6424   0.9044    0.411     H
H       0.6438   0.0571   0.1804     H
H       0.6438   0.1784    0.563     H
H       0.6438   0.1804   0.4429     H
H       0.6438   0.3196   0.0571     H
H       0.6438   0.3216    0.937     H
H       0.6438   0.4429   0.3196     H
H       0.6438    0.563   0.3216     H
H       0.6438    0.937   0.1784     H
C      0.64519  0.03819  0.40237     C
C      0.64519  0.09763  0.03819     C
C      0.64519  0.40237  0.46181     C
C      0.64519  0.46181  0.09763     C
C       0.6456   0.0971  0.96577     C
C       0.6456   0.4029  0.53423     C
C       0.6456  0.53423   0.0971     C
C       0.6456  0.96577   0.4029     C
C      0.64854  0.18294  0.50094     C
C      0.64854  0.31706  0.99906     C
C      0.64854  0.50094  0.31706     C
C      0.64854  0.99906  0.18294     C
C      0.67033  0.03862  0.36786     C
C      0.67033  0.13214  0.03862     C
C      0.67033  0.36786  0.46138     C
C      0.67033  0.46138  0.13214     C
C       0.6716  0.13237  0.96715     C
C       0.6716  0.36763  0.53285     C
C       0.6716  0.53285  0.13237     C
C       0.6716  0.96715  0.36763     C
H       0.6784    0.063   0.3562     H
H       0.6784   0.1438    0.063     H
H       0.6784   0.3562    0.437     H
H       0.6784    0.437   0.1438     H
H       0.6804   0.1438   0.9429     H
H       0.6804   0.3562   0.5571     H
H       0.6804   0.5571   0.1438     H
H       0.6804   0.9429   0.3562     H
C      0.68294  0.00094  0.35146     C
C      0.68294  0.14854  0.00094     C
C      0.68294  0.35146  0.49906     C
C      0.68294  0.49906  0.14854     C
C      0.68632  0.21057  0.50197     C
C      0.68632  0.28943  0.99803     C
C      0.68632  0.50197  0.28943     C
C      0.68632  0.99803  0.21057     C
O      0.69957  0.03334  0.21821     O
O      0.69957  0.21821  0.46666     O
O      0.69957  0.28179  0.03334     O
O      0.69957  0.46666  0.28179     O
O       0.6999  0.21802  0.53575     O
O       0.6999  0.28198  0.96425     O
O       0.6999  0.53575  0.28198     O
O       0.6999  0.96425  0.21802     O
C      0.71057  0.00197  0.31368     C
C      0.71057  0.18632  0.00197     C
C      0.71057  0.31368  0.49803     C
C      0.71057  0.49803  0.18632     C
O      0.71802  0.03575   0.3001     O
O      0.71802   0.1999  0.03575     O
O      0.71802   0.3001  0.46425     O
O      0.71802  0.46425   0.1999     O
O      0.71821  0.19957  0.96666     O
O      0.71821  0.30043  0.53334     O
O      0.71821  0.53334  0.19957     O
O      0.71821  0.96666  0.30043     O
Cu        0.75  0.03974     0.25    Cu
Cu        0.75     0.25  0.03974    Cu
Cu        0.75     0.25  0.46026    Cu
Cu        0.75     0.25  0.53974    Cu
Cu        0.75     0.25  0.96026    Cu
Cu        0.75  0.46026     0.25    Cu
Cu        0.75  0.53974     0.25    Cu
Cu        0.75  0.96026     0.25    Cu
O      0.78179  0.19957  0.53334     O
O      0.78179  0.30043  0.96666     O
O      0.78179  0.53334  0.30043     O
O      0.78179  0.96666  0.19957     O
O      0.78198  0.03575   0.1999     O
O      0.78198   0.1999  0.46425     O
O      0.78198   0.3001  0.03575     O
O      0.78198  0.46425   0.3001     O
C      0.78943  0.00197  0.18632     C
C      0.78943  0.18632  0.49803     C
C      0.78943  0.31368  0.00197     C
C      0.78943  0.49803  0.31368     C
O       0.8001  0.21802  0.96425     O
O       0.8001  0.28198  0.53575     O
O       0.8001  0.53575  0.21802     O
O       0.8001  0.96425  0.28198     O
O      0.80043  0.03334  0.28179     O
O      0.80043  0.21821  0.03334     O
O      0.80043  0.28179  0.46666     O
O      0.80043  0.46666  0.21821     O
C      0.81368  0.21057  0.99803     C
C      0.81368  0.28943  0.50197     C
C      0.81368  0.50197  0.21057     C
C      0.81368  0.99803  0.28943     C
C      0.81706  0.00094  0.14854     C
C      0.81706  0.14854  0.49906     C
C      0.81706  0.35146  0.00094     C
C      0.81706  0.49906  0.35146     C
H       0.8196   0.1438   0.5571     H
H       0.8196   0.3562   0.9429     H
H       0.8196   0.5571   0.3562     H
H       0.8196   0.9429   0.1438     H
H       0.8216    0.063   0.1438     H
H       0.8216   0.1438    0.437     H
H       0.8216   0.3562    0.063     H
H       0.8216    0.437   0.3562     H
C       0.8284  0.13237  0.53285     C
C       0.8284  0.36763  0.96715     C
C       0.8284  0.53285  0.36763     C
C       0.8284  0.96715  0.13237     C
C      0.82967  0.03862  0.13214     C
C      0.82967  0.13214  0.46138     C
C      0.82967  0.36786  0.03862     C
C      0.82967  0.46138  0.36786     C
C      0.85146  0.18294  0.99906     C
C      0.85146  0.31706  0.50094     C
C      0.85146  0.50094  0.18294     C
C      0.85146  0.99906  0.31706     C
C       0.8544   0.0971  0.53423     C
C       0.8544   0.4029  0.96577     C
C       0.8544  0.53423   0.4029     C
C       0.8544  0.96577   0.0971     C
C      0.85481  0.03819  0.09763     C
C      0.85481  0.09763  0.46181     C
C      0.85481  0.40237  0.03819     C
C      0.85481  0.46181  0.40237     C
H       0.8562   0.0571   0.3196     H
H       0.8562   0.1784    0.937     H
H       0.8562   0.1804   0.0571     H
H       0.8562   0.3196   0.4429     H
H       0.8562   0.3216    0.563     H
H       0.8562   0.4429   0.1804     H
H       0.8562    0.563   0.1784     H
H       0.8562    0.937   0.3216     H
H       0.8576    0.089   0.5956     H
H       0.8576    0.411   0.9044     H
H       0.8576   0.5956    0.411     H
H       0.8576   0.9044    0.089     H
H       0.8626   0.0625   0.0857     H
H       0.8626   0.0857   0.4375     H
H       0.8626   0.4143   0.0625     H
H       0.8626   0.4375   0.4143     H
C      0.86693  0.07877  0.57102     C
C      0.86693  0.42123  0.92898     C
C      0.86693  0.57102  0.42123     C
C      0.86693  0.92898  0.07877     C
C      0.86763  0.03285   0.3284     C
C      0.86763   0.1716  0.03285     C
C      0.86763   0.3284  0.46715     C
C      0.86763  0.46715   0.1716     C
C      0.86786  0.17033  0.96138     C
C      0.86786  0.32967  0.53862     C
C      0.86786  0.53862  0.17033     C
C      0.86786  0.96138  0.32967     C
C      0.86797  0.00207  0.08134     C
C      0.86797  0.08134  0.49793     C
C      0.86797  0.41866  0.00207     C
C      0.86797  0.49793  0.41866     C
C      0.89244   0.0465  0.57072     C
C      0.89244   0.4535  0.92928     C
C      0.89244  0.57072   0.4535     C
C      0.89244  0.92928   0.0465     C
C      0.89464  0.00073   0.0466     C
C      0.89464   0.0466  0.49927     C
C      0.89464   0.4534  0.00073     C
C      0.89464  0.49927   0.4534     C
H       0.9005    0.035   0.5951     H
H       0.9005    0.465   0.9049     H
H       0.9005   0.5951    0.465     H
H       0.9005   0.9049    0.035     H
C      0.90237  0.14519  0.96181     C
C      0.90237  0.35481  0.53819     C
C      0.90237  0.53819  0.14519     C
C      0.90237  0.96181  0.35481     C
C       0.9029  0.03423   0.3544     C
C       0.9029   0.1456  0.03423     C
C       0.9029   0.3544  0.46577     C
C       0.9029  0.46577   0.1456     C
H       0.9036    0.025   0.0353     H
H       0.9036   0.0353    0.475     H
H       0.9036   0.4647    0.025     H
H       0.9036    0.475   0.4647     H
H       0.9044    0.089   0.8576     H
H       0.9044    0.411   0.6424     H
H       0.9044   0.6424    0.089     H
H       0.9044   0.8576    0.411     H
H       0.9049    0.035   0.9005     H
H       0.9049    0.465   0.5995     H
H       0.9049   0.5995    0.035     H
H       0.9049   0.9005    0.465     H
C      0.90685  0.03022    0.534     C
C      0.90685  0.46978    0.966     C
C      0.90685    0.534  0.46978     C
C      0.90685    0.966  0.03022     C
H        0.911   0.0956   0.3576     H
H        0.911   0.1424   0.0956     H
H        0.911   0.3576   0.4044     H
H        0.911   0.4044   0.1424     H
H       0.9143   0.1374   0.9375     H
H       0.9143   0.3626   0.5625     H
H       0.9143   0.5625   0.1374     H
H       0.9143   0.9375   0.3626     H
H       0.9158   0.0156   0.9667     H
H       0.9158   0.4844   0.5333     H
H       0.9158   0.5333   0.0156     H
H       0.9158   0.9667   0.4844     H
C      0.91866  0.13203  0.99793     C
C      0.91866  0.36797  0.50207     C
C      0.91866  0.50207  0.13203     C
C      0.91866  0.99793  0.36797     C
C      0.92123  0.07102  0.36693     C
C      0.92123  0.13307  0.07102     C
C      0.92123  0.36693  0.42898     C
C      0.92123  0.42898  0.13307     C
C      0.92898  0.07877  0.86693     C
C      0.92898  0.42123  0.63307     C
C      0.92898  0.63307  0.07877     C
C      0.92898  0.86693  0.42123     C
C      0.92928   0.0465  0.89244     C
C      0.92928   0.4535  0.60756     C
C      0.92928  0.60756   0.0465     C
C      0.92928  0.89244   0.4535     C
C      0.93606  0.50397   0.5335     C
C      0.93606   0.5335  0.99603     C
C      0.93606   0.9665  0.50397     C
C      0.93606  0.99603   0.9665     C
C      0.93642  0.50306  0.96552     C
C      0.93642  0.53448  0.50306     C
C      0.93642  0.96552  0.99694     C
C      0.93642  0.99694  0.53448     C
H        0.937   0.1784   0.6438     H
H        0.937   0.3216   0.8562     H
H        0.937   0.6438   0.3216     H
H        0.937   0.8562   0.1784     H
H       0.9375   0.1374   0.5857     H
H       0.9375   0.3626   0.9143     H
H       0.9375   0.5857   0.3626     H
H       0.9375   0.9143   0.1374     H
H       0.9429   0.1438   0.8196     H
H       0.9429   0.3562   0.6804     H
H       0.9429   0.6804   0.1438     H
H       0.9429   0.8196   0.3562     H
C       0.9534  0.10536  0.99927     C
C       0.9534  0.39464  0.50073     C
C       0.9534  0.50073  0.10536     C
C       0.9534  0.99927  0.39464     C
C       0.9535  0.07072  0.39244     C
C       0.9535  0.10756  0.07072     C
C       0.9535  0.39244  0.42928     C
C       0.9535  0.42928  0.10756     C
Cu     0.96026     0.25     0.75    Cu
Cu     0.96026     0.75     0.25    Cu
C      0.96138  0.17033  0.63214     C
C      0.96138  0.32967  0.86786     C
C      0.96138  0.63214  0.32967     C
C      0.96138  0.86786  0.17033     C
C      0.96181  0.14519  0.59763     C
C      0.96181  0.35481  0.90237     C
C      0.96181  0.59763  0.35481     C
C      0.96181  0.90237  0.14519     C
O      0.96425  0.21802   0.6999     O
O      0.96425  0.28198   0.8001     O
O      0.96425   0.6999  0.28198     O
O      0.96425   0.8001  0.21802     O
H       0.9647   0.0964    0.975     H
H       0.9647   0.4036    0.525     H
H       0.9647    0.525   0.0964     H
H       0.9647    0.975   0.4036     H
H        0.965   0.0951   0.4005     H
H        0.965   0.0995   0.0951     H
H        0.965   0.4005   0.4049     H
H        0.965   0.4049   0.0995     H
C      0.96552  0.50306  0.56358     C
C      0.96552  0.56358  0.99694     C
C      0.96552  0.93642  0.50306     C
C      0.96552  0.99694  0.93642     C
C      0.96577   0.0971   0.8544     C
C      0.96577   0.4029   0.6456     C
C      0.96577   0.6456   0.0971     C
C      0.96577   0.8544   0.4029     C
C        0.966  0.03022  0.90685     C
C        0.966  0.46978  0.59315     C
C        0.966  0.59315  0.03022     C
C        0.966  0.90685  0.46978     C
C       0.9665  0.50397  0.93606     C
C       0.9665  0.56394  0.50397     C
C       0.9665  0.93606  0.99603     C
C       0.9665  0.99603  0.56394     C
O      0.96666  0.19957  0.78179     O
O      0.96666  0.30043  0.71821     O
O      0.96666  0.71821  0.19957     O
O      0.96666  0.78179  0.30043     O
H       0.9667   0.0156   0.5842     H
H       0.9667   0.4844   0.9158     H
H       0.9667   0.5842   0.4844     H
H       0.9667   0.9158   0.0156     H
C      0.96715  0.13237   0.8284     C
C      0.96715  0.36763   0.6716     C
C      0.96715   0.6716  0.13237     C
C      0.96715   0.8284  0.36763     C
C      0.96978    0.034  0.40685     C
C      0.96978  0.09315    0.034     C
C      0.96978  0.40685    0.466     C
C      0.96978    0.466  0.09315     C
H        0.975   0.0964   0.5353     H
H        0.975   0.4036   0.9647     H
H        0.975   0.5353   0.4036     H
H        0.975   0.9647   0.0964     H
H       0.9844   0.0333   0.0842     H
H       0.9844   0.0842   0.4667     H
H       0.9844   0.4158   0.0333     H
H       0.9844   0.4667   0.4158     H
C      0.99603   0.5335  0.56394     C
C      0.99603  0.56394   0.9665     C
C      0.99603  0.93606   0.5335     C
C      0.99603   0.9665  0.93606     C
C      0.99694  0.53448  0.93642     C
C      0.99694  0.56358  0.53448     C
C      0.99694  0.93642  0.96552     C
C      0.99694  0.96552  0.56358     C
C      0.99793  0.13203  0.58134     C
C      0.99793  0.36797  0.91866     C
C      0.99793  0.58134  0.36797     C
C      0.99793  0.91866  0.13203     C
C      0.99803  0.21057  0.68632     C
C      0.99803  0.28943  0.81368     C
C      0.99803  0.68632  0.28943     C
C      0.99803  0.81368  0.21057     C
C      0.99906  0.18294  0.64854     C
C      0.99906  0.31706  0.85146     C
C      0.99906  0.64854  0.31706     C
C      0.99906  0.85146  0.18294     C
C      0.99927  0.10536   0.5466     C
C      0.99927  0.39464   0.9534     C
C      0.99927   0.5466  0.39464     C
C      0.99927   0.9534  0.10536     C
