data_I
_chemical_name_common  '/home/zhangsd/repos/MofS-CGCNN/ML/data/SSD/clean_cifs/BIPSUQ_clean'
_cell_length_a 33.78310
_cell_length_b 33.78310
_cell_length_c 43.45600
_cell_angle_alpha 90.00000
_cell_angle_beta  90.00000
_cell_angle_gamma 120.00000
_space_group_name_H-M_alt      'P 1'


loop_
_space_group_symop_operation_xyz
  'x, y, z' 

loop_
_atom_site_label
_atom_site_fract_x
_atom_site_fract_y
_atom_site_fract_z
_atom_site_type_symbol
C       0.0023   0.4046  0.08121     C
C       0.0023   0.4046  0.41879     C
C       0.0023   0.5977  0.08121     C
C       0.0023   0.5977  0.41879     C
H       0.0076   0.3039   0.6241     H
H       0.0076   0.3039   0.8759     H
H       0.0076   0.7037   0.6241     H
H       0.0076   0.7037   0.8759     H
C      0.01221  0.37911  0.10166     C
C      0.01221  0.37911  0.39834     C
C      0.01221   0.6331  0.10166     C
C      0.01221   0.6331  0.39834     C
O      0.01747  0.46784   0.5384     O
O      0.01747  0.46784   0.9616     O
O      0.01747  0.54963   0.5384     O
O      0.01747  0.54963   0.9616     O
C       0.0224     0.37  0.62547     C
C       0.0224     0.37  0.87453     C
C       0.0224   0.6524  0.62547     C
C       0.0224   0.6524  0.87453     C
C       0.0234   0.4589   0.0369     C
C       0.0234   0.4589   0.4631     C
C       0.0234   0.5645   0.0369     C
C       0.0234   0.5645   0.4631     C
H       0.0263   0.4291   0.5819     H
H       0.0263   0.4291   0.9181     H
H       0.0263   0.5972   0.5819     H
H       0.0263   0.5972   0.9181     H
C       0.0264   0.3323  0.63351     C
C       0.0264   0.3323  0.86649     C
C       0.0264   0.6941  0.63351     C
C       0.0264   0.6941  0.86649     C
C      0.03481  0.43271  0.05976     C
C      0.03481  0.43271  0.44024     C
C      0.03481   0.6021  0.05976     C
C      0.03481   0.6021  0.44024     C
Cu     0.04248  0.52124  0.51088    Cu
Cu     0.04248  0.52124  0.98912    Cu
H       0.0452   0.3827   0.7212     H
H       0.0452   0.3827   0.7788     H
H       0.0452   0.6625   0.7212     H
H       0.0452   0.6625   0.7788     H
H       0.0476   0.4375   0.6339     H
H       0.0476   0.4375   0.8661     H
H       0.0476   0.6101   0.6339     H
H       0.0476   0.6101   0.8661     H
C       0.0502    0.412   0.6394     C
C       0.0502    0.412   0.8606     C
C       0.0502   0.6382   0.6394     C
C       0.0502   0.6382   0.8606     C
C       0.0546   0.3817  0.10067     C
C       0.0546   0.3817  0.39933     C
C       0.0546   0.6729  0.10067     C
C       0.0546   0.6729  0.39933     C
O       0.0557   0.4865  0.02048     O
O       0.0557   0.4865  0.47952     O
O       0.0557   0.5692  0.02048     O
O       0.0557   0.5692  0.47952     O
C      0.05831   0.3367  0.65543     C
C      0.05831   0.3367  0.84457     C
C      0.05831  0.72161  0.65543     C
C      0.05831  0.72161  0.84457     C
H        0.061   0.3112   0.6609     H
H        0.061   0.3112   0.8391     H
H        0.061   0.7498   0.6609     H
H        0.061   0.7498   0.8391     H
H       0.0613   0.3645   0.1145     H
H       0.0613   0.3645   0.3855     H
H       0.0613   0.6968   0.1145     H
H       0.0613   0.6968   0.3855     H
C       0.0672   0.3828  0.73437     C
C       0.0672   0.3828  0.76563     C
C       0.0672   0.6844  0.73437     C
C       0.0672   0.6844  0.76563     C
C      0.07713  0.43533  0.05877     C
C      0.07713  0.43533  0.44123     C
C      0.07713   0.6418  0.05877     C
C      0.07713   0.6418  0.44123     C
C       0.0822   0.4164  0.66129     C
C       0.0822   0.4164  0.83871     C
C       0.0822   0.6658  0.66129     C
C       0.0822   0.6658  0.83871     C
C       0.0862   0.3788  0.66932     C
C       0.0862   0.3788  0.83068     C
C       0.0862   0.7074  0.66932     C
C       0.0862   0.7074  0.83068     C
C        0.087   0.4098  0.07922     C
C        0.087   0.4098  0.42078     C
C        0.087   0.6772  0.07922     C
C        0.087   0.6772  0.42078     C
H       0.0991   0.4543   0.0443     H
H       0.0991   0.4543   0.4557     H
H       0.0991   0.6448   0.0443     H
H       0.0991   0.6448   0.4557     H
H       0.1011   0.4449   0.6707     H
H       0.1011   0.4449   0.8293     H
H       0.1011   0.6562   0.6707     H
H       0.1011   0.6562   0.8293     H
C       0.1087    0.383   0.7259     C
C       0.1087    0.383   0.7741     C
C       0.1087   0.7257   0.7259     C
C       0.1087   0.7257   0.7741     C
C       0.1206   0.3826   0.6951     C
C       0.1206   0.3826   0.8049     C
C       0.1206    0.738   0.6951     C
C       0.1206    0.738   0.8049     C
C       0.1284   0.4109   0.0782     C
C       0.1284   0.4109   0.4218     C
C       0.1284   0.7175   0.0782     C
C       0.1284   0.7175   0.4218     C
N       0.1345   0.3853     0.75     N
N       0.1345   0.7492     0.75     N
O       0.1372    0.387  0.09758     O
O       0.1372    0.387  0.40242     O
O       0.1372   0.7502  0.09758     O
O       0.1372   0.7502  0.40242     O
H       0.1552    0.383    0.635     H
H       0.1552    0.383    0.865     H
H       0.1552   0.7722    0.635     H
H       0.1552   0.7722    0.865     H
O       0.1592   0.4365  0.05961     O
O       0.1592   0.4365  0.44039     O
O       0.1592   0.7227  0.05961     O
O       0.1592   0.7227  0.44039     O
C       0.1594    0.384    0.685     C
C       0.1594    0.384    0.815     C
C       0.1594   0.7754    0.685     C
C       0.1594   0.7754    0.815     C
H      0.16355   0.3271    0.022     H
H      0.16355   0.3271    0.478     H
H      0.16355  0.83645    0.022     H
H      0.16355  0.83645    0.478     H
O       0.1705    0.341    0.064     O
O       0.1705    0.341    0.436     O
O       0.1705   0.8295    0.064     O
O       0.1705   0.8295    0.436     O
C       0.1719   0.3833  0.65244     C
C       0.1719   0.3833  0.84756     C
C       0.1719   0.7886  0.65244     C
C       0.1719   0.7886  0.84756     C
C      0.17545   0.3509   0.0366     C
C      0.17545   0.3509   0.4634     C
C      0.17545  0.82455   0.0366     C
C      0.17545  0.82455   0.4634     C
Cu     0.19105  0.38211  0.40012    Cu
Cu     0.19105  0.80894  0.09988    Cu
Cu     0.19106  0.38211  0.09988    Cu
Cu     0.19106  0.80895  0.40012    Cu
Cu     0.19193  0.38385     0.75    Cu
Cu     0.19193  0.80807     0.75    Cu
N       0.1923   0.3846    0.704     N
N       0.1923   0.3846    0.796     N
N       0.1923   0.8077    0.704     N
N       0.1923   0.8077    0.796     N
O      0.19525   0.3905   0.0273     O
O      0.19525   0.3905   0.4727     O
O      0.19525  0.80475   0.0273     O
O      0.19525  0.80475   0.4727     O
C       0.2114   0.3833  0.65244     C
C       0.2114   0.3833  0.84756     C
C       0.2114   0.8281  0.65244     C
C       0.2114   0.8281  0.84756     C
O       0.2187   0.4374   0.1264     O
O       0.2187   0.4374   0.3736     O
O       0.2187   0.7813   0.1264     O
O       0.2187   0.7813   0.3736     O
Cu     0.22155   0.4431  0.05586    Cu
Cu     0.22155   0.4431  0.44414    Cu
Cu     0.22155  0.77845  0.05586    Cu
Cu     0.22155  0.77845  0.44414    Cu
C       0.2246    0.384    0.685     C
C       0.2246    0.384    0.815     C
C       0.2246   0.8406    0.685     C
C       0.2246   0.8406    0.815     C
H       0.2278    0.383    0.635     H
H       0.2278    0.383    0.865     H
H       0.2278   0.8448    0.635     H
H       0.2278   0.8448    0.865     H
C      0.23945   0.4789   0.1184     C
C      0.23945   0.4789   0.3816     C
C      0.23945  0.76055   0.1184     C
C      0.23945  0.76055   0.3816     C
O      0.24395   0.4879   0.0911     O
O      0.24395   0.4879   0.4089     O
O      0.24395  0.75605   0.0911     O
O      0.24395  0.75605   0.4089     O
O       0.2498    0.387  0.09758     O
O       0.2498    0.387  0.40242     O
O       0.2498   0.8628  0.09758     O
O       0.2498   0.8628  0.40242     O
H       0.2502   0.3112   0.6609     H
H       0.2502   0.3112   0.8391     H
H       0.2502    0.939   0.6609     H
H       0.2502    0.939   0.8391     H
N       0.2508   0.3853     0.75     N
N       0.2508   0.8655     0.75     N
H      0.25115   0.5023   0.1333     H
H      0.25115   0.5023   0.3667     H
H      0.25115  0.74885   0.1333     H
H      0.25115  0.74885   0.3667     H
C        0.262   0.3826   0.6951     C
C        0.262   0.3826   0.8049     C
C        0.262   0.8794   0.6951     C
C        0.262   0.8794   0.8049     C
C       0.2743    0.383   0.7259     C
C       0.2743    0.383   0.7741     C
C       0.2743   0.8913   0.7259     C
C       0.2743   0.8913   0.7741     C
O       0.2773   0.4365  0.05961     O
O       0.2773   0.4365  0.44039     O
O       0.2773   0.8408  0.05961     O
O       0.2773   0.8408  0.44039     O
C      0.27839   0.3367  0.65543     C
C      0.27839   0.3367  0.84457     C
C      0.27839  0.94169  0.65543     C
C      0.27839  0.94169  0.84457     C
C       0.2825   0.4109   0.0782     C
C       0.2825   0.4109   0.4218     C
C       0.2825   0.8716   0.0782     C
C       0.2825   0.8716   0.4218     C
C       0.2926   0.3788  0.66932     C
C       0.2926   0.3788  0.83068     C
C       0.2926   0.9138  0.66932     C
C       0.2926   0.9138  0.83068     C
H       0.2963   0.3039   0.6241     H
H       0.2963   0.3039   0.8759     H
H       0.2963   0.9924   0.6241     H
H       0.2963   0.9924   0.8759     H
H       0.3032   0.3645   0.1145     H
H       0.3032   0.3645   0.3855     H
H       0.3032   0.9387   0.1145     H
H       0.3032   0.9387   0.3855     H
H       0.3039   0.0076   0.1241     H
H       0.3039   0.0076   0.3759     H
H       0.3039   0.2963   0.1241     H
H       0.3039   0.2963   0.3759     H
C       0.3059   0.3323  0.63351     C
C       0.3059   0.3323  0.86649     C
C       0.3059   0.9736  0.63351     C
C       0.3059   0.9736  0.86649     C
H       0.3112    0.061   0.1609     H
H       0.3112    0.061   0.3391     H
H       0.3112   0.2502   0.1609     H
H       0.3112   0.2502   0.3391     H
C       0.3156   0.3828  0.73437     C
C       0.3156   0.3828  0.76563     C
C       0.3156   0.9328  0.73437     C
C       0.3156   0.9328  0.76563     C
C       0.3228   0.4098  0.07922     C
C       0.3228   0.4098  0.42078     C
C       0.3228    0.913  0.07922     C
C       0.3228    0.913  0.42078     C
H       0.3271  0.16355    0.522     H
H       0.3271  0.16355    0.978     H
C       0.3271   0.3817  0.10067     C
C       0.3271   0.3817  0.39933     C
C       0.3271   0.9454  0.10067     C
C       0.3271   0.9454  0.39933     C
C       0.3323   0.0264  0.13351     C
C       0.3323   0.0264  0.36649     C
C       0.3323   0.3059  0.13351     C
C       0.3323   0.3059  0.36649     C
C       0.3342   0.4164  0.66129     C
C       0.3342   0.4164  0.83871     C
C       0.3342   0.9178  0.66129     C
C       0.3342   0.9178  0.83871     C
C       0.3367  0.05831  0.15543     C
C       0.3367  0.05831  0.34457     C
C       0.3367  0.27839  0.15543     C
C       0.3367  0.27839  0.34457     C
H       0.3375   0.3827   0.7212     H
H       0.3375   0.3827   0.7788     H
H       0.3375   0.9548   0.7212     H
H       0.3375   0.9548   0.7788     H
O        0.341   0.1705    0.564     O
O        0.341   0.1705    0.936     O
H       0.3438   0.4449   0.6707     H
H       0.3438   0.4449   0.8293     H
H       0.3438   0.8989   0.6707     H
H       0.3438   0.8989   0.8293     H
C       0.3476     0.37  0.62547     C
C       0.3476     0.37  0.87453     C
C       0.3476   0.9776  0.62547     C
C       0.3476   0.9776  0.87453     C
C       0.3509  0.17545   0.5366     C
C       0.3509  0.17545   0.9634     C
H       0.3552   0.4543   0.0443     H
H       0.3552   0.4543   0.4557     H
H       0.3552   0.9009   0.0443     H
H       0.3552   0.9009   0.4557     H
C       0.3582  0.43533  0.05877     C
C       0.3582  0.43533  0.44123     C
C       0.3582  0.92287  0.05877     C
C       0.3582  0.92287  0.44123     C
C       0.3618    0.412   0.6394     C
C       0.3618    0.412   0.8606     C
C       0.3618   0.9498   0.6394     C
C       0.3618   0.9498   0.8606     C
H       0.3645   0.0613   0.6145     H
H       0.3645   0.0613   0.8855     H
H       0.3645   0.3032   0.6145     H
H       0.3645   0.3032   0.8855     H
C       0.3669  0.37911  0.10166     C
C       0.3669  0.37911  0.39834     C
C       0.3669  0.98779  0.10166     C
C       0.3669  0.98779  0.39834     C
C         0.37   0.0224  0.12547     C
C         0.37   0.0224  0.37453     C
C         0.37   0.3476  0.12547     C
C         0.37   0.3476  0.37453     C
C       0.3788   0.0862  0.16932     C
C       0.3788   0.0862  0.33068     C
C       0.3788   0.2926  0.16932     C
C       0.3788   0.2926  0.33068     C
C      0.37911  0.01221  0.60166     C
C      0.37911  0.01221  0.89834     C
C      0.37911   0.3669  0.60166     C
C      0.37911   0.3669  0.89834     C
C       0.3817   0.0546  0.60067     C
C       0.3817   0.0546  0.89933     C
C       0.3817   0.3271  0.60067     C
C       0.3817   0.3271  0.89933     C
Cu     0.38211  0.19105  0.59988    Cu
Cu     0.38211  0.19105  0.90012    Cu
C       0.3826   0.1206   0.1951     C
C       0.3826   0.1206   0.3049     C
C       0.3826    0.262   0.1951     C
C       0.3826    0.262   0.3049     C
H       0.3827   0.0452   0.2212     H
H       0.3827   0.0452   0.2788     H
H       0.3827   0.3375   0.2212     H
H       0.3827   0.3375   0.2788     H
C       0.3828   0.0672  0.23437     C
C       0.3828   0.0672  0.26563     C
C       0.3828   0.3156  0.23437     C
C       0.3828   0.3156  0.26563     C
C        0.383   0.1087   0.2259     C
C        0.383   0.1087   0.2741     C
H        0.383   0.1552    0.135     H
H        0.383   0.1552    0.365     H
H        0.383   0.2278    0.135     H
H        0.383   0.2278    0.365     H
C        0.383   0.2743   0.2259     C
C        0.383   0.2743   0.2741     C
C       0.3833   0.1719  0.15244     C
C       0.3833   0.1719  0.34756     C
C       0.3833   0.2114  0.15244     C
C       0.3833   0.2114  0.34756     C
Cu     0.38385  0.19193     0.25    Cu
C        0.384   0.1594    0.185     C
C        0.384   0.1594    0.315     C
C        0.384   0.2246    0.185     C
C        0.384   0.2246    0.315     C
N       0.3846   0.1923    0.204     N
N       0.3846   0.1923    0.296     N
N       0.3853   0.1345     0.25     N
N       0.3853   0.2508     0.25     N
O        0.387   0.1372  0.59758     O
O        0.387   0.1372  0.90242     O
O        0.387   0.2498  0.59758     O
O        0.387   0.2498  0.90242     O
H       0.3899   0.4375   0.6339     H
H       0.3899   0.4375   0.8661     H
H       0.3899   0.9524   0.6339     H
H       0.3899   0.9524   0.8661     H
O       0.3905  0.19525   0.5273     O
O       0.3905  0.19525   0.9727     O
C       0.3979  0.43271  0.05976     C
C       0.3979  0.43271  0.44024     C
C       0.3979  0.96519  0.05976     C
C       0.3979  0.96519  0.44024     C
C       0.4023   0.4046  0.08121     C
C       0.4023   0.4046  0.41879     C
C       0.4023   0.9977  0.08121     C
C       0.4023   0.9977  0.41879     C
H       0.4028   0.4291   0.5819     H
H       0.4028   0.4291   0.9181     H
H       0.4028   0.9737   0.5819     H
H       0.4028   0.9737   0.9181     H
C       0.4046   0.0023  0.58121     C
C       0.4046   0.0023  0.91879     C
C       0.4046   0.4023  0.58121     C
C       0.4046   0.4023  0.91879     C
C       0.4098    0.087  0.57922     C
C       0.4098    0.087  0.92078     C
C       0.4098   0.3228  0.57922     C
C       0.4098   0.3228  0.92078     C
C       0.4109   0.1284   0.5782     C
C       0.4109   0.1284   0.9218     C
C       0.4109   0.2825   0.5782     C
C       0.4109   0.2825   0.9218     C
C        0.412   0.0502   0.1394     C
C        0.412   0.0502   0.3606     C
C        0.412   0.3618   0.1394     C
C        0.412   0.3618   0.3606     C
C       0.4164   0.0822  0.16129     C
C       0.4164   0.0822  0.33871     C
C       0.4164   0.3342  0.16129     C
C       0.4164   0.3342  0.33871     C
H       0.4291   0.0263   0.0819     H
H       0.4291   0.0263   0.4181     H
H       0.4291   0.4028   0.0819     H
H       0.4291   0.4028   0.4181     H
O       0.4308   0.4865  0.02048     O
O       0.4308   0.4865  0.47952     O
O       0.4308   0.9443  0.02048     O
O       0.4308   0.9443  0.47952     O
C      0.43271  0.03481  0.55976     C
C      0.43271  0.03481  0.94024     C
C      0.43271   0.3979  0.55976     C
C      0.43271   0.3979  0.94024     C
C      0.43533  0.07713  0.55877     C
C      0.43533  0.07713  0.94123     C
C      0.43533   0.3582  0.55877     C
C      0.43533   0.3582  0.94123     C
C       0.4355   0.4589   0.0369     C
C       0.4355   0.4589   0.4631     C
C       0.4355   0.9766   0.0369     C
C       0.4355   0.9766   0.4631     C
O       0.4365   0.1592  0.55961     O
O       0.4365   0.1592  0.94039     O
O       0.4365   0.2773  0.55961     O
O       0.4365   0.2773  0.94039     O
O       0.4374   0.2187   0.6264     O
O       0.4374   0.2187   0.8736     O
H       0.4375   0.0476   0.1339     H
H       0.4375   0.0476   0.3661     H
H       0.4375   0.3899   0.1339     H
H       0.4375   0.3899   0.3661     H
Cu      0.4431  0.22155  0.55586    Cu
Cu      0.4431  0.22155  0.94414    Cu
H       0.4449   0.1011   0.1707     H
H       0.4449   0.1011   0.3293     H
H       0.4449   0.3438   0.1707     H
H       0.4449   0.3438   0.3293     H
O      0.45037  0.46784   0.5384     O
O      0.45037  0.46784   0.9616     O
O      0.45037  0.98253   0.5384     O
O      0.45037  0.98253   0.9616     O
H       0.4543   0.0991   0.5443     H
H       0.4543   0.0991   0.9557     H
H       0.4543   0.3552   0.5443     H
H       0.4543   0.3552   0.9557     H
C       0.4589   0.0234   0.5369     C
C       0.4589   0.0234   0.9631     C
C       0.4589   0.4355   0.5369     C
C       0.4589   0.4355   0.9631     C
O      0.46784  0.01747   0.0384     O
O      0.46784  0.01747   0.4616     O
O      0.46784  0.45037   0.0384     O
O      0.46784  0.45037   0.4616     O
Cu     0.47876  0.52124  0.51088    Cu
Cu     0.47876  0.52124  0.98912    Cu
Cu     0.47876  0.95752  0.51088    Cu
Cu     0.47876  0.95752  0.98912    Cu
C       0.4789  0.23945   0.6184     C
C       0.4789  0.23945   0.8816     C
O       0.4865   0.0557  0.52048     O
O       0.4865   0.0557  0.97952     O
O       0.4865   0.4308  0.52048     O
O       0.4865   0.4308  0.97952     O
O       0.4879  0.24395   0.5911     O
O       0.4879  0.24395   0.9089     O
H       0.4977  0.74885   0.1333     H
H       0.4977  0.74885   0.3667     H
H       0.5023  0.25115   0.6333     H
H       0.5023  0.25115   0.8667     H
O       0.5121  0.75605   0.0911     O
O       0.5121  0.75605   0.4089     O
O       0.5135   0.5692  0.02048     O
O       0.5135   0.5692  0.47952     O
O       0.5135   0.9443  0.02048     O
O       0.5135   0.9443  0.47952     O
C       0.5211  0.76055   0.1184     C
C       0.5211  0.76055   0.3816     C
Cu     0.52124  0.04248  0.01088    Cu
Cu     0.52124  0.04248  0.48912    Cu
Cu     0.52124  0.47876  0.01088    Cu
Cu     0.52124  0.47876  0.48912    Cu
O      0.53216  0.54963   0.5384     O
O      0.53216  0.54963   0.9616     O
O      0.53216  0.98253   0.5384     O
O      0.53216  0.98253   0.9616     O
C       0.5411   0.5645   0.0369     C
C       0.5411   0.5645   0.4631     C
C       0.5411   0.9766   0.0369     C
C       0.5411   0.9766   0.4631     C
H       0.5457   0.6448   0.0443     H
H       0.5457   0.6448   0.4557     H
H       0.5457   0.9009   0.0443     H
H       0.5457   0.9009   0.4557     H
O      0.54963  0.01747   0.0384     O
O      0.54963  0.01747   0.4616     O
O      0.54963  0.53216   0.0384     O
O      0.54963  0.53216   0.4616     O
H       0.5551   0.6562   0.6707     H
H       0.5551   0.6562   0.8293     H
H       0.5551   0.8989   0.6707     H
H       0.5551   0.8989   0.8293     H
Cu      0.5569  0.77845  0.05586    Cu
Cu      0.5569  0.77845  0.44414    Cu
H       0.5625   0.6101   0.6339     H
H       0.5625   0.6101   0.8661     H
H       0.5625   0.9524   0.6339     H
H       0.5625   0.9524   0.8661     H
O       0.5626   0.7813   0.1264     O
O       0.5626   0.7813   0.3736     O
O       0.5635   0.7227  0.05961     O
O       0.5635   0.7227  0.44039     O
O       0.5635   0.8408  0.05961     O
O       0.5635   0.8408  0.44039     O
C       0.5645   0.0234   0.5369     C
C       0.5645   0.0234   0.9631     C
C       0.5645   0.5411   0.5369     C
C       0.5645   0.5411   0.9631     C
C      0.56467   0.6418  0.05877     C
C      0.56467   0.6418  0.44123     C
C      0.56467  0.92287  0.05877     C
C      0.56467  0.92287  0.44123     C
C      0.56729   0.6021  0.05976     C
C      0.56729   0.6021  0.44024     C
C      0.56729  0.96519  0.05976     C
C      0.56729  0.96519  0.44024     C
O       0.5692   0.0557  0.52048     O
O       0.5692   0.0557  0.97952     O
O       0.5692   0.5135  0.52048     O
O       0.5692   0.5135  0.97952     O
H       0.5709   0.5972   0.5819     H
H       0.5709   0.5972   0.9181     H
H       0.5709   0.9737   0.5819     H
H       0.5709   0.9737   0.9181     H
C       0.5836   0.6658  0.66129     C
C       0.5836   0.6658  0.83871     C
C       0.5836   0.9178  0.66129     C
C       0.5836   0.9178  0.83871     C
C        0.588   0.6382   0.6394     C
C        0.588   0.6382   0.8606     C
C        0.588   0.9498   0.6394     C
C        0.588   0.9498   0.8606     C
C       0.5891   0.7175   0.0782     C
C       0.5891   0.7175   0.4218     C
C       0.5891   0.8716   0.0782     C
C       0.5891   0.8716   0.4218     C
C       0.5902   0.6772  0.07922     C
C       0.5902   0.6772  0.42078     C
C       0.5902    0.913  0.07922     C
C       0.5902    0.913  0.42078     C
C       0.5954   0.5977  0.08121     C
C       0.5954   0.5977  0.41879     C
C       0.5954   0.9977  0.08121     C
C       0.5954   0.9977  0.41879     C
H       0.5972   0.0263   0.0819     H
H       0.5972   0.0263   0.4181     H
H       0.5972   0.5709   0.0819     H
H       0.5972   0.5709   0.4181     H
C       0.5977   0.0023  0.58121     C
C       0.5977   0.0023  0.91879     C
C       0.5977   0.5954  0.58121     C
C       0.5977   0.5954  0.91879     C
C       0.6021  0.03481  0.55976     C
C       0.6021  0.03481  0.94024     C
C       0.6021  0.56729  0.55976     C
C       0.6021  0.56729  0.94024     C
O       0.6095  0.80475   0.0273     O
O       0.6095  0.80475   0.4727     O
H       0.6101   0.0476   0.1339     H
H       0.6101   0.0476   0.3661     H
H       0.6101   0.5625   0.1339     H
H       0.6101   0.5625   0.3661     H
O        0.613   0.7502  0.09758     O
O        0.613   0.7502  0.40242     O
O        0.613   0.8628  0.09758     O
O        0.613   0.8628  0.40242     O
N       0.6147   0.7492     0.75     N
N       0.6147   0.8655     0.75     N
N       0.6154   0.8077    0.704     N
N       0.6154   0.8077    0.796     N
C        0.616   0.7754    0.685     C
C        0.616   0.7754    0.815     C
C        0.616   0.8406    0.685     C
C        0.616   0.8406    0.815     C
Cu     0.61615  0.80807     0.75    Cu
C       0.6167   0.7886  0.65244     C
C       0.6167   0.7886  0.84756     C
C       0.6167   0.8281  0.65244     C
C       0.6167   0.8281  0.84756     C
C        0.617   0.7257   0.7259     C
C        0.617   0.7257   0.7741     C
H        0.617   0.7722    0.635     H
H        0.617   0.7722    0.865     H
H        0.617   0.8448    0.635     H
H        0.617   0.8448    0.865     H
C        0.617   0.8913   0.7259     C
C        0.617   0.8913   0.7741     C
C       0.6172   0.6844  0.73437     C
C       0.6172   0.6844  0.76563     C
C       0.6172   0.9328  0.73437     C
C       0.6172   0.9328  0.76563     C
H       0.6173   0.6625   0.7212     H
H       0.6173   0.6625   0.7788     H
H       0.6173   0.9548   0.7212     H
H       0.6173   0.9548   0.7788     H
C       0.6174    0.738   0.6951     C
C       0.6174    0.738   0.8049     C
C       0.6174   0.8794   0.6951     C
C       0.6174   0.8794   0.8049     C
Cu     0.61789  0.80894  0.40012    Cu
Cu     0.61789  0.80895  0.09988    Cu
C       0.6183   0.6729  0.10067     C
C       0.6183   0.6729  0.39933     C
C       0.6183   0.9454  0.10067     C
C       0.6183   0.9454  0.39933     C
C      0.62089   0.6331  0.10166     C
C      0.62089   0.6331  0.39834     C
C      0.62089  0.98779  0.10166     C
C      0.62089  0.98779  0.39834     C
C       0.6212   0.7074  0.66932     C
C       0.6212   0.7074  0.83068     C
C       0.6212   0.9138  0.66932     C
C       0.6212   0.9138  0.83068     C
C         0.63   0.6524  0.62547     C
C         0.63   0.6524  0.87453     C
C         0.63   0.9776  0.62547     C
C         0.63   0.9776  0.87453     C
C       0.6331  0.01221  0.60166     C
C       0.6331  0.01221  0.89834     C
C       0.6331  0.62089  0.60166     C
C       0.6331  0.62089  0.89834     C
H       0.6355   0.6968   0.1145     H
H       0.6355   0.6968   0.3855     H
H       0.6355   0.9387   0.1145     H
H       0.6355   0.9387   0.3855     H
C       0.6382   0.0502   0.1394     C
C       0.6382   0.0502   0.3606     C
C       0.6382    0.588   0.1394     C
C       0.6382    0.588   0.3606     C
C       0.6418  0.07713  0.55877     C
C       0.6418  0.07713  0.94123     C
C       0.6418  0.56467  0.55877     C
C       0.6418  0.56467  0.94123     C
H       0.6448   0.0991   0.5443     H
H       0.6448   0.0991   0.9557     H
H       0.6448   0.5457   0.5443     H
H       0.6448   0.5457   0.9557     H
C       0.6491  0.82455   0.0366     C
C       0.6491  0.82455   0.4634     C
C       0.6524   0.0224  0.12547     C
C       0.6524   0.0224  0.37453     C
C       0.6524     0.63  0.12547     C
C       0.6524     0.63  0.37453     C
H       0.6562   0.1011   0.1707     H
H       0.6562   0.1011   0.3293     H
H       0.6562   0.5551   0.1707     H
H       0.6562   0.5551   0.3293     H
O        0.659   0.8295    0.064     O
O        0.659   0.8295    0.436     O
H       0.6625   0.0452   0.2212     H
H       0.6625   0.0452   0.2788     H
H       0.6625   0.6173   0.2212     H
H       0.6625   0.6173   0.2788     H
C       0.6633  0.72161  0.65543     C
C       0.6633  0.72161  0.84457     C
C       0.6633  0.94169  0.65543     C
C       0.6633  0.94169  0.84457     C
C       0.6658   0.0822  0.16129     C
C       0.6658   0.0822  0.33871     C
C       0.6658   0.5836  0.16129     C
C       0.6658   0.5836  0.33871     C
C       0.6677   0.6941  0.63351     C
C       0.6677   0.6941  0.86649     C
C       0.6677   0.9736  0.63351     C
C       0.6677   0.9736  0.86649     C
C       0.6729   0.0546  0.60067     C
C       0.6729   0.0546  0.89933     C
C       0.6729   0.6183  0.60067     C
C       0.6729   0.6183  0.89933     C
H       0.6729  0.83645    0.022     H
H       0.6729  0.83645    0.478     H
C       0.6772    0.087  0.57922     C
C       0.6772    0.087  0.92078     C
C       0.6772   0.5902  0.57922     C
C       0.6772   0.5902  0.92078     C
C       0.6844   0.0672  0.23437     C
C       0.6844   0.0672  0.26563     C
C       0.6844   0.6172  0.23437     C
C       0.6844   0.6172  0.26563     C
H       0.6888   0.7498   0.6609     H
H       0.6888   0.7498   0.8391     H
H       0.6888    0.939   0.6609     H
H       0.6888    0.939   0.8391     H
C       0.6941   0.0264  0.13351     C
C       0.6941   0.0264  0.36649     C
C       0.6941   0.6677  0.13351     C
C       0.6941   0.6677  0.36649     C
H       0.6961   0.7037   0.6241     H
H       0.6961   0.7037   0.8759     H
H       0.6961   0.9924   0.6241     H
H       0.6961   0.9924   0.8759     H
H       0.6968   0.0613   0.6145     H
H       0.6968   0.0613   0.8855     H
H       0.6968   0.6355   0.6145     H
H       0.6968   0.6355   0.8855     H
H       0.7037   0.0076   0.1241     H
H       0.7037   0.0076   0.3759     H
H       0.7037   0.6961   0.1241     H
H       0.7037   0.6961   0.3759     H
C       0.7074   0.0862  0.16932     C
C       0.7074   0.0862  0.33068     C
C       0.7074   0.6212  0.16932     C
C       0.7074   0.6212  0.33068     C
C       0.7175   0.1284   0.5782     C
C       0.7175   0.1284   0.9218     C
C       0.7175   0.5891   0.5782     C
C       0.7175   0.5891   0.9218     C
C      0.72161  0.05831  0.15543     C
C      0.72161  0.05831  0.34457     C
C      0.72161   0.6633  0.15543     C
C      0.72161   0.6633  0.34457     C
O       0.7227   0.1592  0.55961     O
O       0.7227   0.1592  0.94039     O
O       0.7227   0.5635  0.55961     O
O       0.7227   0.5635  0.94039     O
C       0.7257   0.1087   0.2259     C
C       0.7257   0.1087   0.2741     C
C       0.7257    0.617   0.2259     C
C       0.7257    0.617   0.2741     C
C        0.738   0.1206   0.1951     C
C        0.738   0.1206   0.3049     C
C        0.738   0.6174   0.1951     C
C        0.738   0.6174   0.3049     C
H      0.74885  0.25115   0.6333     H
H      0.74885  0.25115   0.8667     H
H      0.74885   0.4977   0.6333     H
H      0.74885   0.4977   0.8667     H
N       0.7492   0.1345     0.25     N
N       0.7492   0.6147     0.25     N
H       0.7498    0.061   0.1609     H
H       0.7498    0.061   0.3391     H
H       0.7498   0.6888   0.1609     H
H       0.7498   0.6888   0.3391     H
O       0.7502   0.1372  0.59758     O
O       0.7502   0.1372  0.90242     O
O       0.7502    0.613  0.59758     O
O       0.7502    0.613  0.90242     O
O      0.75605  0.24395   0.5911     O
O      0.75605  0.24395   0.9089     O
O      0.75605   0.5121   0.5911     O
O      0.75605   0.5121   0.9089     O
C      0.76055  0.23945   0.6184     C
C      0.76055  0.23945   0.8816     C
C      0.76055   0.5211   0.6184     C
C      0.76055   0.5211   0.8816     C
H       0.7722   0.1552    0.135     H
H       0.7722   0.1552    0.365     H
H       0.7722    0.617    0.135     H
H       0.7722    0.617    0.365     H
C       0.7754   0.1594    0.185     C
C       0.7754   0.1594    0.315     C
C       0.7754    0.616    0.185     C
C       0.7754    0.616    0.315     C
Cu     0.77845  0.22155  0.55586    Cu
Cu     0.77845  0.22155  0.94414    Cu
Cu     0.77845   0.5569  0.55586    Cu
Cu     0.77845   0.5569  0.94414    Cu
O       0.7813   0.2187   0.6264     O
O       0.7813   0.2187   0.8736     O
O       0.7813   0.5626   0.6264     O
O       0.7813   0.5626   0.8736     O
C       0.7886   0.1719  0.15244     C
C       0.7886   0.1719  0.34756     C
C       0.7886   0.6167  0.15244     C
C       0.7886   0.6167  0.34756     C
O      0.80475  0.19525   0.5273     O
O      0.80475  0.19525   0.9727     O
O      0.80475   0.6095   0.5273     O
O      0.80475   0.6095   0.9727     O
N       0.8077   0.1923    0.204     N
N       0.8077   0.1923    0.296     N
N       0.8077   0.6154    0.204     N
N       0.8077   0.6154    0.296     N
Cu     0.80808  0.19192     0.25    Cu
Cu     0.80808  0.61615     0.25    Cu
Cu     0.80895  0.19105  0.59988    Cu
Cu     0.80895  0.19105  0.90012    Cu
Cu     0.80895  0.61789  0.59988    Cu
Cu     0.80895  0.61789  0.90012    Cu
C      0.82455  0.17545   0.5366     C
C      0.82455  0.17545   0.9634     C
C      0.82455   0.6491   0.5366     C
C      0.82455   0.6491   0.9634     C
C       0.8281   0.2114  0.15244     C
C       0.8281   0.2114  0.34756     C
C       0.8281   0.6167  0.15244     C
C       0.8281   0.6167  0.34756     C
O       0.8295   0.1705    0.564     O
O       0.8295   0.1705    0.936     O
O       0.8295    0.659    0.564     O
O       0.8295    0.659    0.936     O
H      0.83645  0.16355    0.522     H
H      0.83645  0.16355    0.978     H
H      0.83645   0.6729    0.522     H
H      0.83645   0.6729    0.978     H
C       0.8406   0.2246    0.185     C
C       0.8406   0.2246    0.315     C
C       0.8406    0.616    0.185     C
C       0.8406    0.616    0.315     C
O       0.8408   0.2773  0.55961     O
O       0.8408   0.2773  0.94039     O
O       0.8408   0.5635  0.55961     O
O       0.8408   0.5635  0.94039     O
H       0.8448   0.2278    0.135     H
H       0.8448   0.2278    0.365     H
H       0.8448    0.617    0.135     H
H       0.8448    0.617    0.365     H
O       0.8628   0.2498  0.59758     O
O       0.8628   0.2498  0.90242     O
O       0.8628    0.613  0.59758     O
O       0.8628    0.613  0.90242     O
N       0.8655   0.2508     0.25     N
N       0.8655   0.6147     0.25     N
C       0.8716   0.2825   0.5782     C
C       0.8716   0.2825   0.9218     C
C       0.8716   0.5891   0.5782     C
C       0.8716   0.5891   0.9218     C
C       0.8794    0.262   0.1951     C
C       0.8794    0.262   0.3049     C
C       0.8794   0.6174   0.1951     C
C       0.8794   0.6174   0.3049     C
C       0.8913   0.2743   0.2259     C
C       0.8913   0.2743   0.2741     C
C       0.8913    0.617   0.2259     C
C       0.8913    0.617   0.2741     C
H       0.8989   0.3438   0.1707     H
H       0.8989   0.3438   0.3293     H
H       0.8989   0.5551   0.1707     H
H       0.8989   0.5551   0.3293     H
H       0.9009   0.3552   0.5443     H
H       0.9009   0.3552   0.9557     H
H       0.9009   0.5457   0.5443     H
H       0.9009   0.5457   0.9557     H
C        0.913   0.3228  0.57922     C
C        0.913   0.3228  0.92078     C
C        0.913   0.5902  0.57922     C
C        0.913   0.5902  0.92078     C
C       0.9138   0.2926  0.16932     C
C       0.9138   0.2926  0.33068     C
C       0.9138   0.6212  0.16932     C
C       0.9138   0.6212  0.33068     C
C       0.9178   0.3342  0.16129     C
C       0.9178   0.3342  0.33871     C
C       0.9178   0.5836  0.16129     C
C       0.9178   0.5836  0.33871     C
C      0.92287   0.3582  0.55877     C
C      0.92287   0.3582  0.94123     C
C      0.92287  0.56467  0.55877     C
C      0.92287  0.56467  0.94123     C
C       0.9328   0.3156  0.23437     C
C       0.9328   0.3156  0.26563     C
C       0.9328   0.6172  0.23437     C
C       0.9328   0.6172  0.26563     C
H       0.9387   0.3032   0.6145     H
H       0.9387   0.3032   0.8855     H
H       0.9387   0.6355   0.6145     H
H       0.9387   0.6355   0.8855     H
H        0.939   0.2502   0.1609     H
H        0.939   0.2502   0.3391     H
H        0.939   0.6888   0.1609     H
H        0.939   0.6888   0.3391     H
C      0.94169  0.27839  0.15543     C
C      0.94169  0.27839  0.34457     C
C      0.94169   0.6633  0.15543     C
C      0.94169   0.6633  0.34457     C
O       0.9443   0.4308  0.52048     O
O       0.9443   0.4308  0.97952     O
O       0.9443   0.5135  0.52048     O
O       0.9443   0.5135  0.97952     O
C       0.9454   0.3271  0.60067     C
C       0.9454   0.3271  0.89933     C
C       0.9454   0.6183  0.60067     C
C       0.9454   0.6183  0.89933     C
C       0.9498   0.3618   0.1394     C
C       0.9498   0.3618   0.3606     C
C       0.9498    0.588   0.1394     C
C       0.9498    0.588   0.3606     C
H       0.9524   0.3899   0.1339     H
H       0.9524   0.3899   0.3661     H
H       0.9524   0.5625   0.1339     H
H       0.9524   0.5625   0.3661     H
H       0.9548   0.3375   0.2212     H
H       0.9548   0.3375   0.2788     H
H       0.9548   0.6173   0.2212     H
H       0.9548   0.6173   0.2788     H
Cu     0.95752  0.47876  0.01088    Cu
Cu     0.95752  0.47876  0.48912    Cu
C      0.96519   0.3979  0.55976     C
C      0.96519   0.3979  0.94024     C
C      0.96519  0.56729  0.55976     C
C      0.96519  0.56729  0.94024     C
C       0.9736   0.3059  0.13351     C
C       0.9736   0.3059  0.36649     C
C       0.9736   0.6677  0.13351     C
C       0.9736   0.6677  0.36649     C
H       0.9737   0.4028   0.0819     H
H       0.9737   0.4028   0.4181     H
H       0.9737   0.5709   0.0819     H
H       0.9737   0.5709   0.4181     H
C       0.9766   0.4355   0.5369     C
C       0.9766   0.4355   0.9631     C
C       0.9766   0.5411   0.5369     C
C       0.9766   0.5411   0.9631     C
C       0.9776   0.3476  0.12547     C
C       0.9776   0.3476  0.37453     C
C       0.9776     0.63  0.12547     C
C       0.9776     0.63  0.37453     C
O      0.98253  0.45037   0.0384     O
O      0.98253  0.45037   0.4616     O
O      0.98253  0.53216   0.0384     O
O      0.98253  0.53216   0.4616     O
C      0.98779   0.3669  0.60166     C
C      0.98779   0.3669  0.89834     C
C      0.98779  0.62089  0.60166     C
C      0.98779  0.62089  0.89834     C
H       0.9924   0.2963   0.1241     H
H       0.9924   0.2963   0.3759     H
H       0.9924   0.6961   0.1241     H
H       0.9924   0.6961   0.3759     H
C       0.9977   0.4023  0.58121     C
C       0.9977   0.4023  0.91879     C
C       0.9977   0.5954  0.58121     C
C       0.9977   0.5954  0.91879     C
