data_I
_chemical_name_common  '/home/zhangsd/repos/MofS-CGCNN/ML/data/SSD/clean_cifs/BIRSIG_clean'
_cell_length_a 12.98800
_cell_length_b 13.72200
_cell_length_c 19.73000
_cell_angle_alpha 90.00000
_cell_angle_beta  90.00000
_cell_angle_gamma 90.00000
_space_group_name_H-M_alt      'P 1'


loop_
_space_group_symop_operation_xyz
  'x, y, z' 

loop_
_atom_site_label
_atom_site_fract_x
_atom_site_fract_y
_atom_site_fract_z
_atom_site_type_symbol
O       0.0328   0.2306  0.57166     O
O       0.0328   0.2694  0.07166     O
O       0.0328   0.7306  0.92834     O
O       0.0328   0.7694  0.42834     O
O       0.0848   0.0965  0.51819     O
O       0.0848   0.4035  0.01819     O
O       0.0848   0.5965  0.98181     O
O       0.0848   0.9035  0.48181     O
C       0.0992   0.1732   0.5492     C
C       0.0992   0.3268   0.0492     C
C       0.0992   0.6732   0.9508     C
C       0.0992   0.8268   0.4508     C
H       0.1803    0.201   0.1362     H
H       0.1803    0.299   0.6362     H
H       0.1803    0.701   0.3638     H
H       0.1803    0.799   0.8638     H
C       0.2098   0.2019   0.5618     C
C       0.2098   0.2981   0.0618     C
C       0.2098   0.7019   0.9382     C
C       0.2098   0.7981   0.4382     C
C       0.2331   0.2327   0.1133     C
C       0.2331   0.2673   0.6133     C
C       0.2331   0.7327   0.3867     C
C       0.2331   0.7673   0.8867     C
H       0.2757    0.111   0.4937     H
H       0.2757    0.389   0.9937     H
H       0.2757    0.611   0.0063     H
H       0.2757    0.889   0.5063     H
C       0.2906   0.1558   0.5277     C
C       0.2906   0.3442   0.0277     C
C       0.2906   0.6558   0.9723     C
C       0.2906   0.8442   0.4723     C
C        0.335   0.2144   0.1307     C
C        0.335   0.2856   0.6307     C
C        0.335   0.7144   0.3693     C
C        0.335   0.7856   0.8693     C
H       0.3502   0.1703   0.1651     H
H       0.3502   0.3297   0.6651     H
H       0.3502   0.6703   0.3349     H
H       0.3502   0.8297   0.8349     H
C       0.3899   0.1749   0.5431     C
C       0.3899   0.3251   0.0431     C
C       0.3899   0.6749   0.9569     C
C       0.3899   0.8251   0.4569     C
C       0.4136   0.2383   0.5969     C
C       0.4136   0.2617   0.0969     C
C       0.4136   0.7383   0.9031     C
C       0.4136   0.7617   0.4031     C
H       0.4553      0.0      0.0     H
H       0.4553      0.5      0.5     H
O       0.4719   0.1138  0.44562     O
O       0.4719   0.3862  0.94562     O
O       0.4719   0.6138  0.05438     O
O       0.4719   0.8862  0.55438     O
C       0.4769   0.1246   0.5084     C
C       0.4769   0.3754   0.0084     C
C       0.4769   0.6246   0.9916     C
C       0.4769   0.8754   0.4916     C
H       0.4817   0.2483   0.6096     H
H       0.4817   0.2517   0.1096     H
H       0.4817   0.7483   0.8904     H
H       0.4817   0.7517   0.3904     H
C       0.5269      0.0      0.0     C
C       0.5269      0.5      0.5     C
H        0.546   0.1449   0.9983     H
H        0.546   0.3551   0.4983     H
H        0.546   0.6449   0.5017     H
H        0.546   0.8551   0.0017     H
O       0.5508   0.0951  0.54491     O
O       0.5508   0.4049  0.04491     O
O       0.5508   0.5951  0.95509     O
O       0.5508   0.9049  0.45509     O
Ni     0.56086    0.024  0.38513    Ni
Ni     0.56086    0.476  0.88513    Ni
Ni     0.56086    0.524  0.11487    Ni
Ni     0.56086    0.976  0.61487    Ni
C       0.5817   0.0862   0.0001     C
C       0.5817   0.4138   0.5001     C
C       0.5817   0.5862   0.4999     C
C       0.5817   0.9138   0.9999     C
H       0.5891   0.0485   0.2365     H
H       0.5891   0.4515   0.7365     H
H       0.5891   0.5485   0.2635     H
H       0.5891   0.9515   0.7635     H
N       0.5968   0.1321   0.3167     N
N       0.5968   0.3679   0.8167     N
N       0.5968   0.6321   0.1833     N
N       0.5968   0.8679   0.6833     N
C       0.6054   0.1111    0.251     C
C       0.6054   0.3889    0.751     C
C       0.6054   0.6111    0.249     C
C       0.6054   0.8889    0.749     C
H       0.6128   0.2376   0.3826     H
H       0.6128   0.2624   0.8826     H
H       0.6128   0.7376   0.1174     H
H       0.6128   0.7624   0.6174     H
C       0.6172   0.2226   0.3367     C
C       0.6172   0.2774   0.8367     C
C       0.6172   0.7226   0.1633     C
C       0.6172   0.7774   0.6633     C
O       0.6233   0.0728  0.68133     O
O       0.6233   0.4272  0.18133     O
O       0.6233   0.5728  0.81867     O
O       0.6233   0.9272  0.31867     O
C       0.6374   0.1779   0.2039     C
C       0.6374   0.3221   0.7039     C
C       0.6374   0.6779   0.2961     C
C       0.6374   0.8221   0.7961     C
C       0.6449   0.2043   0.7914     C
C       0.6449   0.2957   0.2914     C
C       0.6449   0.7043   0.7086     C
C       0.6449   0.7957   0.2086     C
H       0.6472   0.1596   0.1589     H
H       0.6472   0.3404   0.6589     H
H       0.6472   0.6596   0.3411     H
H       0.6472   0.8404   0.8411     H
C        0.655   0.2272   0.7241     C
C        0.655   0.2728   0.2241     C
C        0.655   0.7272   0.7759     C
C        0.655   0.7728   0.2759     C
H       0.6564    0.141   0.8065     H
H       0.6564    0.359   0.3065     H
H       0.6564    0.641   0.6935     H
H       0.6564    0.859   0.1935     H
C       0.6719   0.1487   0.6713     C
C       0.6719   0.3513   0.1713     C
C       0.6719   0.6487   0.8287     C
C       0.6719   0.8513   0.3287     C
C        0.688   0.0879   0.0029     C
C        0.688   0.4121   0.5029     C
C        0.688   0.5879   0.4971     C
C        0.688   0.9121   0.9971     C
O        0.692   0.2419   0.4914     O
O        0.692   0.2581   0.9914     O
O        0.692   0.7419   0.0086     O
O        0.692   0.7581   0.5086     O
O       0.6954  0.03663   0.4354     O
O       0.6954  0.46337   0.9354     O
O       0.6954  0.53663   0.0646     O
O       0.6954  0.96337   0.5646     O
Ni     0.70699  0.10226  0.52599    Ni
Ni     0.70699  0.39774  0.02599    Ni
Ni     0.70699  0.60226  0.97401    Ni
Ni     0.70699  0.89774  0.47401    Ni
O       0.7251   0.1694  0.62104     O
O       0.7251   0.3306  0.12104     O
O       0.7251   0.6694  0.87896     O
O       0.7251   0.8306  0.37896     O
C       0.7422      0.0      0.0     C
C       0.7422      0.5      0.5     C
C       0.7423   0.1842   0.0099     C
C       0.7423   0.3158   0.5099     C
C       0.7423   0.6842   0.4901     C
C       0.7423   0.8158   0.9901     C
H       0.7528    0.053   0.4053     H
H       0.7528    0.447   0.9053     H
H       0.7528    0.553   0.0947     H
H       0.7528    0.947   0.5947     H
H       0.8138      0.0      0.0     H
H       0.8138      0.5      0.5     H
O       0.8299   0.1851  0.03621     O
O       0.8299   0.3149  0.53621     O
O       0.8299   0.6851  0.46379     O
O       0.8299   0.8149  0.96379     O
O       0.8619     0.11  0.51891     O
O       0.8619     0.39  0.01891     O
O       0.8619     0.61  0.98109     O
O       0.8619     0.89  0.48109     O
H       0.8718   0.1529   0.4797     H
H       0.8718   0.3471   0.9797     H
H       0.8718   0.6529   0.0203     H
H       0.8718   0.8471   0.5203     H
H       0.8828   0.0824   0.1273     H
H       0.8828   0.4176   0.6273     H
H       0.8828   0.5824   0.3727     H
H       0.8828   0.9176   0.8727     H
Ni     0.88594  0.20094  0.59776    Ni
Ni     0.88594  0.29906  0.09776    Ni
Ni     0.88594  0.70094  0.90224    Ni
Ni     0.88594  0.79906  0.40224    Ni
C       0.8952   0.1058   0.1708     C
C       0.8952   0.3942   0.6708     C
C       0.8952   0.6058   0.3292     C
C       0.8952   0.8942   0.8292     C
N       0.9008   0.2004  0.17904     N
N       0.9008   0.2996  0.67904     N
N       0.9008   0.7004  0.32096     N
N       0.9008   0.7996  0.82096     N
H       0.9039   0.0278   0.7875     H
H       0.9039   0.4722   0.2875     H
H       0.9039   0.5278   0.7125     H
H       0.9039   0.9722   0.2125     H
C       0.9065   0.0386    0.222     C
C       0.9065   0.4614    0.722     C
C       0.9065   0.5386    0.278     C
C       0.9065   0.9614    0.778     C
C       0.9156   0.2307   0.2409     C
C       0.9156   0.2693   0.7409     C
C       0.9156   0.7307   0.2591     C
C       0.9156   0.7693   0.7591     C
H         0.92   0.2026   0.7486     H
H         0.92   0.2974   0.2486     H
H         0.92   0.7026   0.7514     H
H         0.92   0.7974   0.2514     H
O       0.9201   0.0853  0.66287     O
O       0.9201   0.4147  0.16287     O
O       0.9201   0.5853  0.83713     O
O       0.9201   0.9147  0.33713     O
C       0.9217   0.0705   0.2871     C
C       0.9217   0.4295   0.7871     C
C       0.9217   0.5705   0.2129     C
C       0.9217   0.9295   0.7129     C
C       0.9249    0.169   0.2949     C
C       0.9249    0.331   0.7949     C
C       0.9249    0.669   0.2051     C
C       0.9249    0.831   0.7051     C
C       0.9337   0.0034    0.347     C
H       0.9337    0.195    0.338     H
H       0.9337    0.305    0.838     H
C       0.9337   0.4966    0.847     C
C       0.9337   0.5034    0.153     C
H       0.9337    0.695    0.162     H
H       0.9337    0.805    0.662     H
C       0.9337   0.9966    0.653     C
O       0.9545   0.0446  0.40161     O
O       0.9545   0.4554  0.90161     O
O       0.9545   0.5446  0.09839     O
O       0.9545   0.9554  0.59839     O
Ni     0.96377      0.0      0.5    Ni
Ni     0.96377      0.5      0.0    Ni
