data_I
_chemical_name_common  '/home/zhangsd/repos/MofS-CGCNN/ML/data/SSD/clean_cifs/BIYTOU_clean'
_cell_length_a 13.25790
_cell_length_b 11.43800
_cell_length_c 28.74500
_cell_angle_alpha 90.00000
_cell_angle_beta  99.88700
_cell_angle_gamma 90.00000
_space_group_name_H-M_alt      'P 1'


loop_
_space_group_symop_operation_xyz
  'x, y, z' 

loop_
_atom_site_label
_atom_site_fract_x
_atom_site_fract_y
_atom_site_fract_z
_atom_site_type_symbol
C        0.013   0.2832  0.66891     C
O       0.0146   0.1358  0.37012     O
O        0.016   0.3763  0.69215     O
Mn     0.04101  0.45111  0.33137    Mn
H       0.0487   0.0757   0.6337     H
O       0.0507   0.5241  0.61572     O
O       0.0596   0.7487  0.36279     O
H        0.076   0.3501   0.5661     H
O       0.0806   0.6001  0.72428     O
C        0.082   0.1742  0.34934     C
C       0.0985   0.3895  0.54062     C
C       0.1017   0.2011  0.68197     C
C        0.102   0.0926  0.65944     C
C       0.1022    0.575  0.58903     C
O       0.1023   0.2796  0.34266     O
N       0.1082   0.3271  0.50191     N
C       0.1194   0.5079  0.54542     C
H        0.122   0.9541   0.3725     H
C       0.1374   0.3847  0.46637     C
O       0.1414   0.6743  0.59432     O
H       0.1429   0.3423   0.4385     H
O       0.1454   0.4642  0.28101     O
Mn      0.1466  0.82855   0.6355    Mn
C       0.1489   0.0854  0.32983     C
C       0.1528   0.5654  0.50853     C
C       0.1546   0.6688  0.72898     C
C       0.1585   0.9736  0.34788     C
C       0.1606   0.5039  0.46752     C
O       0.1634   0.7589  0.70468     O
H       0.1702    0.646   0.5112     H
O       0.1737   0.5199  0.38561     O
N       0.1745   0.0112   0.6727     N
C       0.1812   0.2264  0.71806     C
H       0.1833   0.2994   0.7339     H
C       0.1901   0.5666  0.42629     C
H       0.1943   0.1896   0.2797     H
C       0.1958   0.5468  0.26839     C
H       0.1967   0.3592   0.2157     H
H       0.1976   0.4817   0.7825     H
C       0.1984    0.113  0.29256     C
O       0.2101   0.6456  0.28721     O
Mn     0.21472   0.7022  0.35688    Mn
N       0.2166   0.8905  0.33252     N
O       0.2303    0.666  0.43285     O
C       0.2371   0.4172  0.20405     C
C       0.2418    0.645   0.7688     C
C        0.246   0.5264  0.22558     C
C       0.2493   0.5385  0.79207     C
C       0.2507   0.0385  0.70793     C
C        0.254   0.0264  0.27442     C
C       0.2582    0.145   0.7312     C
C       0.2629   0.9172  0.29595     C
O       0.2697    0.166  0.06715     O
N       0.2834   0.3905  0.16748     N
Mn     0.28528   0.2022  0.14312    Mn
O       0.2899   0.1456  0.21279     O
C       0.3016    0.613  0.20744     C
H       0.3024   0.9817   0.7175     H
H       0.3033   0.8592   0.2843     H
C       0.3042   0.0468  0.23161     C
H       0.3057   0.6896   0.2203     H
C       0.3099   0.0666  0.07371     C
H       0.3167   0.7994   0.7661     H
C       0.3188   0.7264  0.78194     C
N       0.3255   0.5112   0.8273     N
O       0.3263   0.0199  0.11439     O
H       0.3298    0.146   0.9888     H
O       0.3366   0.2589  0.79532     O
C       0.3394   0.0039  0.03248     C
C       0.3415   0.4736  0.15212     C
C       0.3454   0.1688  0.77102     C
C       0.3472   0.0654  0.99147     C
C       0.3511   0.5854  0.17017     C
Mn      0.3534  0.32855   0.8645    Mn
O       0.3546   0.9642  0.21899     O
H       0.3571   0.8423   0.0615     H
O       0.3586   0.1743  0.90568     O
C       0.3626   0.8847  0.03363     C
H        0.378   0.4541   0.1275     H
C       0.3806   0.0079  0.95458     C
N       0.3918   0.8271  0.99809     N
O       0.3977   0.7796  0.15734     O
C       0.3978    0.075  0.91097     C
C        0.398   0.5926  0.84056     C
C       0.3983   0.7011  0.81803     C
C       0.4015   0.8895  0.95938     C
C        0.418   0.6742  0.15066     C
O       0.4194   0.1001  0.77572     O
H        0.424   0.8501   0.9339     H
O       0.4404   0.2487  0.13721     O
O       0.4493   0.0241  0.88428     O
H       0.4513   0.5757   0.8663     H
Mn     0.45899  0.95111  0.16863    Mn
O        0.484   0.8763  0.80785     O
O       0.4854   0.6358  0.12988     O
C        0.487   0.7832  0.83109     C
C        0.513   0.2168  0.16891     C
O       0.5146   0.3642  0.87012     O
O        0.516   0.1237  0.19215     O
Mn     0.54101  0.04889  0.83137    Mn
H       0.5487   0.4243   0.1337     H
O       0.5507   0.9759  0.11572     O
O       0.5596   0.7513  0.86279     O
H        0.576   0.1499   0.0661     H
O       0.5806   0.8999  0.22428     O
C        0.582   0.3258  0.84934     C
C       0.5985   0.1105  0.04062     C
C       0.6017   0.2989  0.18197     C
C        0.602   0.4074  0.15944     C
C       0.6022    0.925  0.08903     C
O       0.6023   0.2204  0.84266     O
N       0.6082   0.1729  0.00191     N
C       0.6194   0.9921  0.04542     C
H        0.622   0.5459   0.8725     H
C       0.6374   0.1153  0.96637     C
O       0.6414   0.8257  0.09432     O
H       0.6429   0.1577   0.9385     H
O       0.6454   0.0358  0.78101     O
Mn      0.6466  0.67145   0.1355    Mn
C       0.6489   0.4146  0.82983     C
C       0.6528   0.9346  0.00853     C
C       0.6546   0.8312  0.22898     C
C       0.6585   0.5264  0.84788     C
C       0.6606   0.9961  0.96752     C
O       0.6634   0.7411  0.20468     O
H       0.6702    0.854   0.0112     H
O       0.6737   0.9801  0.88561     O
N       0.6745   0.4888   0.1727     N
C       0.6812   0.2736  0.21806     C
H       0.6833   0.2006   0.2339     H
C       0.6901   0.9334  0.92629     C
H       0.6943   0.3104   0.7797     H
C       0.6958   0.9532  0.76839     C
H       0.6967   0.1408   0.7157     H
H       0.6976   0.0183   0.2825     H
C       0.6984    0.387  0.79256     C
O       0.7101   0.8544  0.78721     O
Mn     0.71472   0.7978  0.85688    Mn
N       0.7166   0.6095  0.83252     N
O       0.7303    0.834  0.93285     O
C       0.7371   0.0828  0.70405     C
C       0.7418    0.855   0.2688     C
C        0.746   0.9736  0.72558     C
C       0.7493   0.9615  0.29207     C
C       0.7507   0.4615  0.20793     C
C        0.754   0.4736  0.77442     C
C       0.7582    0.355   0.2312     C
C       0.7629   0.5828  0.79595     C
O       0.7697    0.334  0.56715     O
N       0.7834   0.1095  0.66748     N
Mn     0.78528   0.2978  0.64312    Mn
O       0.7899   0.3544  0.71279     O
C       0.8016    0.887  0.70744     C
H       0.8024   0.5183   0.2175     H
H       0.8033   0.6408   0.7843     H
C       0.8042   0.4532  0.73161     C
H       0.8057   0.8104   0.7203     H
C       0.8099   0.4334  0.57371     C
H       0.8167   0.7006   0.2661     H
C       0.8188   0.7736  0.28194     C
N       0.8255   0.9888   0.3273     N
O       0.8263   0.4801  0.61439     O
H       0.8298    0.354   0.4888     H
O       0.8366   0.2411  0.29532     O
C       0.8394   0.4961  0.53248     C
C       0.8415   0.0264  0.65212     C
C       0.8454   0.3312  0.27102     C
C       0.8472   0.4346  0.49147     C
C       0.8511   0.9146  0.67017     C
Mn      0.8534  0.17145   0.3645    Mn
O       0.8546   0.5358  0.71899     O
H       0.8571   0.6577   0.5615     H
O       0.8586   0.3257  0.40568     O
C       0.8626   0.6153  0.53363     C
H        0.878   0.0459   0.6275     H
C       0.8806   0.4921  0.45458     C
N       0.8918   0.6729  0.49809     N
O       0.8977   0.7204  0.65734     O
C       0.8978    0.425  0.41097     C
C        0.898   0.9074  0.34056     C
C       0.8983   0.7989  0.31803     C
C       0.9015   0.6105  0.45938     C
C        0.918   0.8258  0.65066     C
O       0.9194   0.3999  0.27572     O
H        0.924   0.6499   0.4339     H
O       0.9404   0.2513  0.63721     O
O       0.9493   0.4759  0.38428     O
H       0.9513   0.9243   0.3663     H
Mn     0.95899  0.54889  0.66863    Mn
O        0.984   0.6237  0.30785     O
O       0.9854   0.8642  0.62988     O
C        0.987   0.7168  0.33109     C
