data_I
_chemical_name_common  '/home/zhangsd/repos/MofS-CGCNN/ML/data/SSD/clean_cifs/BIYVIQ_clean'
_cell_length_a  8.50850
_cell_length_b 16.01560
_cell_length_c 27.93930
_cell_angle_alpha 90.00000
_cell_angle_beta  90.00000
_cell_angle_gamma 90.00000
_space_group_name_H-M_alt      'P 1'


loop_
_space_group_symop_operation_xyz
  'x, y, z' 

loop_
_atom_site_label
_atom_site_fract_x
_atom_site_fract_y
_atom_site_fract_z
_atom_site_type_symbol
O       0.0152   0.7933   0.3729     O
H       0.0172   0.4798   0.2733     H
O       0.0208   0.7878   0.6286     O
H       0.0294   0.4629   0.7253     H
C       0.0319   0.8026   0.5434     C
C       0.0433   0.8051   0.4579     C
C       0.0447   0.3816   0.0391     C
C       0.0452   0.3765    0.957     C
O       0.0572   0.6053   0.6842     O
O       0.0584   0.6188   0.3161     O
O       0.0599   0.3471   0.2283     O
O       0.0605   0.3332   0.7708     O
C        0.069   0.8183   0.7442     C
H       0.0725   0.4009   0.9271     H
C       0.0737   0.9532   0.7865     C
H       0.0756   0.4082   0.0679     H
C       0.0781   0.8265    0.255     C
C       0.0796   0.7633   0.5907     C
C       0.0819   0.9663   0.2131     C
C        0.082   0.7664   0.4118     C
C       0.0821   0.7661   0.5017     C
C        0.084   0.0964   0.8248     C
N       0.0852   0.4172   0.9971     N
C        0.088   0.1103   0.1761     C
N       0.1287   0.0719   0.6746     N
N       0.1287   0.0799   0.3248     N
H       0.1408   0.9568   0.6479     H
H       0.1416   0.7159   0.5022     H
H       0.1432   0.9675   0.3514     H
O       0.1465   0.7628   0.2648     O
C        0.147    0.889   0.2217     C
C        0.149   0.8819   0.7767     C
C       0.1499   0.0133   0.8145     C
H       0.1499   0.1843   0.2881     H
O       0.1547   0.7529   0.7346     O
C        0.159   0.0252   0.1847     C
H       0.1622   0.1813   0.7039     H
O       0.1749   0.1638   0.1601     O
O       0.1786   0.1559   0.8368     O
O       0.1842   0.7113   0.4103     O
O       0.1855   0.7071   0.5885     O
C       0.1961   0.9966   0.6667     C
C       0.1974   0.0078   0.3327     C
C       0.2014   0.1335    0.296     C
C        0.207   0.1274      0.7     C
Tb     0.22966  0.30614  0.16771    Tb
Tb     0.23059  0.29602  0.83083    Tb
Tb     0.26941  0.70398  0.33083    Tb
Tb     0.27034  0.69386  0.66771    Tb
C        0.293   0.8726      0.2     C
C       0.2986   0.8665    0.796     C
C       0.3026   0.9922   0.8327     C
C       0.3039   0.0034   0.1667     C
O       0.3145   0.2929   0.0885     O
O       0.3158   0.2887   0.9103     O
O       0.3214   0.8441   0.3368     O
O       0.3251   0.8362   0.6601     O
H       0.3378   0.8187   0.2039     H
C        0.341   0.9748   0.6847     C
O       0.3453   0.2471   0.2346     O
H       0.3501   0.8157   0.7881     H
C       0.3501   0.9867   0.3145     C
C        0.351   0.1181   0.2767     C
C        0.353    0.111   0.7217     C
O       0.3535   0.2372   0.7648     O
H       0.3568   0.0325   0.8514     H
H       0.3584   0.2841   0.0022     H
H       0.3592   0.0432   0.1479     H
N       0.3713   0.9201   0.8248     N
N       0.3713   0.9281   0.1746     N
C        0.412   0.8897   0.6761     C
N       0.4148   0.5828   0.4971     N
C        0.416   0.9036   0.3248     C
C       0.4179   0.2339   0.0017     C
C        0.418   0.2336   0.9118     C
C       0.4181   0.0337   0.7131     C
C       0.4204   0.2367   0.0907     C
C       0.4219   0.1735    0.755     C
H       0.4244   0.5918   0.5679     H
C       0.4263   0.0468   0.2865     C
H       0.4275   0.5991   0.4271     H
C        0.431   0.1817   0.2442     C
O       0.4395   0.6668   0.2708     O
O       0.4401   0.6529   0.7283     O
O       0.4416   0.3812   0.8161     O
O       0.4428   0.3947   0.1842     O
C       0.4548   0.6235    0.457     C
C       0.4553   0.6184   0.5391     C
C       0.4567   0.1949   0.9579     C
C       0.4681   0.1974   0.0434     C
H       0.4706   0.5371   0.2253     H
O       0.4792   0.2122   0.1286     O
H       0.4828   0.5202   0.7733     H
O       0.4848   0.2067   0.8729     O
O       0.5152   0.7067   0.6271     O
H       0.5172   0.0202   0.7267     H
O       0.5208   0.7122   0.3714     O
H       0.5294   0.0371   0.2747     H
C       0.5319   0.6974   0.4566     C
C       0.5433   0.6949   0.5421     C
C       0.5447   0.1184   0.9609     C
C       0.5452   0.1235    0.043     C
O       0.5572   0.8947   0.3158     O
O       0.5584   0.8812   0.6839     O
O       0.5599   0.1529   0.7717     O
O       0.5605   0.1668   0.2292     O
C        0.569   0.6817   0.2558     C
H       0.5725   0.0991   0.0729     H
C       0.5737   0.5468   0.2135     C
H       0.5756   0.0918   0.9321     H
C       0.5781   0.6735    0.745     C
C       0.5796   0.7367   0.4093     C
C       0.5819   0.5337   0.7869     C
C        0.582   0.7336   0.5882     C
C       0.5821   0.7339   0.4983     C
C        0.584   0.4036   0.1752     C
N       0.5852   0.0828   0.0029     N
C        0.588   0.3897   0.8239     C
N       0.6287   0.4201   0.6752     N
N       0.6287   0.4281   0.3254     N
H       0.6408   0.5432   0.3521     H
H       0.6416   0.7841   0.4978     H
H       0.6432   0.5325   0.6486     H
O       0.6465   0.7372   0.7352     O
C        0.647    0.611   0.7783     C
C        0.649   0.6181   0.2233     C
H       0.6499   0.3157   0.7119     H
C       0.6499   0.4867   0.1855     C
O       0.6547   0.7471   0.2654     O
C        0.659   0.4748   0.8153     C
H       0.6622   0.3187   0.2961     H
O       0.6749   0.3362   0.8399     O
O       0.6786   0.3441   0.1632     O
O       0.6842   0.7887   0.5897     O
O       0.6855   0.7929   0.4115     O
C       0.6961   0.5034   0.3333     C
C       0.6974   0.4922   0.6673     C
C       0.7014   0.3665    0.704     C
C        0.707   0.3726      0.3     C
Tb     0.72966  0.19386  0.83229    Tb
Tb     0.73059  0.20398  0.16917    Tb
Tb     0.76941  0.79602  0.66917    Tb
Tb     0.77034  0.80614  0.33229    Tb
C        0.793   0.6274      0.8     C
C       0.7986   0.6335    0.204     C
C       0.8026   0.5078   0.1673     C
C       0.8039   0.4966   0.8333     C
O       0.8145   0.2071   0.9115     O
O       0.8158   0.2113   0.0897     O
O       0.8214   0.6559   0.6632     O
O       0.8251   0.6638   0.3399     O
H       0.8378   0.6813   0.7961     H
C        0.841   0.5252   0.3153     C
O       0.8453   0.2529   0.7654     O
C       0.8501   0.5133   0.6855     C
H       0.8501   0.6843   0.2119     H
C        0.851   0.3819   0.7233     C
C        0.853    0.389   0.2783     C
O       0.8535   0.2628   0.2352     O
H       0.8568   0.4675   0.1486     H
H       0.8584   0.2159   0.9978     H
H       0.8592   0.4568   0.8521     H
N       0.8713   0.5719   0.8254     N
N       0.8713   0.5799   0.1752     N
C        0.912   0.6103   0.3239     C
N       0.9148   0.9172   0.5029     N
C        0.916   0.5964   0.6752     C
C       0.9179   0.2661   0.9983     C
C        0.918   0.2664   0.0882     C
C       0.9181   0.4663   0.2869     C
C       0.9204   0.2633   0.9093     C
C       0.9219   0.3265    0.245     C
H       0.9244   0.9082   0.4321     H
C       0.9263   0.4532   0.7135     C
H       0.9275   0.9009   0.5729     H
C        0.931   0.3183   0.7558     C
O       0.9395   0.8332   0.7292     O
O       0.9401   0.8471   0.2717     O
O       0.9416   0.1188   0.1839     O
O       0.9428   0.1053   0.8158     O
C       0.9548   0.8765    0.543     C
C       0.9553   0.8816   0.4609     C
C       0.9567   0.3051   0.0421     C
C       0.9681   0.3026   0.9566     C
H       0.9706   0.9629   0.7747     H
O       0.9792   0.2878   0.8714     O
H       0.9828   0.9798   0.2267     H
O       0.9848   0.2933   0.1271     O
