data_I
_chemical_name_common  '/home/zhangsd/repos/MofS-CGCNN/ML/data/SSD/clean_cifs/BIZLUT_clean'
_cell_length_a 24.09210
_cell_length_b 24.19140
_cell_length_c 24.39920
_cell_angle_alpha 85.80700
_cell_angle_beta  61.40400
_cell_angle_gamma 61.02900
_space_group_name_H-M_alt      'P 1'


loop_
_space_group_symop_operation_xyz
  'x, y, z' 

loop_
_atom_site_label
_atom_site_fract_x
_atom_site_fract_y
_atom_site_fract_z
_atom_site_type_symbol
H       0.0012   0.8305   0.3818     H
N        0.008   0.2925   0.6434     N
C       0.0112   0.4579   0.6181     C
C       0.0157   0.7186    0.079     C
C       0.0163     0.79    0.361     C
C       0.0171   0.0891   0.1856     C
H       0.0175   0.5367   0.3371     H
C        0.018   0.4827   0.5187     C
H       0.0188   0.8159   0.0263     H
C       0.0225   0.5093   0.4151     C
H       0.0226   0.4697   0.7499     H
C       0.0239   0.6617   0.1627     C
C       0.0261   0.1043   0.2332     C
C       0.0299   0.2338   0.6132     C
N       0.0318   0.2822   0.7935     N
H       0.0334   0.8364    0.679     H
C       0.0376   0.8494   0.7119     C
C       0.0423   0.7798   0.9939     C
C        0.044   0.2266   0.8747     C
H       0.0443   0.5547   0.7418     H
C       0.0456   0.7229   0.0108     C
H       0.0457   0.6229   0.1759     H
C       0.0478   0.6623   0.0994     C
O       0.0507   0.2803   0.7321     O
C       0.0514   0.8836   0.8068     C
O        0.054   0.3148   0.6202     O
H       0.0564   0.8943   0.8402     H
H       0.0572   0.0656   0.3249     H
C       0.0586   0.6734   0.3032     C
H        0.059   0.0594   0.1473     H
H       0.0653   0.6291   0.7701     H
C       0.0671   0.2277   0.8109     C
C       0.0685   0.4617   0.7424     C
H       0.0691   0.1882   0.8868     H
H       0.0702   0.8243   0.9198     H
H       0.0717   0.8612   0.3534     H
C       0.0725   0.7851   0.9307     C
H       0.0733   0.6327   0.2831     H
H       0.0743   0.4805   0.3928     H
H       0.0763   0.2102   0.5752     H
C       0.0788   0.6716   0.9615     C
H       0.0805   0.6322   0.9713     H
C       0.0818   0.5123   0.7371     C
C       0.0842   0.7574   0.3059     C
N       0.0845    0.418    0.588     N
H        0.086    0.157   0.6936     H
H       0.0872   0.6235   0.0686     H
C        0.092   0.4389   0.4893     C
C       0.0974   0.0705   0.2305     C
H       0.1001   0.7067   0.7553     H
C       0.1011   0.0525   0.2849     C
N       0.1051   0.7342   0.8848     N
C       0.1054   0.6974   0.2779     C
C       0.1065   0.8228   0.7058     C
H       0.1078     0.19   0.7792     H
C       0.1089   0.6781   0.8987     C
O       0.1099   0.3525   0.7387     O
H       0.1109   0.0666   0.7373     H
N       0.1119   0.8417   0.7527     N
C       0.1134   0.8425   0.3116     C
C       0.1156   0.6166   0.7437     C
O       0.1162   0.3893   0.6219     O
H       0.1208     0.43    0.444     H
N       0.1209   0.4012    0.737     N
C       0.1261    0.407    0.524     C
C       0.1314   0.7864   0.2774     C
H       0.1322   0.6429   0.8653     H
O       0.1347   0.7398   0.8246     O
C       0.1358    0.124   0.6784     C
C       0.1362   0.6627   0.7348     C
H       0.1417   0.2609   0.4905     H
H       0.1433   0.9084   0.3084     H
H       0.1464   0.0019   0.7977     H
Tb     0.14732  0.28605  0.64573    Tb
C       0.1488   0.5017   0.7249     C
H       0.1494   0.7916   0.6688     H
C       0.1506   0.0705   0.7046     C
H       0.1526   0.6726   0.2409     H
C       0.1559   0.8705   0.2848     C
H       0.1623   0.0673   0.1367     H
C       0.1632   0.0541    0.174     C
H       0.1685   0.1709   0.4312     H
C       0.1686   0.5519   0.7141     C
C       0.1693   0.0154   0.2805     C
H       0.1699   0.2645   0.8004     H
H        0.172   0.9066   0.8361     H
H       0.1721   0.0016   0.3171     H
H       0.1752    0.824   0.9256     H
O       0.1753   0.1836   0.6066     O
H       0.1778   0.3779   0.5029     H
O       0.1787   0.8189   0.7446     O
C        0.187   0.3897   0.7265     C
C       0.1872   0.2215   0.4766     C
H       0.1899   0.0589   0.4398     H
N        0.191   0.1308   0.6307     N
C        0.191   0.9629   0.7715     C
C       0.1935    0.761    0.216     C
C       0.2016   0.4391   0.7209     C
C       0.2036   0.1684   0.4405     C
O       0.2059   0.2089   0.6956     O
C       0.2063   0.9061   0.7945     C
H       0.2073   0.7232   0.1913     H
H       0.2081   0.8388   0.4757     H
N       0.2083   0.6443   0.6966     N
H         0.21   0.8555   0.3805     H
H       0.2133   0.8628   0.9777     H
N       0.2157   0.8443    0.225     N
O       0.2178   0.2666   0.5307     O
C       0.2215   0.2424   0.7714     C
C       0.2218    0.797   0.9222     C
H       0.2219   0.9608   0.3902     H
C       0.2223   0.0218   0.6845     C
H       0.2234   0.3471    0.723     H
O       0.2283   0.6882   0.6893     O
H       0.2292   0.3986     0.59     H
C       0.2297   0.0186   0.1723     C
N       0.2316    0.999   0.2243     N
H       0.2323   0.8827   0.0415     H
C       0.2349   0.7904   0.1909     C
N       0.2358   0.2175   0.4921     N
C       0.2381   0.0322   0.4047     C
C       0.2399   0.9634   0.7109     C
C       0.2412   0.5364   0.6748     C
O       0.2417   0.7146   0.8605     O
C       0.2445   0.8199   0.9532     C
H       0.2467   0.6037   0.8862     H
H       0.2475   0.4306   0.7143     H
H       0.2477    0.268   0.8292     H
H       0.2492   0.8428   0.5411     H
C       0.2501   0.8099   0.4369     C
N       0.2506   0.2083   0.7129     N
C       0.2513   0.8199   0.3806     C
O       0.2515   0.2912   0.6204     O
O       0.2555   0.8721   0.2005     O
Tb     0.25693  0.71859  0.75826    Tb
C        0.257   0.9741   0.3749     C
H       0.2599   0.8273   0.6321     H
C       0.2605   0.5828   0.6665     C
C       0.2612   0.0851   0.6099     C
H       0.2621   0.9166   0.1047     H
N       0.2661   0.7361   0.8872     N
C        0.268   0.2445   0.7884     C
N       0.2697   0.8502    0.758     N
C       0.2712   0.1116    0.418     C
O       0.2732   0.6156   0.7754     O
H       0.2742   0.0082    0.134     H
C       0.2762   0.3636   0.5601     C
H       0.2772   0.7724   0.1493     H
C       0.2775   0.8005   0.5454     C
H       0.2783   0.4929   0.6532     H
C       0.2791   0.0297   0.6341     C
C       0.2812   0.8593   0.0337     C
O       0.2825    0.796   0.7796     O
C       0.2843   0.7913   0.5992     C
C       0.2896    0.051   0.3833     C
C       0.2952   0.5719   0.8549     C
N       0.2956   0.3024   0.5685     N
O       0.2969   0.9608   0.2208     O
C        0.299   0.8801   0.0706     C
H       0.2995   0.0909   0.5777     H
C       0.3042   0.1636   0.4677     C
C       0.3055   0.9052   0.6758     C
C       0.3098   0.7577   0.4382     C
N       0.3104   0.7798   0.3255     N
H       0.3105   0.5713   0.6396     H
O       0.3114   0.7906    0.271     O
H        0.312   0.4186   0.5036     H
C       0.3121   0.7478   0.4977     C
C       0.3128   0.7805   0.9487     C
N       0.3189   0.5726   0.7922     N
C       0.3198   0.8493   0.6993     C
C       0.3213   0.1109   0.4311     C
C       0.3242   0.1743   0.6722     C
H       0.3244   0.5255   0.9178     H
N       0.3245   0.9366   0.3246     N
C       0.3249   0.3754   0.5081     C
N       0.3258   0.7307   0.6045     N
H       0.3274   0.2474   0.8586     H
H       0.3293   0.9969   0.6173     H
C       0.3336   0.6969   0.8799     C
C       0.3345   0.8041   0.9848     C
O       0.3349   0.7235    0.655     O
H       0.3395   0.1624   0.4759     H
H       0.3413    0.904   0.6347     H
C       0.3415   0.5252   0.8737     C
O       0.3426     0.88   0.2979     O
H       0.3437   0.1492   0.6325     H
C       0.3443   0.2125   0.7464     C
C       0.3527   0.6858   0.5056     C
C       0.3572   0.6793    0.561     C
C       0.3578   0.0129   0.3307     C
C       0.3578   0.7191   0.9101     C
C       0.3618   0.2505   0.5249     C
H       0.3643   0.6546   0.8544     H
Tb     0.36467  0.84485   0.1974    Tb
H       0.3649   0.8101   0.6744     H
H       0.3675   0.6774   0.1988     H
H       0.3687   0.0732   0.4145     H
C       0.3692    0.728   0.3245     C
C       0.3697   0.7155   0.3808     C
N       0.3704   0.8479   0.0581     N
C       0.3711   0.1761   0.6883     C
C       0.3739   0.2381   0.8237     C
H       0.3742   0.2079   0.5317     H
C       0.3753   0.9547   0.3014     C
H       0.3767   0.6489    0.474     H
H       0.3782   0.4126   0.9204     H
O       0.3806   0.6527   0.7381     O
H       0.3832   0.6374   0.5675     H
O       0.3855   0.8688   0.0954     O
C       0.3873   0.5282   0.7478     C
H       0.3912   0.9941   0.1777     H
H       0.3931    0.026   0.3142     H
C       0.3933   0.2188   0.7612     C
C       0.3937   0.3236   0.4614     C
H       0.4037   0.5293    0.704     H
O       0.4053   0.7497   0.1304     O
C       0.4053   0.7744   0.9738     C
H       0.4056    0.692   0.9043     H
C       0.4102   0.2605   0.4709     C
H       0.4103   0.2556   0.8764     H
H       0.4104   0.6999    0.285     H
H       0.4106   0.6785   0.3801     H
H       0.4118   0.0567   0.1006     H
C       0.4121   0.4785    0.829     C
C       0.4192   0.6599   0.1764     C
H       0.4227   0.1521   0.6592     H
H       0.4227    0.928   0.2654     H
C        0.423   0.7959    0.011     C
C       0.4231   0.2437    0.834     C
H       0.4263   0.7238   0.7444     H
C       0.4275   0.9736   0.1343     C
C         0.43   0.3936   0.8939     C
H       0.4307    0.108   0.0331     H
H       0.4334   0.4091   0.4563     H
C        0.434    0.481   0.7652     C
N       0.4381   0.6552   0.6918     N
C       0.4396    0.011   0.0884     C
H        0.443    0.582   0.2164     H
H       0.4433   0.7381   0.9397     H
H       0.4448   0.7924   0.3107     H
C       0.4491    0.333   0.4064     C
N       0.4491   0.6907   0.1343     N
C       0.4534   0.6983   0.7028     C
H       0.4542   0.1676    0.954     H
O       0.4544   0.8741   0.1613     O
H       0.4552   0.2245   0.4399     H
H       0.4578   0.3147   0.9329     H
C       0.4595   0.4239   0.8465     C
C       0.4619   0.2054   0.7118     C
C       0.4628   0.3808    0.416     C
C       0.4642   0.6033   0.1864     C
O       0.4665   0.7606   0.2034     O
N       0.4668   0.9089   0.1173     N
C       0.4678   0.0861   0.9902     C
H       0.4712   0.5816    0.628     H
H        0.472   0.7738    0.003     H
H       0.4772     0.19   0.6694     H
C       0.4774   0.3359   0.9016     C
C       0.4806   0.6139    0.634     C
H       0.4813   0.2625   0.3402     H
C       0.4815   0.1218   0.9431     C
H       0.4822   0.4496    0.733     H
N       0.4881   0.2324   0.7854     N
C       0.4905   0.2945   0.3474     C
C       0.4905   0.7858   0.2765     C
C       0.4925    0.981   0.0247     C
C       0.5075    0.019   0.9753     C
C       0.5095   0.2142   0.7235     C
C       0.5095   0.7055   0.6526     C
N       0.5119   0.7676   0.2146     N
H       0.5178   0.5504    0.267     H
C       0.5185   0.8782   0.0569     C
H       0.5187   0.7375   0.6598     H
C       0.5194   0.3861    0.366     C
C       0.5226   0.6641   0.0984     C
H       0.5228     0.81   0.3306     H
H        0.528   0.2262    0.997     H
H       0.5288   0.4184    0.372     H
C       0.5322   0.9139   0.0098     C
N       0.5332   0.0911   0.8827     N
O       0.5335   0.2394   0.7966     O
C       0.5358   0.3967   0.8136     C
C       0.5372   0.6192    0.584     C
C       0.5381   0.7946   0.2882     C
C       0.5405   0.5761   0.1535     C
H       0.5422   0.6853   0.0671     H
H       0.5448   0.7755   0.5601     H
O       0.5456   0.1259   0.8387     O
H       0.5458   0.8324    0.046     H
C       0.5466   0.3017   0.2972     C
N       0.5509   0.3093   0.8657     N
C       0.5509    0.667   0.5936     C
H       0.5552   0.2076   0.6893     H
H       0.5567   0.2619   0.0603     H
H        0.557    0.418   0.7836     H
C       0.5604    0.989   0.9116     C
N       0.5619   0.3448   0.3082     N
C        0.566    0.519   0.2348     C
H       0.5666   0.5909   0.5437     H
H       0.5693    0.892   0.9669     H
C         0.57   0.6064   0.1061     C
C       0.5725   0.0264   0.8657     C
H       0.5737   0.2762   0.2556     H
C       0.5769   0.7563    0.166     C
C        0.577   0.2041    0.989     C
H       0.5773    0.072   0.7346     H
H       0.5773   0.8479   0.3408     H
C       0.5808   0.3401   0.8236     C
C       0.5879   0.5215    0.171     C
H       0.5882   0.9433   0.8994     H
H       0.5894   0.3215   0.6199     H
H       0.5896   0.3001    0.715     H
H       0.5897   0.7444   0.1236     H
C       0.5898   0.7395   0.5291     C
H       0.5944    0.308   0.0957     H
C       0.5947   0.2256   0.0262     C
O       0.5947   0.2503   0.8696     O
H       0.5963   0.4707    0.296     H
C       0.6063   0.6764   0.5386     C
C       0.6067   0.7812   0.2388     C
H       0.6069    0.974   0.6858     H
H       0.6088   0.0059   0.8223     H
C       0.6127   0.4718   0.2522     C
O       0.6145   0.1312   0.9046     O
H       0.6168   0.3626   0.4325     H
O       0.6194   0.3473   0.2619     O
H       0.6218   0.5874   0.0796     H
H       0.6233   0.3511    0.526     H
C       0.6247   0.0453   0.6986     C
H       0.6258   0.7921   0.4683     H
C       0.6261   0.7619   0.1763     C
C       0.6289   0.8239   0.3117     C
N       0.6296   0.1521   0.9419     N
C       0.6303   0.2845   0.6192     C
C       0.6308    0.272   0.6755     C
H       0.6313   0.9268   0.5855     H
H       0.6325   0.3226   0.8012     H
H       0.6351   0.1899   0.3256     H
Tb     0.63533  0.15515   0.8026    Tb
H       0.6357   0.3454   0.1456     H
C       0.6382   0.7495   0.4751     C
C       0.6422   0.2809   0.0899     C
C       0.6422   0.9871   0.6693     C
C       0.6428   0.3207    0.439     C
C       0.6473   0.3142   0.4944     C
C       0.6557   0.7875   0.2536     C
H       0.6563   0.8508   0.3675     H
O       0.6574     0.12   0.7021     O
C       0.6585   0.4748   0.1263     C
H       0.6587    0.096   0.3653     H
H       0.6605   0.8376   0.5241     H
O       0.6651   0.2765    0.345     O
C       0.6655   0.1959   0.0152     C
C       0.6664   0.3031   0.1201     C
H       0.6707   0.0031   0.3827     H
H       0.6726   0.7526   0.1414     H
N       0.6742   0.2693   0.3955     N
C       0.6751   0.6246   0.4919     C
N       0.6755   0.0634   0.6754     N
H       0.6756   0.4745   0.0822     H
C       0.6758   0.8257   0.3278     C
C       0.6787   0.8891   0.5689     C
C       0.6802   0.1507   0.3007     C
N       0.6811   0.4274   0.2078     N
C       0.6872   0.2195   0.0513     C
C       0.6879   0.2522   0.5023     C
H        0.688   0.5814   0.4964     H
O       0.6886   0.2094    0.729     O
H       0.6895   0.4287   0.3604     H
N       0.6896   0.2202   0.6745     N
C       0.6902   0.2423   0.5618     C
C       0.6945   0.0948   0.3242     C
C       0.6958   0.8364   0.5323     C
H       0.7005   0.9091   0.4223     H
C        0.701   0.1199   0.9294     C
O       0.7031   0.0392   0.7792     O
N       0.7044   0.6976   0.4315     N
C       0.7048   0.4281   0.1451     C
C       0.7104    0.949   0.6167     C
C       0.7157   0.2087   0.4008     C
O       0.7175    0.204   0.2204     O
C       0.7188   0.1407   0.9663     C
C       0.7209   0.9703   0.3659     C
H       0.7217   0.5071   0.3468     H
C       0.7225   0.1995   0.4546     C
H       0.7228   0.2276   0.8507     H
C       0.7238   0.6364   0.4399     C
H       0.7258   0.9918    0.866     H
O       0.7268   0.3844   0.2246     O
C       0.7288   0.8884    0.582     C
N       0.7303   0.1498    0.242     N
C        0.732   0.7555   0.2116     C
N       0.7339   0.2639   0.1128     N
H       0.7379   0.0834   0.8953     H
C       0.7388   0.9149   0.3901     C
C       0.7395   0.4172   0.3335     C
H       0.7401   0.1727   0.3679     H
C        0.743   0.0259   0.6251     C
Tb     0.74307  0.28141  0.24174    Tb
O       0.7445   0.1279   0.7995     O
O       0.7485   0.7088   0.3796     O
C       0.7487   0.1801   0.6194     C
N       0.7494   0.7917   0.2871     N
C       0.7499   0.1901   0.5631     C
H       0.7508   0.1572   0.4589     H
H       0.7523    0.732   0.1708     H
H       0.7525   0.5694   0.2857     H
H       0.7533   0.3963   0.1138     H
C       0.7555   0.1801   0.0468     C
O       0.7583   0.2854   0.1395     O
C       0.7588   0.4636   0.3252     C
C       0.7601   0.0366   0.2891     C
C       0.7619   0.9678   0.5953     C
N       0.7642   0.7825   0.5079     N
C       0.7651   0.2096   0.8091     C
H       0.7677   0.1173   0.9585     H
N       0.7684    0.001   0.7757     N
C       0.7703   0.9814   0.8277     C
H       0.7708   0.6014     0.41     H
O       0.7717   0.3118   0.3107     O
H       0.7766   0.6529    0.277     H
C       0.7777   0.9782   0.3155     C
H       0.7781   0.0392   0.6098     H
C       0.7782    0.203   0.0778     C
C       0.7785   0.7576   0.2286     C
O       0.7822   0.7334   0.4693     O
N       0.7843   0.1557    0.775     N
H       0.7867   0.1372   0.0223     H
H         0.79   0.1445   0.6195     H
N       0.7917   0.3557   0.3034     N
H       0.7919   0.1612   0.5243     H
H       0.7927   0.2768   0.8087     H
C       0.7937   0.0939   0.2055     C
O       0.7941   0.7911   0.3044     O
C       0.7964   0.8316   0.5595     C
C       0.7984   0.5609   0.2791     C
C       0.8065    0.239    0.784     C
C        0.809   0.0371   0.2285     C
N        0.809   0.8692   0.3693     N
H       0.8101   0.9411   0.5602     H
C       0.8128   0.7785   0.5234     C
C        0.813   0.6103   0.2735     C
O       0.8213   0.1811   0.2554     O
H       0.8222   0.6221   0.4971     H
O       0.8247   0.8164   0.3934     O
H       0.8248    0.176   0.0744     H
H       0.8279   0.9984   0.6829     H
H        0.828   0.0934   0.1639     H
H       0.8301   0.7355   0.1996     H
C       0.8307   0.9846   0.7195     C
C       0.8314   0.4481   0.2859     C
H       0.8315   0.8291   0.5688     H
C       0.8368   0.9459    0.826     C
H       0.8377   0.9327   0.8633     H
C       0.8441   0.1295   0.7152     C
H       0.8474   0.3274   0.7591     H
C       0.8494   0.9295   0.2954     C
H       0.8506   0.2084   0.3312     H
C       0.8512   0.4983   0.2751     C
Tb     0.85268  0.71394  0.35427    Tb
H       0.8536   0.9981   0.2023     H
H       0.8567   0.0916   0.6916     H
H       0.8583   0.7391   0.5095     H
C       0.8638   0.3373   0.2652     C
C       0.8642    0.876   0.3216     C
O       0.8653   0.2602   0.1754     O
H       0.8678   0.3571   0.1347     H
C       0.8686   0.2136   0.7226     C
C       0.8739    0.593    0.476     C
N       0.8791   0.5988    0.263     N
H       0.8792     0.57    0.556     H
O       0.8838   0.6107   0.3781     O
C       0.8844   0.3834   0.2563     C
C       0.8866   0.1575   0.6884     C
N       0.8881   0.1583   0.2473     N
H       0.8891   0.9334   0.2627     H
O       0.8901   0.6475   0.2613     O
C       0.8911   0.3219   0.1013     C
H       0.8922     0.81   0.2208     H
C       0.8935   0.1772   0.2942     C
C       0.8946   0.3026   0.7221     C
N       0.8949   0.2658   0.1152     N
C       0.8989   0.9475   0.7151     C
H       0.8999   0.2933   0.2447     H
C       0.9026   0.9295   0.7695     C
C        0.908   0.5611   0.5107     C
H       0.9128   0.3765   0.9314     H
H        0.914    0.843   0.3064     H
N       0.9155    0.582    0.412     N
C       0.9158   0.2426   0.6941     C
C       0.9182   0.4877   0.2629     C
H       0.9195   0.3678   0.0287     H
C       0.9212   0.3284   0.0385     C
H       0.9237   0.7898   0.4248     H
H       0.9257   0.5195   0.6072     H
H       0.9267   0.3673   0.7169     H
C       0.9275   0.2149   0.0693     C
H       0.9283   0.1388   0.6466     H
H       0.9298   0.1757   0.0802     H
H       0.9309   0.8118   0.1132     H
C       0.9315   0.5383   0.2576     C
C       0.9329   0.7723   0.1891     C
H       0.9347   0.3709   0.2299     H
H        0.941   0.9406   0.8527     H
C       0.9414   0.3266   0.6968     C
H       0.9428   0.9344   0.6751     H
H       0.9436   0.1057   0.1598     H
O        0.946   0.6852   0.3798     O
C       0.9486   0.1164   0.1932     C
O       0.9493   0.7197   0.2679     O
C       0.9522   0.3377   0.9006     C
H       0.9543   0.3771   0.8241     H
C       0.9544   0.2771   0.9892     C
H       0.9557   0.4453   0.2582     H
C        0.956   0.7734   0.1253     C
C       0.9577   0.2202   0.0061     C
C       0.9624   0.1506   0.2881     C
H       0.9666   0.1636    0.321     H
N       0.9682   0.7178   0.2065     N
C       0.9701   0.7662   0.3868     C
C       0.9739   0.8957   0.7668     C
C       0.9761   0.3383   0.8373     C
H       0.9774   0.5303   0.2501     H
C       0.9775   0.4907   0.5849     C
H       0.9812   0.1841   0.9737     H
C        0.982   0.5173   0.4813     C
H       0.9825   0.4633   0.6629     H
C       0.9829   0.9109   0.8144     C
C       0.9837     0.21    0.639     C
C       0.9843   0.2814    0.921     C
C       0.9888   0.5421   0.3819     C
N        0.992   0.7075   0.3566     N
H       0.9988   0.1695   0.6182     H
