data_I
_chemical_name_common  '/home/zhangsd/repos/MofS-CGCNN/ML/data/SSD/clean_cifs/BIZMII_clean'
_cell_length_a 24.00100
_cell_length_b 24.14230
_cell_length_c 24.35640
_cell_angle_alpha 85.62600
_cell_angle_beta  61.31900
_cell_angle_gamma 60.94400
_space_group_name_H-M_alt      'P 1'


loop_
_space_group_symop_operation_xyz
  'x, y, z' 

loop_
_atom_site_label
_atom_site_fract_x
_atom_site_fract_y
_atom_site_fract_z
_atom_site_type_symbol
H       0.0062   0.1653   0.6173     H
C       0.0099   0.7931    0.363     C
C       0.0114   0.4565   0.6175     C
N       0.0118   0.2906    0.641     N
C       0.0157    0.717   0.0809     C
H       0.0176   0.5375   0.3374     H
H       0.0179   0.8155   0.0285     H
C       0.0182   0.0901   0.1832     C
C       0.0188   0.4831    0.519     C
C       0.0205   0.5129   0.4153     C
C       0.0224   0.6624   0.1649     C
H       0.0232   0.4691   0.7507     H
C        0.028   0.1057   0.2303     C
N       0.0333    0.282   0.7914     N
C       0.0336   0.2305   0.6124     C
H        0.036   0.8347     0.68     H
C       0.0388   0.8479    0.714     C
C        0.042   0.7793   0.9959     C
H       0.0433   0.6238   0.1791     H
C       0.0443    0.228    0.873     C
C       0.0452   0.7219   0.0122     C
H       0.0488   0.5526   0.7378     H
C       0.0492   0.6606   0.1012     C
C       0.0494   0.8824   0.8089     C
O       0.0516   0.2813   0.7297     O
H       0.0544   0.8923   0.8427     H
C       0.0558   0.6757   0.3075     C
O       0.0574   0.3135   0.6177     O
H       0.0584   0.0653   0.3238     H
H       0.0599   0.0596   0.1451     H
H       0.0649   0.6284   0.7751     H
H       0.0685   0.1894   0.8856     H
C       0.0697    0.229    0.808     C
C       0.0704   0.4604   0.7412     C
H       0.0714   0.8619   0.3565     H
H       0.0724   0.6336   0.2889     H
H       0.0729   0.4868   0.3932     H
H       0.0732   0.8228   0.9215     H
C       0.0738    0.784   0.9326     C
H       0.0806   0.2064   0.5747     H
C       0.0807   0.7581   0.3077     C
C       0.0815   0.6706   0.9631     C
C       0.0856   0.5101   0.7345     C
N       0.0859   0.4162   0.5872     N
H       0.0877   0.6299   0.9731     H
H       0.0879   0.1579   0.6909     H
H         0.09   0.6217   0.0709     H
C       0.0927    0.439   0.4894     C
C       0.0983   0.0724   0.2294     C
H       0.0993   0.7067   0.7551     H
C       0.1018   0.7001   0.2807     C
C       0.1025   0.0525   0.2838     C
C       0.1032   0.8237   0.7092     C
N        0.106   0.7328   0.8861     N
C       0.1084   0.6764   0.9019     C
N        0.109   0.8422   0.7561     N
H       0.1096   0.0693    0.738     H
H       0.1125   0.1919   0.7764     H
O       0.1126   0.3505   0.7355     O
C       0.1132   0.8431   0.3145     C
C        0.115   0.6163   0.7466     C
O       0.1186   0.3872   0.6202     O
H       0.1215   0.4303   0.4441     H
N       0.1232   0.4003    0.734     N
C       0.1263   0.4069   0.5232     C
H       0.1292   0.6413   0.8695     H
C       0.1293    0.787    0.281     C
O       0.1345   0.7393   0.8266     O
C        0.136   0.6624    0.736     C
C       0.1374   0.1245   0.6769     C
H       0.1415   0.2599     0.49     H
H       0.1435    0.908    0.313     H
H       0.1446   0.0012   0.7975     H
H       0.1465   0.7926   0.6721     H
H       0.1486   0.6758    0.243     H
Er     0.14926  0.28508  0.64381    Er
C       0.1501   0.0717   0.7044     C
C        0.152   0.4998   0.7232     C
C       0.1551    0.871   0.2889     C
C       0.1659    0.055    0.174     C
H       0.1659   0.0698   0.1367     H
C       0.1687    0.552   0.7149     C
H       0.1706   0.1727   0.4293     H
H       0.1712   0.9067   0.8374     H
C       0.1714   0.0139   0.2792     C
H       0.1724    0.263   0.7979     H
H       0.1736   0.8263   0.9255     H
H       0.1743   0.9997   0.3157     H
O       0.1771   0.8187   0.7472     O
O       0.1782   0.1828   0.6043     O
H       0.1784   0.3781   0.5015     H
C       0.1878    0.221   0.4753     C
H       0.1899   0.0602   0.4375     H
C       0.1902   0.7631   0.2186     C
C       0.1902   0.9623    0.772     C
C       0.1903   0.3876   0.7228     C
N       0.1935   0.1304   0.6303     N
H       0.2023   0.7268    0.193     H
C       0.2032   0.4384   0.7189     C
C       0.2051   0.9062   0.7954     C
C       0.2056   0.1694   0.4393     C
O       0.2065   0.2096    0.694     O
N       0.2068   0.6453   0.6996     N
H       0.2083   0.8395   0.4765     H
H       0.2092   0.8551   0.3828     H
H       0.2129    0.866   0.9754     H
N       0.2137    0.845   0.2286     N
H       0.2188   0.9638   0.3934     H
O       0.2194   0.2661   0.5295     O
C       0.2202   0.7991   0.9225     C
C       0.2221   0.0214   0.6836     C
C       0.2242   0.2417   0.7688     C
O       0.2264   0.6902   0.6933     O
H       0.2276   0.3447   0.7178     H
H       0.2296   0.8829    0.045     H
H       0.2308   0.3979   0.5883     H
C       0.2322   0.0173   0.1717     C
N       0.2326   0.9974   0.2235     N
C       0.2333   0.7918   0.1935     C
N       0.2367   0.2167   0.4902     N
C       0.2385   0.0323    0.403     C
O       0.2395    0.716    0.862     O
C       0.2411   0.9632   0.7113     C
C       0.2425   0.5351   0.6748     C
C       0.2431   0.8223   0.9529     C
H        0.247    0.268   0.8282     H
H       0.2473   0.6061   0.8889     H
H       0.2489   0.4301    0.713     H
H       0.2492   0.8439    0.541     H
C       0.2504   0.8102   0.4378     C
C       0.2512   0.8198   0.3826     C
N       0.2521   0.2093   0.7107     N
O       0.2522   0.2902   0.6181     O
O       0.2529   0.8742   0.2055     O
H        0.253   0.8308    0.637     H
C       0.2546   0.9766   0.3767     C
Er      0.2553   0.7194  0.76039    Er
H       0.2592   0.9151   0.1086     H
C       0.2609   0.5846   0.6677     C
C       0.2629   0.0841    0.608     C
N       0.2646    0.737   0.8883     N
C       0.2682   0.2446    0.787     C
N       0.2689     0.85   0.7576     N
C       0.2722   0.1117    0.416     C
O       0.2726   0.6169   0.7762     O
H        0.276   0.7738   0.1519     H
C       0.2761   0.8018   0.5472     C
H       0.2773   0.0056   0.1332     H
C       0.2773   0.3625   0.5578     C
C       0.2791   0.8593   0.0364     C
C       0.2793   0.7945   0.6038     C
H       0.2798   0.4917   0.6527     H
O       0.2799   0.7956   0.7817     O
C       0.2815   0.0285   0.6331     C
C       0.2919   0.0514    0.381     C
C       0.2948   0.5735   0.8566     C
C       0.2967   0.8795   0.0735     C
N       0.2972   0.3007   0.5654     N
O       0.2972   0.9593   0.2201     O
H       0.3011   0.0888   0.5738     H
C       0.3032   0.1637   0.4676     C
C        0.308   0.9027   0.6751     C
N       0.3102   0.7806   0.3272     N
C       0.3103   0.7579   0.4394     C
H       0.3106   0.5745   0.6409     H
C       0.3106   0.7818   0.9507     C
O       0.3116   0.7909   0.2722     O
C       0.3119   0.7479   0.5005     C
H       0.3153   0.4154   0.4972     H
N       0.3172   0.5738   0.7943     N
C       0.3192   0.8476   0.7002     C
C       0.3199   0.1126   0.4304     C
N       0.3222   0.7325   0.6091     N
C       0.3239   0.1759   0.6717     C
N       0.3244   0.9373   0.3244     N
H       0.3261   0.5223   0.9163     H
H       0.3277   0.2502   0.8559     H
C       0.3281   0.3724   0.5031     C
C       0.3307   0.8057   0.9869     C
C       0.3314   0.6984   0.8827     C
H       0.3318   0.9961   0.6176     H
O       0.3331   0.7235   0.6578     O
H       0.3381   0.1615   0.4772     H
O       0.3421   0.8797   0.2972     O
C        0.343   0.5242   0.8724     C
H       0.3431   0.1507   0.6321     H
H       0.3446   0.9004   0.6338     H
C       0.3474    0.212   0.7438     C
C       0.3511    0.687   0.5081     C
C       0.3563   0.6801   0.5637     C
C       0.3571   0.7161   0.9103     C
C       0.3595   0.0114   0.3291     C
H       0.3615    0.656   0.8572     H
C       0.3635   0.2488   0.5207     C
Er     0.36359  0.84524  0.19891    Er
H       0.3636   0.8075    0.676     H
H        0.365     0.68   0.2012     H
N       0.3669   0.8492   0.0604     N
H       0.3678   0.0752   0.4134     H
C       0.3678   0.7294   0.3262     C
C       0.3687    0.716   0.3842     C
C       0.3718   0.1766   0.6867     C
H       0.3743   0.6501   0.4766     H
H       0.3756   0.2058   0.5262     H
C       0.3758   0.9558   0.3001     C
C       0.3759    0.238   0.8215     C
O       0.3777   0.6547   0.7408     O
H       0.3815   0.4091   0.9193     H
O       0.3823   0.8699   0.0981     O
H       0.3841   0.6381   0.5694     H
C        0.387   0.5284   0.7482     C
H       0.3929   0.9956   0.1786     H
C       0.3941   0.3229   0.4587     C
H       0.3963    0.023   0.3128     H
C       0.3965   0.2173   0.7585     C
O       0.4032    0.752   0.1332     O
H       0.4033   0.5295   0.7043     H
C       0.4036   0.7762   0.9754     C
H       0.4048   0.6872   0.9046     H
H       0.4089   0.7012   0.2866     H
H       0.4093   0.6786   0.3837     H
C       0.4114   0.2595   0.4688     C
C       0.4116   0.4795   0.8293     C
H       0.4139   0.2494   0.8758     H
H        0.415    0.055   0.0999     H
C       0.4171   0.6617   0.1783     C
C       0.4206   0.7979   0.0134     C
H       0.4219   0.7251   0.7471     H
H       0.4227   0.9297    0.263     H
H       0.4234   0.1519    0.657     H
C       0.4254   0.2407   0.8331     C
C       0.4277   0.9745    0.135     C
H       0.4304   0.1094   0.0351     H
C       0.4329   0.4817   0.7659     C
C       0.4334   0.3909   0.8927     C
H       0.4364   0.4059   0.4548     H
N       0.4366   0.6554    0.695     N
H       0.4399   0.5823   0.2158     H
C       0.4414   0.0092   0.0879     C
H       0.4423   0.7404   0.9407     H
H       0.4424   0.7933   0.3131     H
N       0.4473   0.6918   0.1376     N
C       0.4504   0.6985   0.7059     C
C       0.4515   0.3309   0.4035     C
O       0.4544   0.8723   0.1608     O
H       0.4567   0.1686   0.9525     H
H       0.4576   0.2237   0.4385     H
H       0.4596   0.3139   0.9317     H
C       0.4613    0.424   0.8454     C
C       0.4617   0.6041    0.187     C
O       0.4642   0.7616    0.205     O
H       0.4645    0.586   0.6317     H
C       0.4647    0.205   0.7097     C
C       0.4654    0.378   0.4141     C
N       0.4667   0.9071   0.1167     N
C       0.4676   0.0872   0.9922     C
H       0.4697   0.7764   0.0056     H
C       0.4757   0.6169   0.6379     C
C       0.4791    0.335   0.8999     C
H       0.4798   0.1905    0.667     H
H       0.4811   0.4497   0.7337     H
H       0.4817   0.2647    0.336     H
C       0.4834   0.1227   0.9422     C
C       0.4882   0.7868   0.2788     C
N       0.4905   0.2309   0.7836     N
C       0.4919   0.9806   0.0236     C
C       0.4921   0.2953   0.3444     C
C       0.5079   0.7047   0.6556     C
C       0.5081   0.0194   0.9764     C
N       0.5095   0.7691   0.2164     N
C       0.5118   0.2132   0.7212     C
C       0.5166   0.8773   0.0578     C
H       0.5183   0.7353    0.664     H
H       0.5189   0.5503   0.2663     H
H       0.5202   0.8095    0.333     H
C       0.5209    0.665   0.1001     C
C       0.5243   0.3831   0.3621     C
H       0.5303   0.2236   0.9944     H
C       0.5324   0.9128   0.0078     C
N       0.5333   0.0929   0.8833     N
C       0.5346    0.622   0.5859     C
C       0.5353    0.795   0.2903     C
H       0.5355    0.414   0.3683     H
O       0.5358   0.2384    0.795     O
C       0.5383   0.3959    0.813     C
C       0.5387    0.576   0.1546     C
H       0.5404   0.6861   0.0683     H
H       0.5424   0.7763   0.5615     H
H       0.5433   0.8314   0.0475     H
O       0.5456   0.1277   0.8392     O
C       0.5485   0.6691   0.5965     C
C       0.5496   0.3015   0.2941     C
N       0.5527   0.3082   0.8624     N
H       0.5576   0.2067   0.6869     H
H       0.5577   0.2596   0.0593     H
C       0.5586   0.9908   0.9121     C
H       0.5601   0.4177   0.7842     H
N       0.5634   0.3446    0.305     N
H       0.5636   0.5941   0.5452     H
C       0.5666   0.6091   0.1073     C
C       0.5671   0.5183   0.2341     C
H       0.5696   0.8906   0.9649     H
C       0.5723   0.0255    0.865     C
C       0.5746   0.7593   0.1669     C
H       0.5766   0.8481    0.343     H
H       0.5773   0.0703    0.737     H
H       0.5781   0.2749   0.2529     H
C       0.5794   0.2021   0.9866     C
C       0.5829   0.3383   0.8217     C
H        0.585    0.945   0.9001     H
H       0.5861   0.7506   0.1242     H
C       0.5884   0.5205   0.1707     C
C       0.5886   0.7405   0.5312     C
H       0.5907   0.3214   0.6163     H
H       0.5911   0.2988   0.7134     H
H       0.5952   0.3128   0.0954     H
C       0.5964   0.2238   0.0246     C
H       0.5967   0.4705   0.2957     H
O       0.5968    0.248   0.8668     O
C       0.6035   0.7827   0.2415     C
H       0.6037    0.977   0.6872     H
C       0.6059   0.6771   0.5413     C
H       0.6071   0.0044   0.8214     H
C        0.613   0.4716   0.2518     C
H       0.6159   0.3619   0.4306     H
O       0.6177   0.1301   0.9019     O
H       0.6185   0.5909   0.0807     H
O       0.6223   0.3453   0.2592     O
C       0.6241    0.762   0.1785     C
C       0.6242   0.0442   0.6999     C
H       0.6244   0.7942   0.4738     H
H       0.6257   0.3499   0.5234     H
C       0.6282   0.8234   0.3133     C
C       0.6313    0.284   0.6158     C
C       0.6322   0.2706   0.6738     C
H       0.6322   0.9248   0.5866     H
N       0.6331   0.1508   0.9396     N
H        0.635     0.32   0.7988     H
H       0.6364   0.1925    0.324     H
Er     0.63641  0.15476  0.80109    Er
C       0.6365   0.7512   0.4793     C
H       0.6385    0.344   0.1428     H
C       0.6405   0.9886   0.6709     C
C       0.6429   0.2839   0.0897     C
C       0.6437   0.3199   0.4363     C
C       0.6489    0.313   0.4919     C
C       0.6526    0.788   0.2562     C
H       0.6554   0.0996   0.3662     H
H       0.6569   0.8493   0.3679     H
C        0.657   0.4758   0.1276     C
O       0.6579   0.1203   0.7028     O
H       0.6619   0.8385   0.5228     H
O       0.6669   0.2765   0.3422     O
H       0.6682   0.0039   0.3824     H
C       0.6686   0.3016   0.1173     C
C       0.6693   0.1943   0.0131     C
C       0.6719   0.6276   0.4969     C
H       0.6723   0.7498   0.1441     H
H       0.6739   0.4777   0.0837     H
N       0.6756   0.0627   0.6756     N
C       0.6761   0.8241   0.3283     C
N       0.6778   0.2675   0.3909     N
C       0.6801   0.8874   0.5696     C
C       0.6808   0.1524   0.2998     C
N       0.6828   0.4262   0.2057     N
H       0.6847   0.5846   0.5028     H
C       0.6881   0.2521   0.4995     C
O       0.6884   0.2091   0.7278     O
C       0.6894   0.2182   0.0493     C
H       0.6894   0.4255   0.3591     H
C       0.6897   0.2421   0.5606     C
N       0.6898   0.2194   0.6728     N
C        0.692   0.0973   0.3249     C
C       0.6968   0.8363   0.5324     C
H       0.6989   0.9112   0.4262     H
O       0.7028   0.0407   0.7799     O
N       0.7028   0.6993   0.4346     N
C       0.7033   0.1205   0.9265     C
C       0.7052   0.4265   0.1434     C
C       0.7081   0.9486    0.619     C
C       0.7185   0.9715   0.3669     C
O       0.7201   0.2044   0.2183     O
H       0.7202   0.5083   0.3473     H
C       0.7207   0.2055   0.3962     C
C       0.7209   0.1407   0.9636     C
C       0.7227   0.6375   0.4422     C
H       0.7227   0.9944   0.8668     H
C       0.7239   0.1982   0.4528     C
H        0.724   0.2262   0.8481     H
O       0.7274   0.3831   0.2238     O
C       0.7278   0.8883    0.584     C
N       0.7311     0.15   0.2424     N
C       0.7318   0.7554    0.213     C
N       0.7354    0.263   0.1117     N
C       0.7371   0.9159    0.392     C
C       0.7391   0.4154   0.3323     C
H       0.7408   0.0849   0.8914     H
Er      0.7447   0.2806  0.23961    Er
C       0.7454   0.0234   0.6233     C
H        0.747   0.1692    0.363     H
O       0.7471   0.1258   0.7945     O
O       0.7478   0.7098   0.3819     O
N       0.7479   0.7907   0.2893     N
C       0.7488   0.1802   0.6174     C
C       0.7496   0.1898   0.5622     C
H       0.7508   0.1561    0.459     H
H       0.7511   0.5699    0.287     H
H       0.7527   0.3939   0.1111     H
H        0.753    0.732   0.1718     H
C       0.7569   0.1777   0.0471     C
C       0.7575   0.4649   0.3252     C
C       0.7589   0.0368   0.2887     C
O       0.7605    0.284    0.138     O
C       0.7615   0.9677    0.597     C
N       0.7633   0.7833   0.5098     N
C       0.7667   0.2082   0.8065     C
N       0.7674   0.0026   0.7765     N
C       0.7678   0.9827   0.8283     C
H       0.7692   0.6021   0.4117     H
H       0.7704   0.1171    0.955     H
H       0.7724   0.6553   0.2822     H
O       0.7736   0.3098   0.3067     O
C       0.7758   0.7583   0.2312     C
C       0.7779   0.9786   0.3164     C
C       0.7798   0.2009   0.0775     C
O       0.7806   0.7339   0.4705     O
H       0.7812   0.0362   0.6066     H
N       0.7863    0.155   0.7714     N
H       0.7871    0.134   0.0246     H
H       0.7908   0.1449   0.6172     H
H       0.7917   0.1605   0.5235     H
N       0.7932   0.3547   0.3004     N
O       0.7935   0.7904    0.306     O
C       0.7944   0.8306   0.5607     C
C       0.7949   0.0938   0.2046     C
C       0.7968   0.5616   0.2811     C
H       0.7977   0.2732    0.807     H
N       0.8065   0.8696   0.3697     N
C       0.8097   0.6124   0.2772     C
C       0.8098   0.0377    0.228     C
C       0.8098   0.2369   0.7814     C
H       0.8101   0.9398   0.5625     H
C       0.8122    0.779   0.5247     C
H       0.8216   0.6219   0.4985     H
O       0.8218   0.8172   0.3957     O
O       0.8229   0.1813   0.2528     O
H       0.8257   0.0003   0.6843     H
H       0.8264   0.1737   0.0745     H
H       0.8276    0.737   0.2021     H
C       0.8286   0.9861   0.7208     C
H       0.8288   0.0933   0.1626     H
H       0.8294   0.8273   0.5707     H
C       0.8313    0.448   0.2851     C
H       0.8341   0.9302   0.8633     H
C       0.8341    0.945    0.826     C
C       0.8449    0.129   0.7111     C
C        0.848   0.5002   0.2768     C
C       0.8499   0.9283   0.2956     C
Er     0.85074  0.71492  0.35619    Er
H       0.8514   0.3242    0.757     H
H       0.8535   0.2074   0.3279     H
H       0.8554   0.9988   0.2025     H
H       0.8565    0.092    0.687     H
H       0.8585   0.7401     0.51     H
C       0.8626   0.8755   0.3231     C
C        0.864   0.3376    0.264     C
O       0.8655   0.2607   0.1734     O
C       0.8707    0.213    0.719     C
H       0.8708   0.3587   0.1305     H
C       0.8737   0.5931   0.4768     C
N       0.8768   0.5997    0.266     N
H       0.8785   0.5697   0.5559     H
O       0.8814   0.6128   0.3798     O
C        0.885   0.3837   0.2534     C
C       0.8868   0.1569   0.6855     C
O       0.8874   0.6495   0.2645     O
H       0.8875   0.8081   0.2236     H
H       0.8904   0.9307    0.262     H
N        0.891   0.1578   0.2439     N
C       0.8916   0.3236   0.0981     C
N        0.894   0.2672   0.1139     N
C       0.8968   0.1763   0.2908     C
C       0.8975   0.9475   0.7162     C
C       0.8982   0.2999   0.7193     C
H       0.9007   0.2933   0.2449     H
C       0.9017   0.9276   0.7706     C
C       0.9073    0.561   0.5106     C
H         0.91   0.3783   0.9291     H
H       0.9121   0.8421   0.3091     H
H       0.9123   0.3701   0.0269     H
N       0.9141   0.5838   0.4128     N
C       0.9144   0.4899   0.2655     C
C       0.9185   0.3294   0.0369     C
C       0.9193   0.2419   0.6923     C
H       0.9194   0.7936   0.4253     H
C       0.9262    0.216   0.0674     C
H       0.9268   0.1772   0.0785     H
H       0.9271   0.5132   0.6068     H
H       0.9276   0.3664   0.7111     H
H       0.9286   0.1381   0.6435     H
C       0.9296   0.5396   0.2588     C
C       0.9303    0.771    0.192     C
H       0.9315   0.8106   0.1144     H
H       0.9351   0.3716   0.2249     H
H       0.9401   0.9404   0.8549     H
H       0.9416   0.9347   0.6762     H
O       0.9426   0.6865   0.3823     O
C       0.9442   0.3243   0.6925     C
H       0.9456   0.1077   0.1573     H
O       0.9484   0.7187   0.2703     O
C       0.9506   0.1176   0.1911     C
C       0.9508   0.3394   0.8988     C
H       0.9512   0.4474   0.2622     H
C       0.9548   0.2781   0.9878     C
C       0.9557    0.772    0.127     C
H       0.9567   0.3762   0.8209     H
C        0.958   0.2207   0.0041     C
C       0.9612   0.1521    0.286     C
H        0.964   0.1653     0.32     H
C       0.9664   0.7695   0.3876     C
N       0.9667    0.718   0.2086     N
C        0.972   0.8943   0.7697     C
H       0.9768   0.5309   0.2493     H
C       0.9776   0.3376   0.8351     C
C       0.9795   0.4871   0.5847     C
C       0.9812   0.5169    0.481     C
C       0.9818   0.9099   0.8168     C
H       0.9821   0.1845   0.9715     H
H       0.9824   0.4625   0.6626     H
C       0.9843    0.283   0.9191     C
N       0.9882   0.7094    0.359     N
C       0.9886   0.5435   0.3825     C
C       0.9901   0.2069    0.637     C
H       0.9938   0.8347   0.3827     H
