data_I
_chemical_name_common  '/home/zhangsd/repos/MofS-CGCNN/ML/data/SSD/clean_cifs/BOCTOE05_clean'
_cell_length_a  8.50200
_cell_length_b  9.43100
_cell_length_c 12.93000
_cell_angle_alpha 90.00000
_cell_angle_beta  104.77000
_cell_angle_gamma 90.00000
_space_group_name_H-M_alt      'P 1'


loop_
_space_group_symop_operation_xyz
  'x, y, z' 

loop_
_atom_site_label
_atom_site_fract_x
_atom_site_fract_y
_atom_site_fract_z
_atom_site_type_symbol
N          0.0   0.4564     0.75     N
Mn         0.0      0.5      0.0    Mn
Mn         0.0      0.5      0.5    Mn
N          0.0   0.5436     0.25     N
N       0.0504   0.4537    0.675     N
N       0.0504   0.5463    0.175     N
N       0.1627   0.3102   0.0403     N
N       0.1627   0.6898   0.5403     N
N       0.2185   0.3705   0.4981     N
N       0.2185   0.6295   0.9981     N
N         0.25     0.25      0.0     N
N         0.25     0.25      0.5     N
N         0.25     0.75      0.0     N
N         0.25     0.75      0.5     N
N       0.2815   0.1295   0.5019     N
N       0.2815   0.8705   0.0019     N
N       0.3373   0.1898   0.9597     N
N       0.3373   0.8102   0.4597     N
N       0.4496   0.0463    0.325     N
N       0.4496   0.9537    0.825     N
Mn         0.5      0.0      0.0    Mn
Mn         0.5      0.0      0.5    Mn
N          0.5   0.0436     0.25     N
N          0.5   0.9564     0.75     N
N       0.5504   0.0463    0.175     N
N       0.5504   0.9537    0.675     N
N       0.6627   0.1898   0.5403     N
N       0.6627   0.8102   0.0403     N
N       0.7185   0.1295   0.9981     N
N       0.7185   0.8705   0.4981     N
N         0.75     0.25      0.0     N
N         0.75     0.25      0.5     N
N         0.75     0.75      0.0     N
N         0.75     0.75      0.5     N
N       0.7815   0.3705   0.0019     N
N       0.7815   0.6295   0.5019     N
N       0.8373   0.3102   0.4597     N
N       0.8373   0.6898   0.9597     N
N       0.9496   0.4537    0.825     N
N       0.9496   0.5463    0.325     N
