data_I
_chemical_name_common  '/home/zhangsd/repos/MofS-CGCNN/ML/data/SSD/clean_cifs/BOCTOE01_clean'
_cell_length_a  8.42580
_cell_length_b  9.27100
_cell_length_c 12.82400
_cell_angle_alpha 90.00000
_cell_angle_beta  105.76000
_cell_angle_gamma 90.00000
_space_group_name_H-M_alt      'P 1'


loop_
_space_group_symop_operation_xyz
  'x, y, z' 

loop_
_atom_site_label
_atom_site_fract_x
_atom_site_fract_y
_atom_site_fract_z
_atom_site_type_symbol
N          0.0      0.0      0.0     N
N          0.0      0.0      0.5     N
N          0.0      0.5      0.0     N
N          0.0      0.5      0.5     N
N        0.043  0.61974  0.01824     N
N        0.043  0.88026  0.51824     N
N      0.10732  0.55357  0.47211     N
N      0.10732  0.94643  0.97211     N
N      0.21348  0.69322  0.83612     N
N      0.21348  0.80678  0.33612     N
Mn     0.25702  0.74841  0.01078    Mn
Mn     0.25702  0.75159  0.51078    Mn
N      0.26937   0.6999  0.76239     N
N      0.26937   0.8001  0.26239     N
N      0.32562  0.70257   0.6886     N
N      0.32562  0.79743   0.1886     N
N      0.42938  0.55915  0.05486     N
N      0.42938  0.94085  0.55486     N
N      0.48162  0.62469  0.50742     N
N      0.48162  0.87531  0.00742     N
N          0.5      0.0      0.0     N
N          0.5      0.0      0.5     N
N          0.5      0.5      0.0     N
N          0.5      0.5      0.5     N
N      0.51838  0.12469  0.99258     N
N      0.51838  0.37531  0.49258     N
N      0.57062  0.05915  0.44514     N
N      0.57062  0.44085  0.94514     N
N      0.67438  0.20257   0.8114     N
N      0.67438  0.29743   0.3114     N
N      0.73063   0.1999  0.73761     N
N      0.73063   0.3001  0.23761     N
Mn     0.74298  0.24841  0.48922    Mn
Mn     0.74298  0.25159  0.98922    Mn
N      0.78652  0.19322  0.66388     N
N      0.78652  0.30678  0.16388     N
N      0.89268  0.05357  0.02789     N
N      0.89268  0.44643  0.52789     N
N        0.957  0.11974  0.48176     N
N        0.957  0.38026  0.98176     N
