data_I
_chemical_name_common  '/home/zhangsd/repos/MofS-CGCNN/ML/data/SSD/clean_cifs/BOCTOE03_clean'
_cell_length_a  8.46400
_cell_length_b  9.32400
_cell_length_c 12.88200
_cell_angle_alpha 90.00000
_cell_angle_beta  105.46600
_cell_angle_gamma 90.00000
_space_group_name_H-M_alt      'P 1'


loop_
_space_group_symop_operation_xyz
  'x, y, z' 

loop_
_atom_site_label
_atom_site_fract_x
_atom_site_fract_y
_atom_site_fract_z
_atom_site_type_symbol
N          0.0      0.0      0.0     N
N          0.0      0.0      0.5     N
N          0.0      0.5      0.0     N
N          0.0      0.5      0.5     N
N       0.0418  0.61941  0.01519     N
N       0.0418  0.88059  0.51519     N
N       0.1037  0.55545  0.47035     N
N       0.1037  0.94455  0.97035     N
N       0.2122   0.6961  0.83465     N
N       0.2122   0.8039  0.33465     N
Mn     0.25567  0.74878  0.00907    Mn
Mn     0.25567  0.75122  0.50907    Mn
N      0.26524  0.70219  0.76021     N
N      0.26524  0.79781  0.26021     N
N       0.3192   0.7035  0.68576     N
N       0.3192   0.7965  0.18576     N
N       0.4263  0.56029  0.05178     N
N       0.4263  0.93971  0.55178     N
N      0.47881  0.62343  0.50673     N
N      0.47881  0.87657  0.00673     N
N          0.5      0.0      0.0     N
N          0.5      0.0      0.5     N
N          0.5      0.5      0.0     N
N          0.5      0.5      0.5     N
N      0.52119  0.12343  0.99327     N
N      0.52119  0.37657  0.49327     N
N       0.5737  0.06029  0.44822     N
N       0.5737  0.43971  0.94822     N
N       0.6808   0.2035  0.81424     N
N       0.6808   0.2965  0.31424     N
N      0.73476  0.20219  0.73979     N
N      0.73476  0.29781  0.23979     N
Mn     0.74433  0.24878  0.49093    Mn
Mn     0.74433  0.25122  0.99093    Mn
N       0.7878   0.1961  0.66535     N
N       0.7878   0.3039  0.16535     N
N       0.8963  0.05545  0.02965     N
N       0.8963  0.44455  0.52965     N
N       0.9582  0.11941  0.48481     N
N       0.9582  0.38059  0.98481     N
