data_I
_chemical_name_common  '/home/zhangsd/repos/MofS-CGCNN/ML/data/SSD/clean_cifs/BOCTEU01_clean'
_cell_length_a 12.14910
_cell_length_b 12.28400
_cell_length_c 12.21600
_cell_angle_alpha 90.00000
_cell_angle_beta  90.00000
_cell_angle_gamma 90.00000
_space_group_name_H-M_alt      'P 1'


loop_
_space_group_symop_operation_xyz
  'x, y, z' 

loop_
_atom_site_label
_atom_site_fract_x
_atom_site_fract_y
_atom_site_fract_z
_atom_site_type_symbol
N          0.0   0.0133   0.8299     N
N          0.0   0.0593   0.2302     N
N          0.0   0.1309   0.2895     N
N          0.0   0.1709   0.6248     N
Mn         0.0  0.19206  0.80544    Mn
N          0.0    0.201   0.9853     N
N          0.0   0.2346   0.5545     N
N          0.0   0.2654   0.0545     N
N          0.0    0.299   0.4853     N
Mn         0.0  0.30794  0.30544    Mn
N          0.0   0.3291   0.1248     N
N          0.0   0.3691   0.7895     N
N          0.0   0.4407   0.7302     N
N          0.0   0.4867   0.3299     N
N          0.0   0.5133   0.6701     N
N          0.0   0.5593   0.2698     N
N          0.0   0.6309   0.2105     N
N          0.0   0.6709   0.8752     N
Mn         0.0  0.69206  0.69456    Mn
N          0.0    0.701   0.5147     N
N          0.0   0.7346   0.9455     N
N          0.0   0.7654   0.4455     N
N          0.0    0.799   0.0147     N
Mn         0.0  0.80794  0.19456    Mn
N          0.0   0.8291   0.3752     N
N          0.0   0.8691   0.7105     N
N          0.0   0.9407   0.7698     N
N          0.0   0.9867   0.1701     N
N       0.1815   0.1825    0.814     N
N       0.1815   0.3175    0.314     N
N       0.1815   0.6825    0.686     N
N       0.1815   0.8175    0.186     N
N         0.25   0.1835     0.75     N
N         0.25   0.3165     0.25     N
N         0.25   0.6835     0.75     N
N         0.25   0.8165     0.25     N
N       0.3185   0.1825    0.686     N
N       0.3185   0.3175    0.186     N
N       0.3185   0.6825    0.814     N
N       0.3185   0.8175    0.314     N
N          0.5   0.0133   0.6701     N
N          0.5   0.0593   0.2698     N
N          0.5   0.1309   0.2105     N
N          0.5   0.1709   0.8752     N
Mn         0.5  0.19206  0.69456    Mn
N          0.5    0.201   0.5147     N
N          0.5   0.2346   0.9455     N
N          0.5   0.2654   0.4455     N
N          0.5    0.299   0.0147     N
Mn         0.5  0.30794  0.19456    Mn
N          0.5   0.3291   0.3752     N
N          0.5   0.3691   0.7105     N
N          0.5   0.4407   0.7698     N
N          0.5   0.4867   0.1701     N
N          0.5   0.5133   0.8299     N
N          0.5   0.5593   0.2302     N
N          0.5   0.6309   0.2895     N
N          0.5   0.6709   0.6248     N
Mn         0.5  0.69206  0.80544    Mn
N          0.5    0.701   0.9853     N
N          0.5   0.7346   0.5545     N
N          0.5   0.7654   0.0545     N
N          0.5    0.799   0.4853     N
Mn         0.5  0.80794  0.30544    Mn
N          0.5   0.8291   0.1248     N
N          0.5   0.8691   0.7895     N
N          0.5   0.9407   0.7302     N
N          0.5   0.9867   0.3299     N
N       0.6815   0.1825    0.686     N
N       0.6815   0.3175    0.186     N
N       0.6815   0.6825    0.814     N
N       0.6815   0.8175    0.314     N
N         0.75   0.1835     0.75     N
N         0.75   0.3165     0.25     N
N         0.75   0.6835     0.75     N
N         0.75   0.8165     0.25     N
N       0.8185   0.1825    0.814     N
N       0.8185   0.3175    0.314     N
N       0.8185   0.6825    0.686     N
N       0.8185   0.8175    0.186     N
