data_I
_chemical_name_common  '/home/zhangsd/repos/MofS-CGCNN/ML/data/SSD/clean_cifs/BOLZIN_clean'
_cell_length_a 38.12770
_cell_length_b 38.12770
_cell_length_c 38.12770
_cell_angle_alpha 109.47100
_cell_angle_beta  109.47100
_cell_angle_gamma 109.47100
_space_group_name_H-M_alt      'P 1'


loop_
_space_group_symop_operation_xyz
  'x, y, z' 

loop_
_atom_site_label
_atom_site_fract_x
_atom_site_fract_y
_atom_site_fract_z
_atom_site_type_symbol
O          0.0      0.0  0.44466     O
O          0.0      0.0  0.55534     O
O          0.0  0.44466      0.0     O
O          0.0  0.55534      0.0     O
C      0.00356   0.2201  0.28026     C
C      0.00356   0.7233  0.78346     C
O      0.00484  0.05751  0.50235     O
O      0.00484  0.50249  0.94733     O
Zr     0.00507  0.05874  0.55879    Zr
Zr     0.00507  0.44628  0.94633    Zr
C      0.00691   0.0751  0.43197     C
C      0.00691  0.57494  0.93181     C
C      0.01006  0.09993  0.40953     C
C      0.01006  0.60053  0.91013     C
C       0.0153   0.2506   0.2659     C
C       0.0153   0.7494   0.7647     C
C      0.01678  0.14687  0.36811     C
C      0.01678  0.64867  0.86991     C
C      0.02075  0.17388  0.34807     C
C      0.02075  0.67268  0.84687     C
C      0.02357  0.38393  0.14344     C
C      0.02357  0.88013  0.63964     C
C      0.02625  0.40719  0.12272     C
C      0.02625  0.90353  0.61906     C
C      0.02672  0.19514  0.33198     C
C      0.02672  0.69474  0.83158     C
O      0.03008  0.45353  0.08023     O
O      0.03008  0.94985  0.57655     O
O      0.03505  0.57669  0.12246     O
O      0.03505  0.91259  0.45836     O
C      0.03665  0.22173  0.31312     C
C      0.03665  0.72353  0.81492     C
O      0.03823  0.62272  0.08073     O
O      0.03823   0.9575  0.41551     O
C      0.04071  0.30531   0.2346     C
C      0.04071  0.80611   0.7354     C
O       0.0425  0.08073  0.45801     O
O       0.0425  0.58449  0.96177     O
H       0.0488     0.39   0.1666     H
H       0.0488   0.8822   0.6588     H
C      0.04892  0.12771  0.41741     C
C      0.04892  0.63151  0.92121     C
H        0.049   0.3248   0.2248     H
H        0.049   0.8242   0.7242     H
H       0.0495   0.6239   0.1932     H
H       0.0495   0.8563   0.4256     H
O      0.05015  0.08023   0.6267     O
O      0.05015  0.42345  0.96992     O
O      0.05253  0.12616  0.58393     O
O      0.05253   0.4686  0.92637     O
O      0.05267  0.55516  0.05751     O
O      0.05267  0.99516  0.49751     O
C      0.05294  0.15118  0.39676     C
C      0.05294  0.65618  0.90176     C
H       0.0536    0.429   0.1312     H
H       0.0536   0.9224   0.6246     H
Zr     0.05367  0.49995  0.05874    Zr
Zr     0.05367  0.99493  0.55372    Zr
H       0.0568   0.6932    0.131     H
H       0.0568   0.9258   0.3636     H
O      0.05751  0.05267  0.55516     O
O      0.05751  0.50235  0.00484     O
Zr     0.05874  0.05367  0.49995    Zr
Zr     0.05874  0.55879  0.00507    Zr
C      0.06016   0.2767  0.28026     C
C      0.06016   0.7799  0.78346     C
C      0.06229   0.5683  0.14225     C
C      0.06229  0.92004  0.49399     C
C      0.06819  0.64313   0.0751     C
C      0.06819  0.99309  0.42506     C
C      0.07071  0.30531   0.2646     C
C      0.07071  0.80611   0.7654     C
C      0.07201  0.62104  0.21005     C
C      0.07201  0.86196  0.45097     C
O      0.07363  0.54223  0.12616     O
O      0.07363  0.94747   0.5314     O
H       0.0742    0.131   0.4378     H
H       0.0742   0.6364   0.9432     H
C       0.0751  0.06819  0.64313     C
C       0.0751  0.43197  0.00691     C
H       0.0776   0.1312   0.7022     H
H       0.0776   0.3754   0.9464     H
C      0.07879   0.7103  0.12771     C
C      0.07879  0.95108  0.36849     C
C       0.0798   0.2494   0.3292     C
C       0.0798   0.7506   0.8304     C
C      0.07996  0.14225  0.57395     C
C      0.07996  0.50601  0.93771     C
O      0.08023  0.03008  0.45353     O
O      0.08023   0.6267  0.05015     O
H       0.0805   0.1699   0.4024     H
H       0.0805   0.6781   0.9106     H
O      0.08073  0.03823  0.62272     O
O      0.08073  0.45801   0.0425     O
C      0.08318  0.59268  0.19032     C
C      0.08318  0.89286   0.4905     C
H       0.0832   0.2024   0.6382     H
H       0.0832    0.445   0.8808     H
O      0.08741  0.12246  0.54577     O
O      0.08741  0.54164  0.96495     O
H       0.0894   0.7675   0.1699     H
H       0.0894   0.9195   0.3219     H
C      0.08987   0.6904  0.09993     C
C      0.08987  0.98994  0.39947     C
H       0.0899    0.669   0.2683     H
H       0.0899   0.8216   0.4209     H
C      0.09139  0.27647  0.31312     C
C      0.09139  0.77827  0.81492     C
C      0.09393  0.64596  0.25489     C
C      0.09393  0.83904  0.44797     C
C      0.09647  0.12272  0.71553     C
C      0.09647  0.38094  0.97375     C
C      0.09824  0.75442  0.15118     C
C      0.09824  0.94706  0.34382     C
C      0.09993  0.08987   0.6904     C
C      0.09993  0.40953  0.01006     C
H          0.1   0.3248   0.2758     H
H          0.1   0.8242   0.7752     H
H       0.1013   0.2498   0.3511     H
H       0.1013   0.7502   0.8515     H
C      0.10324  0.21513  0.63049     C
C      0.10324  0.47275  0.88811     C
C      0.10714  0.19032  0.59764     C
C      0.10714   0.5095  0.91682     C
C      0.11189  0.58464  0.21513     C
C      0.11189  0.89676  0.52725     C
H       0.1178   0.1666   0.7766     H
H       0.1178   0.3412   0.9512     H
H       0.1192   0.5642   0.2024     H
H       0.1192   0.9168    0.555     H
C      0.11987  0.14344  0.75951     C
C      0.11987  0.36036  0.97643     C
C      0.12045  0.63685   0.2787     C
C      0.12045  0.84175   0.4836     C
O      0.12246  0.03505  0.57669     O
O      0.12246  0.54577  0.08741     O
C      0.12272  0.02625  0.40719     C
C      0.12272  0.71553  0.09647     C
O      0.12616  0.07363  0.54223     O
O      0.12616  0.58393  0.05253     O
C      0.12771  0.07879   0.7103     C
C      0.12771  0.41741  0.04892     C
H       0.1289   0.2793   0.6752     H
H       0.1289   0.4537   0.8496     H
C      0.13009  0.77876  0.14687     C
C      0.13009  0.98322  0.35133     C
C      0.13055  0.60884  0.26139     C
C      0.13055  0.86916  0.52171     C
C      0.13084  0.26139  0.65255     C
C      0.13084  0.47829  0.86945     C
H        0.131   0.0568   0.6932     H
H        0.131   0.4378   0.0742     H
H       0.1312   0.0536    0.429     H
H       0.1312   0.7022   0.0776     H
H       0.1364   0.7371   0.3993     H
C      0.13684  0.30526  0.33198     C
C      0.13684  0.80486  0.83158     C
C      0.13804  0.21005  0.58901     C
C      0.13804  0.54903  0.92799     C
C      0.14225  0.06229   0.5683     C
C      0.14225  0.57395  0.07996     C
C      0.14234   0.6631  0.32524     C
C      0.14234   0.8171  0.47924     C
C      0.14344  0.02357  0.38393     C
C      0.14344  0.75951  0.11987     C
H       0.1437   0.1932   0.5693     H
H       0.1437   0.5744   0.9505     H
C      0.14687  0.13009  0.77876     C
C      0.14687  0.36811  0.01678     C
H       0.1485   0.8987   0.2498     H
H       0.1504   0.6041   0.2793     H
H       0.1504   0.8711   0.5463     H
C      0.15118  0.09824  0.75442     C
C      0.15118  0.39676  0.05294     C
C      0.15313  0.82581  0.17388     C
C      0.15313  0.97925  0.32732     C
C      0.15716   0.6836  0.36416     C
C      0.15716    0.793  0.47356     C
C       0.1581   0.7372   0.4209     C
C      0.15825   0.2787  0.64185     C
C      0.15825   0.5164  0.87955     C
C      0.16096  0.25489  0.60893     C
C      0.16096  0.55203  0.90607     C
H       0.1666   0.0488     0.39     H
H       0.1666   0.7766   0.1178     H
C      0.16842  0.86316  0.19514     C
C      0.16842  0.97328  0.30526     C
C       0.1696   0.9202   0.2494     C
H       0.1699   0.0894   0.7675     H
H       0.1699   0.4024   0.0805     H
C      0.17329  0.71009  0.40878     C
C      0.17329  0.76451   0.4632     C
C      0.17388  0.15313  0.82581     C
C      0.17388  0.34807  0.02075     C
C      0.17419  0.32732  0.34807     C
C      0.17419  0.82612  0.84687     C
H       0.1758   0.2248      0.9     H
H       0.1758   0.2758    0.951     H
H       0.1784   0.2683   0.5993     H
H       0.1784   0.5791   0.9101     H
C       0.1829  0.32524  0.66214     C
C       0.1829  0.52076  0.85766     C
C      0.18508  0.90861  0.22173     C
C      0.18508  0.96335  0.27647     C
H       0.1877   0.3974   0.7355     H
H       0.1877   0.4522   0.7903     H
C      0.19032  0.08318  0.59268     C
C      0.19032  0.59764  0.10714     C
H       0.1932   0.0495   0.6239     H
H       0.1932   0.5693   0.1437     H
C      0.19389   0.2346  0.92929     C
C      0.19389   0.2646  0.95929     C
C      0.19514  0.16842  0.86316     C
C      0.19514  0.33198  0.02672     C
H       0.2024   0.1192   0.5642     H
H       0.2024   0.6382   0.0832     H
C      0.20549   0.7084  0.44009     C
C      0.20549   0.7654  0.49709     C
C      0.20634    0.427  0.74666     C
C      0.20634  0.45968  0.77934     C
C        0.207  0.36416  0.68056     C
C        0.207  0.52644  0.84284     C
H       0.2097   0.6619   0.3974     H
H       0.2097   0.8123   0.5478     H
C      0.21005  0.07201  0.62104     C
C      0.21005  0.58901  0.13804     C
C      0.21513  0.11189  0.58464     C
C      0.21513  0.63049  0.10324     C
C      0.21654  0.93984   0.2201     C
C      0.21654  0.99644   0.2767     C
C      0.22005   0.7362  0.48385     C
C       0.2201  0.21654  0.93984     C
C       0.2201  0.28026  0.00356     C
C      0.22066  0.68034    0.427     C
C      0.22066  0.79366  0.54032     C
C      0.22124  0.35133  0.36811     C
C      0.22124  0.85313  0.86991     C
C      0.22173  0.18508  0.90861     C
C      0.22173  0.31312  0.03665     C
H       0.2234     0.39   0.3412     H
H       0.2234   0.8822   0.8334     H
H       0.2248    0.049   0.3248     H
H       0.2248      0.9   0.1758     H
H       0.2325   0.3219   0.4024     H
H       0.2325   0.8301   0.9106     H
C       0.2346  0.04071  0.30531     C
C       0.2346  0.44009  0.73169     C
C       0.2346  0.50291  0.79451     C
C       0.2346  0.92929  0.19389     C
C       0.2353   0.9847   0.2506     C
C      0.23549  0.40878  0.69869     C
C      0.23549   0.5368  0.82671     C
C      0.24049  0.38393  0.36036     C
C      0.24049  0.88013  0.85656     C
C      0.24558  0.34382  0.39676     C
C      0.24558  0.84882  0.90176     C
C       0.2494   0.1696   0.9202     C
C       0.2494   0.3292   0.0798     C
H       0.2498   0.1485   0.8987     H
H       0.2498   0.3511   0.1013     H
C       0.2506   0.2353   0.9847     C
C       0.2506   0.2659   0.0153     C
C      0.25235   0.7362  0.51615     C
C      0.25334  0.68034  0.45968     C
C      0.25334  0.79366    0.573     C
C      0.25489  0.09393  0.64596     C
C      0.25489  0.60893  0.16096     C
C      0.26139  0.13055  0.60884     C
C      0.26139  0.65255  0.13084     C
C       0.2628   0.4209   0.6837     C
C       0.2628   0.5791   0.8419     C
H       0.2629   0.3993   0.6622     H
H       0.2629   0.6007   0.8636     H
C       0.2638  0.48385  0.74765     C
C       0.2638  0.51615  0.77995     C
H       0.2645   0.6619   0.4522     H
H       0.2645   0.8123   0.6026     H
C       0.2646  0.07071  0.30531     C
C       0.2646  0.95929  0.19389     C
C       0.2659   0.0153   0.2506     C
H       0.2683   0.0899    0.669     H
H       0.2683   0.5993   0.1784     H
C      0.26831   0.7084  0.50291     C
C      0.26831   0.7654  0.55991     C
H       0.2758      0.1   0.3248     H
H       0.2758    0.951   0.1758     H
C      0.27647  0.18508  0.96335     C
C      0.27647  0.31312  0.09139     C
C       0.2767  0.21654  0.99644     C
C       0.2767  0.28026  0.06016     C
C       0.2787  0.12045  0.63685     C
C       0.2787  0.64185  0.15825     C
H       0.2793   0.1504   0.6041     H
H       0.2793   0.6752   0.1289     H
C      0.28026  0.00356   0.2201     C
C      0.28026  0.06016   0.2767     C
C      0.28447  0.40719  0.38094     C
C      0.28447  0.90353  0.87728     C
C       0.2897  0.36849  0.41741     C
C       0.2897  0.87229  0.92121     C
C      0.28991   0.4632  0.69869     C
C      0.28991  0.59122  0.82671     C
C       0.2916  0.49709  0.73169     C
C       0.2916  0.55991  0.79451     C
H       0.2978    0.429   0.3754     H
H       0.2978   0.9224   0.8688     H
C      0.30131  0.71009   0.5368     C
C      0.30131  0.76451  0.59122     C
C      0.30526  0.16842  0.97328     C
C      0.30526  0.33198  0.13684     C
C      0.30531   0.2346  0.04071     C
C      0.30531   0.2646  0.07071     C
H       0.3068   0.3636   0.4378     H
H       0.3068    0.869   0.9432     H
C       0.3096  0.39947  0.40953     C
C       0.3096  0.90007  0.91013     C
C      0.31312  0.03665  0.22173     C
C      0.31312  0.09139  0.27647     C
C       0.3163   0.7372   0.5791     C
C       0.3164  0.47356  0.68056     C
C       0.3164  0.63584  0.84284     C
C      0.31944   0.6836  0.52644     C
C      0.31944    0.793  0.63584     C
C      0.31966  0.54032  0.74666     C
C      0.31966    0.573  0.77934     C
H       0.3219   0.0894   0.9195     H
H       0.3219   0.4024   0.2325     H
H       0.3248   0.2248    0.049     H
H       0.3248   0.2758      0.1     H
H       0.3248   0.6041   0.4537     H
H       0.3248   0.8711   0.7207     H
C      0.32524  0.14234   0.6631     C
C      0.32524  0.66214   0.1829     C
C      0.32732  0.15313  0.97925     C
C      0.32732  0.34807  0.17419     C
C       0.3292   0.0798   0.2494     C
H        0.331   0.4209   0.5993     H
H        0.331   0.7317   0.9101     H
C      0.33198  0.02672  0.19514     C
C      0.33198  0.13684  0.30526     C
C       0.3369  0.47924  0.66214     C
C       0.3369  0.67476  0.85766     C
H       0.3378   0.7371   0.6007     H
C      0.33786   0.6631  0.52076     C
C      0.33786   0.8171  0.67476     C
H       0.3381   0.5478   0.7355     H
H       0.3381   0.6026   0.7903     H
H       0.3412   0.2234     0.39     H
H       0.3412   0.9512   0.1178     H
C      0.34382  0.09824  0.94706     C
C      0.34382  0.39676  0.24558     C
C      0.34745  0.60884  0.47829     C
C      0.34745  0.86916  0.73861     C
C      0.34807  0.02075  0.17388     C
C      0.34807  0.17419  0.32732     C
H       0.3511   0.1013   0.2498     H
C      0.35133  0.13009  0.98322     C
C      0.35133  0.36811  0.22124     C
C      0.35404  0.44797  0.60893     C
C      0.35404  0.74511  0.90607     C
C      0.35687  0.42506  0.43197     C
C      0.35687   0.9249  0.93181     C
C      0.35815  0.63685   0.5164     C
C      0.35815  0.84175   0.7213     C
C      0.36036  0.24049  0.38393     C
C      0.36036  0.97643  0.11987     C
H       0.3618   0.5642    0.445     H
H       0.3618   0.9168   0.7976     H
C      0.36315   0.4836  0.64185     C
C      0.36315   0.7213  0.87955     C
H       0.3636   0.0568   0.9258     H
H       0.3636   0.4378   0.3068     H
C      0.36416  0.15716   0.6836     C
C      0.36416  0.68056    0.207     C
C      0.36811  0.01678  0.14687     C
C      0.36811  0.22124  0.35133     C
C      0.36849  0.07879  0.95108     C
C      0.36849  0.41741   0.2897     C
C      0.36951  0.58464  0.47275     C
C      0.36951  0.89676  0.78487     C
O       0.3733  0.45353  0.42345     O
O       0.3733  0.94985  0.91977     O
H       0.3754   0.2978    0.429     H
H       0.3754   0.9464   0.0776     H
H       0.3761   0.4256   0.5693     H
H       0.3761   0.8068   0.9505     H
O      0.37728  0.41551  0.45801     O
O      0.37728  0.91927  0.96177     O
C      0.37896  0.45097  0.58901     C
C      0.37896  0.78995  0.92799     C
C      0.38094  0.28447  0.40719     C
C      0.38094  0.97375  0.09647     C
C      0.38393  0.14344  0.02357     C
C      0.38393  0.36036  0.24049     C
H         0.39   0.1666   0.0488     H
H         0.39   0.3412   0.2234     H
C      0.39107  0.64596  0.55203     C
C      0.39107  0.83904  0.74511     C
C      0.39116  0.52171  0.65255     C
C      0.39116  0.73861  0.86945     C
H       0.3959   0.5463   0.6752     H
H       0.3959   0.7207   0.8496     H
C      0.39676  0.05294  0.15118     C
C      0.39676  0.24558  0.34382     C
H       0.3974   0.2097   0.6619     H
H       0.3974   0.7355   0.1877     H
H       0.3993   0.1364   0.7371     H
H       0.3993   0.6622   0.2629     H
C      0.39947  0.08987  0.98994     C
C      0.39947  0.40953   0.3096     C
H       0.4007    0.669   0.5791     H
H       0.4007   0.8216   0.7317     H
C      0.40236  0.59268   0.5095     C
C      0.40236  0.89286  0.80968     C
H       0.4024   0.0805   0.1699     H
H       0.4024   0.2325   0.3219     H
C      0.40719  0.12272  0.02625     C
C      0.40719  0.38094  0.28447     C
C      0.40732   0.4905  0.59764     C
C      0.40732  0.80968  0.91682     C
C      0.40878  0.17329  0.71009     C
C      0.40878  0.69869  0.23549     C
C      0.40953  0.01006  0.09993     C
C      0.40953   0.3096  0.39947     C
C      0.41099  0.62104  0.54903     C
C      0.41099  0.86196  0.78995     C
C      0.41536  0.52725  0.63049     C
C      0.41536  0.78487  0.88811     C
O      0.41551  0.03823   0.9575     O
O      0.41551  0.45801  0.37728     O
O      0.41607  0.54223   0.4686     O
O      0.41607  0.94747  0.87384     O
C      0.41741  0.04892  0.12771     C
C      0.41741   0.2897  0.36849     C
H       0.4209   0.0899   0.8216     H
C       0.4209   0.1581   0.7372     C
H       0.4209   0.5993    0.331     H
C       0.4209   0.6837   0.2628     C
O      0.42331  0.45836  0.54577     O
O      0.42331  0.87754  0.96495     O
O      0.42345   0.3733  0.45353     O
O      0.42345  0.96992  0.05015     O
C      0.42506  0.06819  0.99309     C
C      0.42506  0.43197  0.35687     C
H       0.4256   0.0495   0.8563     H
H       0.4256   0.5693   0.3761     H
C      0.42605   0.5683  0.50601     C
C      0.42605  0.92004  0.85775     C
C        0.427  0.22066  0.68034     C
C        0.427  0.74666  0.20634     C
H        0.429   0.1312   0.0536     H
H        0.429   0.3754   0.2978     H
H       0.4307   0.6239   0.5744     H
H       0.4307   0.8563   0.8068     H
C       0.4317  0.49399  0.57395     C
C       0.4317  0.85775  0.93771     C
C      0.43197  0.00691   0.0751     C
C      0.43197  0.35687  0.42506     C
H       0.4358    0.555   0.6382     H
H       0.4358   0.7976   0.8808     H
H       0.4378   0.0742    0.131     H
H       0.4378   0.3068   0.3636     H
C      0.44009  0.20549   0.7084     C
C      0.44009  0.73169   0.2346     C
Zr     0.44121  0.49995  0.44628    Zr
Zr     0.44121  0.99493  0.94126    Zr
O      0.44466      0.0      0.0     O
O      0.44466  0.44466  0.44466     O
O      0.44484  0.49751  0.50235     O
O      0.44484  0.94249  0.94733     O
H        0.445   0.3618   0.5642     H
H        0.445   0.8808   0.0832     H
Zr     0.44628  0.44121  0.49995    Zr
Zr     0.44628  0.94633  0.00507    Zr
C      0.44797  0.09393  0.83904     C
C      0.44797  0.60893  0.35404     C
C      0.45097  0.07201  0.86196     C
C      0.45097  0.58901  0.37896     C
H       0.4522   0.2645   0.6619     H
H       0.4522   0.7903   0.1877     H
O      0.45353  0.08023  0.03008     O
O      0.45353  0.42345   0.3733     O
H       0.4537   0.3248   0.6041     H
H       0.4537   0.8496   0.1289     H
O      0.45423  0.57669  0.54164     O
O      0.45423  0.91259  0.87754     O
O      0.45777   0.5314  0.58393     O
O      0.45777  0.87384  0.92637     O
O      0.45801   0.0425  0.08073     O
O      0.45801  0.37728  0.41551     O
O      0.45836  0.03505  0.91259     O
O      0.45836  0.54577  0.42331     O
C      0.45968  0.25334  0.68034     C
C      0.45968  0.77934  0.20634     C
C       0.4632  0.17329  0.76451     C
C       0.4632  0.69869  0.28991     C
O       0.4686  0.41607  0.54223     O
O       0.4686  0.92637  0.05253     O
C      0.47275  0.36951  0.58464     C
C      0.47275  0.88811  0.10324     C
C      0.47356  0.15716    0.793     C
C      0.47356  0.68056   0.3164     C
C      0.47829  0.34745  0.60884     C
C      0.47829  0.86945  0.13084     C
C      0.47924  0.14234   0.8171     C
C      0.47924  0.66214   0.3369     C
C       0.4836  0.12045  0.84175     C
C       0.4836  0.64185  0.36315     C
C      0.48385  0.22005   0.7362     C
C      0.48385  0.74765   0.2638     C
C       0.4905  0.08318  0.89286     C
C       0.4905  0.59764  0.40732     C
C      0.49399  0.06229  0.92004     C
C      0.49399  0.57395   0.4317     C
C      0.49709  0.20549   0.7654     C
C      0.49709  0.73169   0.2916     C
O      0.49751  0.05267  0.99516     O
O      0.49751  0.50235  0.44484     O
O      0.49765  0.55516  0.50249     O
O      0.49765  0.99516  0.94249     O
Zr     0.49995  0.05874  0.05367    Zr
Zr     0.49995  0.44628  0.44121    Zr
Zr     0.50005  0.55372  0.55879    Zr
Zr     0.50005  0.94126  0.94633    Zr
O      0.50235  0.00484  0.05751     O
O      0.50235  0.44484  0.49751     O
O      0.50249  0.49765  0.55516     O
O      0.50249  0.94733  0.00484     O
C      0.50291  0.26831   0.7084     C
C      0.50291  0.79451   0.2346     C
C      0.50601  0.42605   0.5683     C
C      0.50601  0.93771  0.07996     C
C       0.5095  0.40236  0.59268     C
C       0.5095  0.91682  0.10714     C
C      0.51615  0.25235   0.7362     C
C      0.51615  0.77995   0.2638     C
C       0.5164  0.35815  0.63685     C
C       0.5164  0.87955  0.15825     C
C      0.52076  0.33786   0.6631     C
C      0.52076  0.85766   0.1829     C
C      0.52171  0.13055  0.86916     C
C      0.52171  0.65255  0.39116     C
C      0.52644  0.31944   0.6836     C
C      0.52644  0.84284    0.207     C
C      0.52725  0.11189  0.89676     C
C      0.52725  0.63049  0.41536     C
O       0.5314  0.07363  0.94747     O
O       0.5314  0.58393  0.45777     O
C       0.5368  0.30131  0.71009     C
C       0.5368  0.82671  0.23549     C
C      0.54032  0.22066  0.79366     C
C      0.54032  0.74666  0.31966     C
O      0.54164  0.45423  0.57669     O
O      0.54164  0.96495  0.08741     O
O      0.54199  0.62272  0.58449     O
O      0.54199   0.9575  0.91927     O
O      0.54223  0.12616  0.07363     O
O      0.54223   0.4686  0.41607     O
O      0.54577  0.08741  0.12246     O
O      0.54577  0.42331  0.45836     O
H       0.5463   0.1504   0.8711     H
H       0.5463   0.6752   0.3959     H
O      0.54647  0.57655   0.6267     O
O      0.54647  0.91977  0.96992     O
H       0.5478   0.2097   0.8123     H
H       0.5478   0.7355   0.3381     H
C      0.54903  0.41099  0.62104     C
C      0.54903  0.92799  0.13804     C
C      0.55203  0.39107  0.64596     C
C      0.55203  0.90607  0.16096     C
Zr     0.55372  0.05367  0.99493    Zr
Zr     0.55372  0.55879  0.50005    Zr
H        0.555   0.1192   0.9168     H
H        0.555   0.6382   0.4358     H
O      0.55516  0.05751  0.05267     O
O      0.55516  0.50249  0.49765     O
O      0.55534      0.0      0.0     O
O      0.55534  0.55534  0.55534     O
Zr     0.55879  0.00507  0.05874    Zr
Zr     0.55879  0.50005  0.55372    Zr
C      0.55991  0.26831   0.7654     C
C      0.55991  0.79451   0.2916     C
H       0.5622   0.6932   0.6364     H
H       0.5622   0.9258    0.869     H
H       0.5642   0.2024   0.1192     H
H       0.5642    0.445   0.3618     H
C      0.56803  0.64313  0.57494     C
C      0.56803  0.99309   0.9249     C
C       0.5683  0.14225  0.06229     C
C       0.5683  0.50601  0.42605     C
H       0.5693   0.1437   0.1932     H
H       0.5693   0.3761   0.4256     H
H        0.571   0.6246   0.7022     H
H        0.571   0.8688   0.9464     H
C        0.573  0.25334  0.79366     C
C        0.573  0.77934  0.31966     C
C      0.57395  0.07996  0.14225     C
C      0.57395   0.4317  0.49399     C
H       0.5744   0.4307   0.6239     H
H       0.5744   0.9505   0.1437     H
C      0.57494  0.56803  0.64313     C
C      0.57494  0.93181  0.00691     C
O      0.57655  0.03008  0.94985     O
O      0.57655   0.6267  0.54647     O
O      0.57669  0.12246  0.03505     O
O      0.57669  0.54164  0.45423     O
C       0.5791   0.3163   0.7372     C
H       0.5791   0.4007    0.669     H
C       0.5791   0.8419   0.2628     C
H       0.5791   0.9101   0.1784     H
C      0.58259   0.7103  0.63151     C
C      0.58259  0.95108  0.87229     C
O      0.58393  0.05253  0.12616     O
O      0.58393  0.45777   0.5314     O
O      0.58449  0.54199  0.62272     O
O      0.58449  0.96177   0.0425     O
C      0.58464  0.21513  0.11189     C
C      0.58464  0.47275  0.36951     C
C      0.58901  0.13804  0.21005     C
C      0.58901  0.37896  0.45097     C
C      0.59047   0.6904  0.60053     C
C      0.59047  0.98994  0.90007     C
C      0.59122  0.30131  0.76451     C
C      0.59122  0.82671  0.28991     C
C      0.59268  0.19032  0.08318     C
C      0.59268   0.5095  0.40236     C
C      0.59281  0.61906  0.71553     C
C      0.59281  0.87728  0.97375     C
H       0.5976   0.7675   0.6781     H
H       0.5976   0.9195   0.8301     H
C      0.59764  0.10714  0.19032     C
C      0.59764  0.40732   0.4905     C
H       0.5993   0.1784   0.2683     H
H       0.5993    0.331   0.4209     H
C      0.60053  0.59047   0.6904     C
C      0.60053  0.91013  0.01006     C
H       0.6007   0.3378   0.7371     H
H       0.6007   0.8636   0.2629     H
H       0.6026   0.2645   0.8123     H
H       0.6026   0.7903   0.3381     H
C      0.60324  0.75442  0.65618     C
C      0.60324  0.94706  0.84882     C
H       0.6041   0.2793   0.1504     H
H       0.6041   0.4537   0.3248     H
C      0.60884  0.26139  0.13055     C
C      0.60884  0.47829  0.34745     C
C      0.60893  0.16096  0.25489     C
C      0.60893  0.35404  0.44797     C
H         0.61   0.6588   0.7766     H
H         0.61   0.8334   0.9512     H
C      0.61607  0.63964  0.75951     C
C      0.61607  0.85656  0.97643     C
C      0.61906  0.02625  0.90353     C
C      0.61906  0.71553  0.59281     C
C      0.62104  0.21005  0.07201     C
C      0.62104  0.54903  0.41099     C
O      0.62272  0.08073  0.03823     O
O      0.62272  0.58449  0.54199     O
H       0.6239   0.1932   0.0495     H
H       0.6239   0.5744   0.4307     H
H       0.6246   0.0536   0.9224     H
H       0.6246   0.7022    0.571     H
O       0.6267  0.05015  0.08023     O
O       0.6267  0.54647  0.57655     O
C      0.63049  0.10324  0.21513     C
C      0.63049  0.41536  0.52725     C
C      0.63151  0.58259   0.7103     C
C      0.63151  0.92121  0.04892     C
C      0.63189  0.77876  0.64867     C
C      0.63189  0.98322  0.85313     C
C      0.63584  0.31944    0.793     C
C      0.63584  0.84284   0.3164     C
H       0.6364   0.5622   0.6932     H
H       0.6364   0.9432   0.0742     H
C      0.63685   0.2787  0.12045     C
C      0.63685   0.5164  0.35815     C
H       0.6382   0.0832   0.2024     H
H       0.6382   0.4358    0.555     H
C      0.63964  0.02357  0.88013     C
C      0.63964  0.75951  0.61607     C
C      0.64185  0.15825   0.2787     C
C      0.64185  0.36315   0.4836     C
C      0.64313   0.0751  0.06819     C
C      0.64313  0.57494  0.56803     C
C      0.64596  0.25489  0.09393     C
C      0.64596  0.55203  0.39107     C
C      0.64867  0.63189  0.77876     C
C      0.64867  0.86991  0.01678     C
H       0.6489   0.8987   0.7502     H
C      0.65193  0.82581  0.67268     C
C      0.65193  0.97925  0.82612     C
C      0.65255  0.13084  0.26139     C
C      0.65255  0.39116  0.52171     C
C      0.65618  0.60324  0.75442     C
C      0.65618  0.90176  0.05294     C
H       0.6588   0.0488   0.8822     H
H       0.6588   0.7766     0.61     H
H       0.6619   0.3974   0.2097     H
H       0.6619   0.4522   0.2645     H
C      0.66214   0.1829  0.32524     C
C      0.66214   0.3369  0.47924     C
H       0.6622   0.2629   0.3993     H
C       0.6631  0.32524  0.14234     C
C       0.6631  0.52076  0.33786     C
C      0.66802  0.86316  0.69474     C
C      0.66802  0.97328  0.80486     C
H        0.669   0.2683   0.0899     H
H        0.669   0.5791   0.4007     H
C       0.6708   0.9202   0.7506     C
C      0.67268  0.65193  0.82581     C
C      0.67268  0.84687  0.02075     C
C      0.67476  0.33786   0.8171     C
C      0.67476  0.85766   0.3369     C
H       0.6752   0.1289   0.2793     H
H       0.6752   0.3959   0.5463     H
H       0.6752   0.7242      0.9     H
H       0.6752   0.7752    0.951     H
H       0.6781   0.5976   0.7675     H
H       0.6781   0.9106   0.0805     H
C      0.68034    0.427  0.22066     C
C      0.68034  0.45968  0.25334     C
C      0.68056    0.207  0.36416     C
C      0.68056   0.3164  0.47356     C
C       0.6836  0.36416  0.15716     C
C       0.6836  0.52644  0.31944     C
C       0.6837   0.2628   0.4209     C
C      0.68688  0.90861  0.72353     C
C      0.68688  0.96335  0.77827     C
C       0.6904  0.09993  0.08987     C
C       0.6904  0.60053  0.59047     C
H       0.6932    0.131   0.0568     H
H       0.6932   0.6364   0.5622     H
C      0.69469   0.7354  0.92929     C
C      0.69469   0.7654  0.95929     C
C      0.69474  0.66802  0.86316     C
C      0.69474  0.83158  0.02672     C
C      0.69869  0.23549  0.40878     C
C      0.69869  0.28991   0.4632     C
H       0.7022   0.0776   0.1312     H
H       0.7022    0.571   0.6246     H
C       0.7084  0.44009  0.20549     C
C       0.7084  0.50291  0.26831     C
C      0.71009  0.40878  0.17329     C
C      0.71009   0.5368  0.30131     C
C       0.7103  0.12771  0.07879     C
C       0.7103  0.63151  0.58259     C
C      0.71553  0.09647  0.12272     C
C      0.71553  0.59281  0.61906     C
C      0.71974  0.93984   0.7233     C
C      0.71974  0.99644   0.7799     C
H       0.7207   0.3248   0.8711     H
H       0.7207   0.8496   0.3959     H
C       0.7213  0.35815  0.84175     C
C       0.7213  0.87955  0.36315     C
C       0.7233  0.71974  0.93984     C
C       0.7233  0.78346  0.00356     C
C      0.72353  0.68688  0.90861     C
C      0.72353  0.81492  0.03665     C
H       0.7242    0.049   0.8242     H
H       0.7242      0.9   0.6752     H
C      0.73169   0.2346  0.44009     C
C      0.73169   0.2916  0.49709     C
H       0.7317   0.4007   0.8216     H
H       0.7317   0.9101    0.331     H
C       0.7341   0.9847   0.7494     C
C       0.7354  0.04071  0.80611     C
C       0.7354  0.92929  0.69469     C
H       0.7355   0.1877   0.3974     H
H       0.7355   0.3381   0.5478     H
C       0.7362  0.48385  0.22005     C
C       0.7362  0.51615  0.25235     C
H       0.7371   0.3993   0.1364     H
H       0.7371   0.6007   0.3378     H
C       0.7372   0.4209   0.1581     C
C       0.7372   0.5791   0.3163     C
C      0.73861  0.34745  0.86916     C
C      0.73861  0.86945  0.39116     C
C      0.74511  0.39107  0.83904     C
C      0.74511  0.90607  0.35404     C
C      0.74666  0.20634    0.427     C
C      0.74666  0.31966  0.54032     C
C      0.74765   0.2638  0.48385     C
C       0.7494   0.7341   0.9847     C
C       0.7494   0.7647   0.0153     C
H       0.7502   0.6489   0.8987     H
H       0.7502   0.8515   0.1013     H
C       0.7506   0.6708   0.9202     C
C       0.7506   0.8304   0.0798     C
C      0.75442  0.15118  0.09824     C
C      0.75442  0.65618  0.60324     C
C      0.75951  0.11987  0.14344     C
C      0.75951  0.61607  0.63964     C
C      0.76451   0.4632  0.17329     C
C      0.76451  0.59122  0.30131     C
C       0.7647   0.0153   0.7494     C
C       0.7654  0.07071  0.80611     C
C       0.7654  0.49709  0.20549     C
C       0.7654  0.55991  0.26831     C
C       0.7654  0.95929  0.69469     C
H       0.7675   0.1699   0.0894     H
H       0.7675   0.6781   0.5976     H
H       0.7752      0.1   0.8242     H
H       0.7752    0.951   0.6752     H
H       0.7766   0.1178   0.1666     H
H       0.7766     0.61   0.6588     H
C      0.77827  0.68688  0.96335     C
C      0.77827  0.81492  0.09139     C
C      0.77876  0.14687  0.13009     C
C      0.77876  0.64867  0.63189     C
C      0.77934  0.20634  0.45968     C
C      0.77934  0.31966    0.573     C
C       0.7799  0.71974  0.99644     C
C       0.7799  0.78346  0.06016     C
C      0.77995   0.2638  0.51615     C
C      0.78346  0.00356   0.7233     C
C      0.78346  0.06016   0.7799     C
C      0.78487  0.36951  0.89676     C
C      0.78487  0.88811  0.41536     C
C      0.78995  0.41099  0.86196     C
C      0.78995  0.92799  0.37896     C
H       0.7903   0.1877   0.4522     H
H       0.7903   0.3381   0.6026     H
C        0.793  0.47356  0.15716     C
C        0.793  0.63584  0.31944     C
C      0.79366  0.54032  0.22066     C
C      0.79366    0.573  0.25334     C
C      0.79451   0.2346  0.50291     C
C      0.79451   0.2916  0.55991     C
H       0.7976   0.3618   0.9168     H
H       0.7976   0.8808   0.4358     H
C      0.80486  0.66802  0.97328     C
C      0.80486  0.83158  0.13684     C
C      0.80611   0.7354  0.04071     C
C      0.80611   0.7654  0.07071     C
H       0.8068   0.4307   0.8563     H
H       0.8068   0.9505   0.3761     H
C      0.80968  0.40236  0.89286     C
C      0.80968  0.91682  0.40732     C
H       0.8123   0.5478   0.2097     H
H       0.8123   0.6026   0.2645     H
C      0.81492  0.03665  0.72353     C
C      0.81492  0.09139  0.77827     C
C       0.8171  0.47924  0.14234     C
C       0.8171  0.67476  0.33786     C
H       0.8216   0.4209   0.0899     H
H       0.8216   0.7317   0.4007     H
H       0.8242   0.7242    0.049     H
H       0.8242   0.7752      0.1     H
C      0.82581  0.17388  0.15313     C
C      0.82581  0.67268  0.65193     C
C      0.82612  0.65193  0.97925     C
C      0.82612  0.84687  0.17419     C
C      0.82671  0.23549   0.5368     C
C      0.82671  0.28991  0.59122     C
H       0.8301   0.5976   0.9195     H
H       0.8301   0.9106   0.2325     H
C       0.8304   0.0798   0.7506     C
C      0.83158  0.02672  0.69474     C
C      0.83158  0.13684  0.80486     C
H       0.8334   0.2234   0.8822     H
H       0.8334   0.9512     0.61     H
C      0.83904  0.44797  0.09393     C
C      0.83904  0.74511  0.39107     C
C      0.84175   0.4836  0.12045     C
C      0.84175   0.7213  0.35815     C
C       0.8419   0.2628   0.5791     C
C      0.84284    0.207  0.52644     C
C      0.84284   0.3164  0.63584     C
C      0.84687  0.02075  0.67268     C
C      0.84687  0.17419  0.82612     C
C      0.84882  0.60324  0.94706     C
C      0.84882  0.90176  0.24558     C
H       0.8496   0.1289   0.4537     H
H       0.8496   0.3959   0.7207     H
H       0.8515   0.1013   0.7502     H
C      0.85313  0.63189  0.98322     C
C      0.85313  0.86991  0.22124     C
H       0.8563   0.4256   0.0495     H
H       0.8563   0.8068   0.4307     H
C      0.85656  0.24049  0.88013     C
C      0.85656  0.97643  0.61607     C
C      0.85766   0.1829  0.52076     C
C      0.85766   0.3369  0.67476     C
C      0.85775  0.42605  0.92004     C
C      0.85775  0.93771   0.4317     C
C      0.86196  0.45097  0.07201     C
C      0.86196  0.78995  0.41099     C
C      0.86316  0.19514  0.16842     C
C      0.86316  0.69474  0.66802     C
H       0.8636   0.2629   0.6007     H
H       0.8688   0.2978   0.9224     H
H       0.8688   0.9464    0.571     H
H        0.869   0.5622   0.9258     H
H        0.869   0.9432   0.3068     H
C      0.86916  0.52171  0.13055     C
C      0.86916  0.73861  0.34745     C
C      0.86945  0.13084  0.47829     C
C      0.86945  0.39116  0.73861     C
C      0.86991  0.01678  0.64867     C
C      0.86991  0.22124  0.85313     C
H       0.8711   0.5463   0.1504     H
H       0.8711   0.7207   0.3248     H
C      0.87229  0.58259  0.95108     C
C      0.87229  0.92121   0.2897     C
O      0.87384  0.41607  0.94747     O
O      0.87384  0.92637  0.45777     O
C      0.87728  0.28447  0.90353     C
C      0.87728  0.97375  0.59281     C
O      0.87754  0.45423  0.91259     O
O      0.87754  0.96495  0.42331     O
C      0.87955  0.15825   0.5164     C
C      0.87955  0.36315   0.7213     C
C      0.88013  0.63964  0.02357     C
C      0.88013  0.85656  0.24049     C
H       0.8808   0.0832    0.445     H
H       0.8808   0.4358   0.7976     H
H       0.8822   0.6588   0.0488     H
H       0.8822   0.8334   0.2234     H
C      0.88811  0.10324  0.47275     C
C      0.88811  0.41536  0.78487     C
C      0.89286   0.4905  0.08318     C
C      0.89286  0.80968  0.40236     C
C      0.89676  0.52725  0.11189     C
C      0.89676  0.78487  0.36951     C
H       0.8987   0.2498   0.1485     H
H       0.8987   0.7502   0.6489     H
H          0.9   0.1758   0.2248     H
H          0.9   0.6752   0.7242     H
C      0.90007  0.59047  0.98994     C
C      0.90007  0.91013   0.3096     C
C      0.90176  0.05294  0.65618     C
C      0.90176  0.24558  0.84882     C
C      0.90353  0.61906  0.02625     C
C      0.90353  0.87728  0.28447     C
C      0.90607  0.16096  0.55203     C
C      0.90607  0.35404  0.74511     C
C      0.90861  0.22173  0.18508     C
C      0.90861  0.72353  0.68688     C
H       0.9101   0.1784   0.5791     H
H       0.9101    0.331   0.7317     H
C      0.91013  0.01006  0.60053     C
C      0.91013   0.3096  0.90007     C
H       0.9106   0.0805   0.6781     H
H       0.9106   0.2325   0.8301     H
O      0.91259  0.45836  0.03505     O
O      0.91259  0.87754  0.45423     O
H       0.9168    0.555   0.1192     H
H       0.9168   0.7976   0.3618     H
C      0.91682  0.10714   0.5095     C
C      0.91682  0.40732  0.80968     C
O      0.91927  0.54199   0.9575     O
O      0.91927  0.96177  0.37728     O
H       0.9195   0.3219   0.0894     H
H       0.9195   0.8301   0.5976     H
O      0.91977   0.3733  0.94985     O
O      0.91977  0.96992  0.54647     O
C      0.92004  0.49399  0.06229     C
C      0.92004  0.85775  0.42605     C
C       0.9202   0.2494   0.1696     C
C       0.9202   0.7506   0.6708     C
C      0.92121  0.04892  0.63151     C
C      0.92121   0.2897  0.87229     C
H       0.9224   0.6246   0.0536     H
H       0.9224   0.8688   0.2978     H
C       0.9249  0.56803  0.99309     C
C       0.9249  0.93181  0.35687     C
H       0.9258   0.3636   0.0568     H
H       0.9258    0.869   0.5622     H
O      0.92637  0.05253   0.4686     O
O      0.92637  0.45777  0.87384     O
C      0.92799  0.13804  0.54903     C
C      0.92799  0.37896  0.78995     C
C      0.92929  0.19389   0.2346     C
C      0.92929  0.69469   0.7354     C
C      0.93181  0.00691  0.57494     C
C      0.93181  0.35687   0.9249     C
C      0.93771  0.07996  0.50601     C
C      0.93771   0.4317  0.85775     C
C      0.93984   0.2201  0.21654     C
C      0.93984   0.7233  0.71974     C
Zr     0.94126  0.44121  0.99493    Zr
Zr     0.94126  0.94633  0.50005    Zr
O      0.94249  0.49765  0.99516     O
O      0.94249  0.94733  0.44484     O
H       0.9432   0.0742   0.6364     H
H       0.9432   0.3068    0.869     H
Zr     0.94633  0.00507  0.44628    Zr
Zr     0.94633  0.50005  0.94126    Zr
H       0.9464   0.0776   0.3754     H
H       0.9464    0.571   0.8688     H
C      0.94706  0.34382  0.09824     C
C      0.94706  0.84882  0.60324     C
O      0.94733  0.00484  0.50249     O
O      0.94733  0.44484  0.94249     O
O      0.94747   0.5314  0.07363     O
O      0.94747  0.87384  0.41607     O
O      0.94985  0.57655  0.03008     O
O      0.94985  0.91977   0.3733     O
H       0.9505   0.1437   0.5744     H
H       0.9505   0.3761   0.8068     H
H        0.951   0.1758   0.2758     H
H        0.951   0.6752   0.7752     H
C      0.95108  0.36849  0.07879     C
C      0.95108  0.87229  0.58259     C
H       0.9512   0.1178   0.3412     H
H       0.9512     0.61   0.8334     H
O       0.9575  0.41551  0.03823     O
O       0.9575  0.91927  0.54199     O
C      0.95929  0.19389   0.2646     C
C      0.95929  0.69469   0.7654     C
O      0.96177   0.0425  0.58449     O
O      0.96177  0.37728  0.91927     O
C      0.96335  0.27647  0.18508     C
C      0.96335  0.77827  0.68688     C
O      0.96495  0.08741  0.54164     O
O      0.96495  0.42331  0.87754     O
O      0.96992  0.05015  0.42345     O
O      0.96992  0.54647  0.91977     O
C      0.97328  0.30526  0.16842     C
C      0.97328  0.80486  0.66802     C
C      0.97375  0.09647  0.38094     C
C      0.97375  0.59281  0.87728     C
C      0.97643  0.11987  0.36036     C
C      0.97643  0.61607  0.85656     C
C      0.97925  0.32732  0.15313     C
C      0.97925  0.82612  0.65193     C
C      0.98322  0.35133  0.13009     C
C      0.98322  0.85313  0.63189     C
C       0.9847   0.2506   0.2353     C
C       0.9847   0.7494   0.7341     C
C      0.98994  0.39947  0.08987     C
C      0.98994  0.90007  0.59047     C
C      0.99309  0.42506  0.06819     C
C      0.99309   0.9249  0.56803     C
Zr     0.99493  0.55372  0.05367    Zr
Zr     0.99493  0.94126  0.44121    Zr
O      0.99516  0.49751  0.05267     O
O      0.99516  0.94249  0.49765     O
C      0.99644   0.2767  0.21654     C
C      0.99644   0.7799  0.71974     C
