data_I
_chemical_name_common  '/home/zhangsd/repos/MofS-CGCNN/ML/data/SSD/clean_cifs/BOWNUY_clean'
_cell_length_a 18.62330
_cell_length_b 18.62330
_cell_length_c 18.62330
_cell_angle_alpha 90.00000
_cell_angle_beta  90.00000
_cell_angle_gamma 90.00000
_space_group_name_H-M_alt      'P 1'


loop_
_space_group_symop_operation_xyz
  'x, y, z' 

loop_
_atom_site_label
_atom_site_fract_x
_atom_site_fract_y
_atom_site_fract_z
_atom_site_type_symbol
Cu         0.0  0.13144      0.5    Cu
Cu         0.0      0.5  0.13144    Cu
Cu         0.0      0.5  0.86856    Cu
Cu         0.0  0.86856      0.5    Cu
N      0.07781  0.12873  0.42462     N
N      0.07781  0.12873  0.57538     N
N      0.07781  0.42462  0.12873     N
N      0.07781  0.42462  0.87127     N
N      0.07781  0.57538  0.12873     N
N      0.07781  0.57538  0.87127     N
N      0.07781  0.87127  0.42462     N
N      0.07781  0.87127  0.57538     N
N      0.08854  0.17389  0.36899     N
N      0.08854  0.17389  0.63101     N
N      0.08854  0.36899  0.17389     N
N      0.08854  0.36899  0.82611     N
N      0.08854  0.63101  0.17389     N
N      0.08854  0.63101  0.82611     N
N      0.08854  0.82611  0.36899     N
N      0.08854  0.82611  0.63101     N
H       0.1073   0.2604   0.2604     H
H       0.1073   0.2604   0.7396     H
H       0.1073   0.7396   0.2604     H
H       0.1073   0.7396   0.7396     H
N      0.12873  0.07781  0.42462     N
N      0.12873  0.07781  0.57538     N
N      0.12873  0.42462  0.07781     N
N      0.12873  0.42462  0.92219     N
N      0.12873  0.57538  0.07781     N
N      0.12873  0.57538  0.92219     N
N      0.12873  0.92219  0.42462     N
N      0.12873  0.92219  0.57538     N
Cu     0.13144      0.0      0.5    Cu
Cu     0.13144      0.5      0.0    Cu
C       0.1471   0.1471   0.3362     C
C       0.1471   0.1471   0.6638     C
C       0.1471   0.3362   0.1471     C
C       0.1471   0.3362   0.8529     C
C       0.1471   0.6638   0.1471     C
C       0.1471   0.6638   0.8529     C
C       0.1471   0.8529   0.3362     C
C       0.1471   0.8529   0.6638     C
C       0.1483   0.2402   0.2402     C
C       0.1483   0.2402   0.7598     C
C       0.1483   0.7598   0.2402     C
C       0.1483   0.7598   0.7598     C
N      0.17389  0.08854  0.36899     N
N      0.17389  0.08854  0.63101     N
N      0.17389  0.36899  0.08854     N
N      0.17389  0.36899  0.91146     N
N      0.17389  0.63101  0.08854     N
N      0.17389  0.63101  0.91146     N
N      0.17389  0.91146  0.36899     N
N      0.17389  0.91146  0.63101     N
C       0.1792   0.1792   0.2709     C
C       0.1792   0.1792   0.7291     C
C       0.1792   0.2709   0.1792     C
C       0.1792   0.2709   0.8208     C
C       0.1792   0.7291   0.1792     C
C       0.1792   0.7291   0.8208     C
C       0.1792   0.8208   0.2709     C
C       0.1792   0.8208   0.7291     C
C       0.2402   0.1483   0.2402     C
C       0.2402   0.1483   0.7598     C
C       0.2402   0.2402   0.1483     C
C       0.2402   0.2402   0.8517     C
C       0.2402   0.7598   0.1483     C
C       0.2402   0.7598   0.8517     C
C       0.2402   0.8517   0.2402     C
C       0.2402   0.8517   0.7598     C
H       0.2604   0.1073   0.2604     H
H       0.2604   0.1073   0.7396     H
H       0.2604   0.2604   0.1073     H
H       0.2604   0.2604   0.8927     H
H       0.2604   0.7396   0.1073     H
H       0.2604   0.7396   0.8927     H
H       0.2604   0.8927   0.2604     H
H       0.2604   0.8927   0.7396     H
C       0.2709   0.1792   0.1792     C
C       0.2709   0.1792   0.8208     C
C       0.2709   0.8208   0.1792     C
C       0.2709   0.8208   0.8208     C
C       0.3362   0.1471   0.1471     C
C       0.3362   0.1471   0.8529     C
C       0.3362   0.8529   0.1471     C
C       0.3362   0.8529   0.8529     C
N      0.36899  0.08854  0.17389     N
N      0.36899  0.08854  0.82611     N
N      0.36899  0.17389  0.08854     N
N      0.36899  0.17389  0.91146     N
N      0.36899  0.82611  0.08854     N
N      0.36899  0.82611  0.91146     N
N      0.36899  0.91146  0.17389     N
N      0.36899  0.91146  0.82611     N
N      0.42462  0.07781  0.12873     N
N      0.42462  0.07781  0.87127     N
N      0.42462  0.12873  0.07781     N
N      0.42462  0.12873  0.92219     N
N      0.42462  0.87127  0.07781     N
N      0.42462  0.87127  0.92219     N
N      0.42462  0.92219  0.12873     N
N      0.42462  0.92219  0.87127     N
Cu         0.5      0.0  0.13144    Cu
Cu         0.5      0.0  0.86856    Cu
Cu         0.5  0.13144      0.0    Cu
Cu         0.5  0.86856      0.0    Cu
N      0.57538  0.07781  0.12873     N
N      0.57538  0.07781  0.87127     N
N      0.57538  0.12873  0.07781     N
N      0.57538  0.12873  0.92219     N
N      0.57538  0.87127  0.07781     N
N      0.57538  0.87127  0.92219     N
N      0.57538  0.92219  0.12873     N
N      0.57538  0.92219  0.87127     N
N      0.63101  0.08854  0.17389     N
N      0.63101  0.08854  0.82611     N
N      0.63101  0.17389  0.08854     N
N      0.63101  0.17389  0.91146     N
N      0.63101  0.82611  0.08854     N
N      0.63101  0.82611  0.91146     N
N      0.63101  0.91146  0.17389     N
N      0.63101  0.91146  0.82611     N
C       0.6638   0.1471   0.1471     C
C       0.6638   0.1471   0.8529     C
C       0.6638   0.8529   0.1471     C
C       0.6638   0.8529   0.8529     C
C       0.7291   0.1792   0.1792     C
C       0.7291   0.1792   0.8208     C
C       0.7291   0.8208   0.1792     C
C       0.7291   0.8208   0.8208     C
H       0.7396   0.1073   0.2604     H
H       0.7396   0.1073   0.7396     H
H       0.7396   0.2604   0.1073     H
H       0.7396   0.2604   0.8927     H
H       0.7396   0.7396   0.1073     H
H       0.7396   0.7396   0.8927     H
H       0.7396   0.8927   0.2604     H
H       0.7396   0.8927   0.7396     H
C       0.7598   0.1483   0.2402     C
C       0.7598   0.1483   0.7598     C
C       0.7598   0.2402   0.1483     C
C       0.7598   0.2402   0.8517     C
C       0.7598   0.7598   0.1483     C
C       0.7598   0.7598   0.8517     C
C       0.7598   0.8517   0.2402     C
C       0.7598   0.8517   0.7598     C
C       0.8208   0.1792   0.2709     C
C       0.8208   0.1792   0.7291     C
C       0.8208   0.2709   0.1792     C
C       0.8208   0.2709   0.8208     C
C       0.8208   0.7291   0.1792     C
C       0.8208   0.7291   0.8208     C
C       0.8208   0.8208   0.2709     C
C       0.8208   0.8208   0.7291     C
N      0.82611  0.08854  0.36899     N
N      0.82611  0.08854  0.63101     N
N      0.82611  0.36899  0.08854     N
N      0.82611  0.36899  0.91146     N
N      0.82611  0.63101  0.08854     N
N      0.82611  0.63101  0.91146     N
N      0.82611  0.91146  0.36899     N
N      0.82611  0.91146  0.63101     N
C       0.8517   0.2402   0.2402     C
C       0.8517   0.2402   0.7598     C
C       0.8517   0.7598   0.2402     C
C       0.8517   0.7598   0.7598     C
C       0.8529   0.1471   0.3362     C
C       0.8529   0.1471   0.6638     C
C       0.8529   0.3362   0.1471     C
C       0.8529   0.3362   0.8529     C
C       0.8529   0.6638   0.1471     C
C       0.8529   0.6638   0.8529     C
C       0.8529   0.8529   0.3362     C
C       0.8529   0.8529   0.6638     C
Cu     0.86856      0.0      0.5    Cu
Cu     0.86856      0.5      0.0    Cu
N      0.87127  0.07781  0.42462     N
N      0.87127  0.07781  0.57538     N
N      0.87127  0.42462  0.07781     N
N      0.87127  0.42462  0.92219     N
N      0.87127  0.57538  0.07781     N
N      0.87127  0.57538  0.92219     N
N      0.87127  0.92219  0.42462     N
N      0.87127  0.92219  0.57538     N
H       0.8927   0.2604   0.2604     H
H       0.8927   0.2604   0.7396     H
H       0.8927   0.7396   0.2604     H
H       0.8927   0.7396   0.7396     H
N      0.91146  0.17389  0.36899     N
N      0.91146  0.17389  0.63101     N
N      0.91146  0.36899  0.17389     N
N      0.91146  0.36899  0.82611     N
N      0.91146  0.63101  0.17389     N
N      0.91146  0.63101  0.82611     N
N      0.91146  0.82611  0.36899     N
N      0.91146  0.82611  0.63101     N
N      0.92219  0.12873  0.42462     N
N      0.92219  0.12873  0.57538     N
N      0.92219  0.42462  0.12873     N
N      0.92219  0.42462  0.87127     N
N      0.92219  0.57538  0.12873     N
N      0.92219  0.57538  0.87127     N
N      0.92219  0.87127  0.42462     N
N      0.92219  0.87127  0.57538     N
