data_I
_chemical_name_common  '/home/zhangsd/repos/MofS-CGCNN/ML/data/SSD/clean_cifs/BUCVAY_clean'
_cell_length_a 40.99900
_cell_length_b 14.35300
_cell_length_c 20.25700
_cell_angle_alpha 90.00000
_cell_angle_beta  108.79000
_cell_angle_gamma 90.00000
_space_group_name_H-M_alt      'P 1'


loop_
_space_group_symop_operation_xyz
  'x, y, z' 

loop_
_atom_site_label
_atom_site_fract_x
_atom_site_fract_y
_atom_site_fract_z
_atom_site_type_symbol
H       0.0023   0.1358     0.11     H
H       0.0023   0.8642     0.61     H
C      0.01052    0.264   0.3695     C
C      0.01052    0.736   0.8695     C
C      0.01392   0.1707   0.3766     C
C      0.01392   0.8293   0.8766     C
N      0.01673   0.3115   0.1125     N
N      0.01673   0.6885   0.6125     N
H       0.0241   0.4296   0.1675     H
H       0.0241   0.5704   0.6675     H
H       0.0271   0.2243   0.0408     H
H       0.0271   0.7757   0.5408     H
H       0.0295   0.0485    0.659     H
H       0.0295   0.9515    0.159     H
C         0.03   0.3937   0.1342     C
C         0.03   0.6063   0.6342     C
C      0.03144    0.281   0.0653     C
C      0.03144    0.719   0.5653     C
H       0.0316   0.3801   0.3439     H
H       0.0316   0.6199   0.8439     H
C      0.03402   0.3151   0.3488     C
C      0.03402   0.6849   0.8488     C
H         0.04   0.0721   0.2377     H
H         0.04   0.9279   0.7377     H
C      0.04125   0.1267   0.3643     C
C      0.04125   0.8733   0.8643     C
H       0.0437   0.0619   0.3707     H
H       0.0437   0.9381   0.8707     H
C      0.05086   0.0441   0.6944     C
C      0.05086   0.9559   0.1944     C
N      0.05272   0.4202   0.1039     N
N      0.05272   0.5798   0.6039     N
C      0.05327   0.3473   0.0606     C
C      0.05327   0.6527   0.5606     C
H       0.0545   0.2912   0.5112     H
H       0.0545   0.7088   0.0112     H
H       0.0556   0.1298   0.5523     H
H       0.0556   0.8702   0.0523     H
C      0.05732   0.0277    0.241     C
C      0.05732   0.9723    0.741     C
C      0.05968   0.2726   0.5579     C
C      0.05968   0.7274   0.0579     C
C       0.0604   0.1839   0.5799     C
C       0.0604   0.8161   0.0799     C
C      0.06139   0.2702   0.3352     C
C      0.06139   0.7298   0.8352     C
C      0.06552   0.1754   0.3427     C
C      0.06552   0.8246   0.8427     C
O      0.06618   0.4704  0.48262     O
O      0.06618   0.5296  0.98262     O
H       0.0671   0.3445   0.0316     H
H       0.0671   0.6555   0.5316     H
O       0.0673    0.461  0.74474     O
O       0.0673    0.539  0.24474     O
N      0.06769   0.3313   0.6141     N
N      0.06769   0.6687   0.1141     N
N      0.06966   0.1889   0.6512     N
N      0.06966   0.8111   0.1512     N
C       0.0737    0.276   0.6686     C
C       0.0737    0.724   0.1686     C
C      0.07623   0.1104   0.6997     C
C      0.07623   0.8896   0.1997     C
H       0.0772   0.3054   0.3207     H
H       0.0772   0.6946   0.8207     H
H       0.0778   0.4892   0.8707     H
H       0.0778   0.5108   0.3707     H
H       0.0802   0.2974   0.7149     H
H       0.0802   0.7026   0.2149     H
Co     0.08203  0.46583  0.62088    Co
Zn     0.08203  0.53417  0.12088    Zn
H       0.0831   0.2203   0.2207     H
H       0.0831   0.7797   0.7207     H
C      0.08873   0.0366   0.2932     C
C      0.08873   0.9634   0.7932     C
C      0.09785     0.47   0.5041     C
C      0.09785     0.53   0.0041     C
C      0.09812    0.483   0.7606     C
C      0.09812    0.517   0.2606     C
C      0.09827   0.1245   0.3405     C
C      0.09827   0.8755   0.8405     C
C      0.10107   0.4926   0.3843     C
C      0.10107   0.5074   0.8843     C
C        0.107   0.2233   0.2431     C
C        0.107   0.7767   0.7431     C
C      0.10755   0.1031   0.7501     C
C      0.10755   0.8969   0.2501     C
H       0.1085   0.0347   0.9193     H
H       0.1085   0.9653   0.4193     H
C      0.11386   0.0289    0.796     C
C      0.11386   0.9711    0.296     C
O      0.11474   0.4866  0.71665     O
O      0.11474   0.5134  0.21665     O
O      0.11576   0.4702  0.56881     O
O      0.11576   0.5298  0.06881     O
C      0.11693   0.1022   0.4178     C
C      0.11693   0.8978   0.9178     C
C       0.1173   0.4682   0.4517     C
C       0.1173   0.5318   0.9517     C
H       0.1176   0.2966   0.1668     H
H       0.1176   0.7034   0.6668     H
C      0.11801   0.4912   0.3349     C
C      0.11801   0.5088   0.8349     C
C      0.11811   0.0166   0.4477     C
C      0.11811   0.9834   0.9477     C
C      0.12127   0.1823    0.308     C
C      0.12127   0.8177    0.808     C
H       0.1247   0.1481   0.7536     H
H       0.1247   0.8519   0.2536     H
C      0.12756   0.2688   0.2107     C
C      0.12756   0.7312   0.7107     C
H       0.1297   0.2358   0.4434     H
H       0.1297   0.7642   0.9434     H
C       0.1307   0.1755   0.4621     C
C       0.1307   0.8245   0.9621     C
C      0.13322    0.003   0.5194     C
C      0.13322    0.997   0.0194     C
H       0.1335   0.0568   0.0386     H
H       0.1335   0.9432   0.5386     H
H       0.1357   0.0228   0.8298     H
H       0.1357   0.9772   0.3298     H
C      0.14594   0.1633    0.533     C
C      0.14594   0.8367    0.033     C
C       0.1475    0.076   0.5616     C
C       0.1475    0.924   0.0616     C
C      0.15174    0.442   0.4719     C
C      0.15174    0.558   0.9719     C
C      0.15194   0.4645   0.3545     C
C      0.15194   0.5355   0.8545     C
H       0.1552   0.2147   0.5617     H
H       0.1552   0.4349   0.1605     H
H       0.1552   0.5651   0.6605     H
H       0.1552   0.7853   0.0617     H
C      0.15653   0.1856    0.338     C
C      0.15653   0.8144    0.838     C
C      0.16233   0.2732   0.2431     C
C      0.16233   0.7268   0.7431     C
H       0.1625    0.081   0.1491     H
H       0.1625    0.919   0.6491     H
H       0.1634   0.4263   0.5186     H
H       0.1634   0.5737   0.0186     H
H       0.1636   0.4636   0.3214     H
H       0.1636   0.5364   0.8214     H
N      0.16401   0.0605  0.63501     N
N      0.16401   0.9395  0.13501     N
H       0.1669   0.1555   0.3809     H
H       0.1669   0.8445   0.8809     H
C      0.16903   0.4388   0.4227     C
C      0.16903   0.5612   0.9227     C
C      0.16959    0.022   0.1686     C
C      0.16959    0.978   0.6686     C
C      0.17573   0.4006   0.1713     C
C      0.17573   0.5994   0.6713     C
C      0.17679   0.2319   0.3066     C
C      0.17679   0.7681   0.8066     C
H       0.1785   0.1911   0.6723     H
H       0.1785   0.8089   0.1723     H
C      0.17866   0.1272   0.6826     C
C      0.17866   0.8728   0.1826     C
N      0.18395   0.3214  0.20954     N
N      0.18395   0.6786  0.70954     N
C      0.18752   0.0027   0.2361     C
C      0.18752   0.9973   0.7361     C
H       0.1921   0.4194    0.436     H
H       0.1921   0.5806    0.936     H
N       0.1932   0.0912  0.74535     N
N       0.1932   0.9088  0.24535     N
H        0.195   0.0476   0.2716     H
H        0.195   0.9524   0.7716     H
H       0.2007   0.2354   0.3289     H
H       0.2007   0.7646   0.8289     H
C      0.20417   0.4194   0.1517     C
C      0.20417   0.5806   0.6517     C
H       0.2065   0.4711   0.1251     H
H       0.2065   0.5289   0.6251     H
C      0.21583   0.2942   0.2122     C
C      0.21583   0.7058   0.7122     C
O      0.21602    0.284   0.8444     O
O      0.21602    0.716   0.3444     O
O      0.22299   0.1123  0.91944     O
O      0.22299   0.8877  0.41944     O
Zn     0.22335  0.15436  0.82966    Zn
Co     0.22335  0.84564  0.32966    Co
O      0.22508   0.3623   0.7573     O
O      0.22508   0.6377   0.2573     O
H       0.2251   0.1296   0.5081     H
H       0.2251   0.8704   0.0081     H
O      0.22577    0.038   0.3966     O
O      0.22577    0.962   0.8966     O
C       0.2258   0.3562   0.8188     C
C       0.2258   0.6438   0.3188     C
H       0.2273   0.2414   0.2361     H
H       0.2273   0.7586   0.7361     H
C      0.22773   0.0272   0.9373     C
C      0.22773   0.9728   0.4373     C
N      0.22871    0.352  0.17669     N
N      0.22871    0.648  0.67669     N
C      0.23359     0.08   0.5392     C
C      0.23359     0.92   0.0392     C
C      0.23688   0.0083   0.0143     C
C      0.23688   0.9917   0.5143     C
H       0.2376   0.4658   0.2957     H
H       0.2376   0.5342   0.7957     H
H       0.2404   0.1535    0.627     H
H       0.2404   0.8465    0.127     H
C      0.24041   0.4355   0.8684     C
C      0.24041   0.5645   0.3684     C
C      0.24296    0.094   0.6099     C
C      0.24296    0.906   0.1099     C
C      0.24405   0.4768   0.3439     C
C      0.24405   0.5232   0.8439     C
H       0.2475   0.3582   0.9558     H
H       0.2475   0.6418   0.4558     H
C      0.24988   0.4181   0.9392     C
C      0.24988   0.5819   0.4392     C
C      0.25012   0.0819   0.0608     C
C      0.25012   0.9181   0.5608     C
H       0.2525   0.1418   0.0442     H
H       0.2525   0.8582   0.5442     H
C      0.25595   0.0232   0.6561     C
C      0.25595   0.9768   0.1561     C
C      0.25704    0.406   0.3901     C
C      0.25704    0.594   0.8901     C
C      0.25959   0.0645   0.1316     C
C      0.25959   0.9355   0.6316     C
H       0.2596   0.3465    0.373     H
H       0.2596   0.6535    0.873     H
H       0.2624   0.0342   0.7043     H
H       0.2624   0.9658   0.2043     H
C      0.26312   0.4917   0.9857     C
C      0.26312   0.5083   0.4857     C
C      0.26641     0.42   0.4608     C
C      0.26641     0.58   0.9608     C
N      0.27129    0.148  0.82331     N
N      0.27129    0.852  0.32331     N
C      0.27227   0.4728   0.0627     C
C      0.27227   0.5272   0.5627     C
H       0.2727   0.2586   0.7639     H
H       0.2727   0.7414   0.2639     H
C       0.2742   0.1438   0.1812     C
C       0.2742   0.8562   0.6812     C
O      0.27423    0.462   0.6034     O
O      0.27423    0.538   0.1034     O
H       0.2749   0.3704   0.4919     H
H       0.2749   0.6296   0.9919     H
O      0.27492   0.1377   0.2427     O
O      0.27492   0.8623   0.7427     O
Co     0.27665  0.34564  0.17034    Co
Zn     0.27665  0.65436  0.67034    Zn
O      0.27701   0.3877  0.08056     O
O      0.27701   0.6123  0.58056     O
O      0.28398    0.216   0.1556     O
O      0.28398    0.784   0.6556     O
C      0.28417   0.2058   0.7878     C
C      0.28417   0.7942   0.2878     C
H       0.2935   0.0289   0.8749     H
H       0.2935   0.9711   0.3749     H
C      0.29583   0.0806   0.8483     C
C      0.29583   0.9194   0.3483     C
H       0.2993   0.2646   0.6711     H
H       0.2993   0.7354   0.1711     H
H        0.305   0.4524   0.7284     H
H        0.305   0.5476   0.2284     H
N       0.3068   0.4088  0.25465     N
N       0.3068   0.5912  0.75465     N
H       0.3079   0.0806    0.564     H
H       0.3079   0.9194    0.064     H
C      0.31248   0.4973   0.7639     C
C      0.31248   0.5027   0.2639     C
N      0.31605   0.1786  0.79046     N
N      0.31605   0.8214  0.29046     N
C      0.32134   0.3728   0.3174     C
C      0.32134   0.6272   0.8174     C
H       0.3215   0.3089   0.3277     H
H       0.3215   0.6911   0.8277     H
C      0.32321   0.2681   0.6934     C
C      0.32321   0.7319   0.1934     C
C      0.32427   0.0994   0.8287     C
C      0.32427   0.9006   0.3287     C
C      0.33041    0.478   0.8314     C
C      0.33041    0.522   0.3314     C
C      0.33097   0.0612   0.5773     C
C      0.33097   0.9388   0.0773     C
H       0.3331   0.3445   0.6191     H
H       0.3331   0.6555   0.1191     H
N      0.33599   0.4395  0.36499     N
N      0.33599   0.5605  0.86499     N
H       0.3364   0.0364   0.6786     H
H       0.3364   0.9636   0.1786     H
H       0.3366   0.0737   0.4814     H
H       0.3366   0.9263   0.9814     H
H       0.3375    0.419   0.8509     H
H       0.3375    0.581   0.3509     H
C      0.33767   0.2268   0.7569     C
C      0.33767   0.7732   0.2569     C
C      0.34347   0.3144    0.662     C
C      0.34347   0.6856    0.162     C
H       0.3448   0.0651   0.8395     H
H       0.3448   0.2853   0.4383     H
H       0.3448   0.7147   0.9383     H
H       0.3448   0.9349   0.3395     H
C      0.34806   0.0355   0.6455     C
C      0.34806   0.9645   0.1455     C
C      0.34826    0.058   0.5281     C
C      0.34826    0.942   0.0281     C
C       0.3525    0.424   0.4384     C
C       0.3525    0.576   0.9384     C
C      0.35406   0.3367    0.467     C
C      0.35406   0.6633    0.967     C
H       0.3643   0.4772   0.1702     H
H       0.3643   0.5228   0.6702     H
H       0.3665   0.4432   0.9614     H
H       0.3665   0.5568   0.4614     H
C      0.36678    0.497   0.4806     C
C      0.36678    0.503   0.9806     C
C       0.3693   0.3245   0.5379     C
C       0.3693   0.6755   0.0379     C
H       0.3703   0.2642   0.5566     H
H       0.3703   0.7358   0.0566     H
C      0.37244   0.2312   0.7893     C
C      0.37244   0.7688   0.2893     C
H       0.3753   0.3519   0.2464     H
H       0.3753   0.6481   0.7464     H
C      0.37873   0.3177    0.692     C
C      0.37873   0.6823    0.192     C
C      0.38189   0.4834   0.5523     C
C      0.38189   0.5166   0.0523     C
C      0.38199   0.0088   0.6651     C
C      0.38199   0.9912   0.1651     C
H       0.3824   0.2034   0.8332     H
H       0.3824   0.7966   0.3332     H
C       0.3827   0.0318   0.5483     C
C       0.3827   0.9682   0.0483     C
C      0.38307   0.3978   0.5822     C
C      0.38307   0.6022   0.0822     C
O      0.38424   0.0298  0.43119     O
O      0.38424   0.9702  0.93119     O
O      0.38526   0.0134  0.28335     O
O      0.38526   0.9866  0.78335     O
C      0.38614   0.4711    0.204     C
C      0.38614   0.5289    0.704     C
H       0.3915   0.4653   0.0807     H
H       0.3915   0.5347   0.5807     H
C      0.39245   0.3969   0.2499     C
C      0.39245   0.6031   0.7499     C
C        0.393   0.2767   0.7569     C
C        0.393   0.7233   0.2569     C
C      0.39893   0.0074   0.6157     C
C      0.39893   0.9926   0.1157     C
C      0.40173   0.3755   0.6595     C
C      0.40173   0.6245   0.1595     C
C      0.40188    0.017   0.2394     C
C      0.40188    0.983   0.7394     C
C      0.40215     0.03   0.4959     C
C      0.40215     0.97   0.9959     C
C      0.41127   0.4634   0.7068     C
C      0.41127   0.5366   0.2068     C
H       0.4169   0.2797   0.7793     H
H       0.4169   0.7203   0.2793     H
Co     0.41797  0.03417  0.37912    Co
Zn     0.41797  0.96583  0.87912    Zn
H       0.4198   0.2026   0.2851     H
H       0.4198   0.7974   0.7851     H
H       0.4222   0.0108   0.1293     H
H       0.4222   0.9892   0.6293     H
H       0.4228   0.1946   0.6793     H
H       0.4228   0.8054   0.1793     H
C      0.42377   0.3896   0.3003     C
C      0.42377   0.6104   0.8003     C
C       0.4263    0.224   0.3314     C
C       0.4263    0.776   0.8314     C
N      0.43034   0.3111   0.3488     N
N      0.43034   0.6889   0.8488     N
N      0.43231   0.1687   0.3859     N
N      0.43231   0.8313   0.8859     N
O       0.4327    0.039  0.25526     O
O       0.4327    0.961  0.75526     O
H       0.4329   0.1555   0.9684     H
H       0.4329   0.8445   0.4684     H
O      0.43382   0.0296  0.51738     O
O      0.43382   0.9704  0.01738     O
C      0.43448   0.3246   0.6573     C
C      0.43448   0.6754   0.1573     C
C      0.43861   0.2298   0.6648     C
C      0.43861   0.7702   0.1648     C
C       0.4396   0.3161   0.4201     C
C       0.4396   0.6839   0.9201     C
C      0.44032   0.2274   0.4421     C
C      0.44032   0.7726   0.9421     C
C      0.44268   0.4723    0.759     C
C      0.44268   0.5277    0.259     C
H       0.4444   0.3702   0.4477     H
H       0.4444   0.6298   0.9477     H
H       0.4455   0.2088   0.4888     H
H       0.4455   0.7912   0.9888     H
C      0.44673   0.1527   0.9394     C
C      0.44673   0.8473   0.4394     C
N      0.44728   0.0798   0.8961     N
N      0.44728   0.9202   0.3961     N
C      0.44914   0.4559   0.3056     C
C      0.44914   0.5441   0.8056     C
H       0.4563   0.4381   0.6293     H
H       0.4563   0.5619   0.1293     H
C      0.45875   0.3733   0.6357     C
C      0.45875   0.6267   0.1357     C
H         0.46   0.4279   0.7623     H
H         0.46   0.5721   0.2623     H
C      0.46598   0.1849   0.6512     C
C      0.46598   0.8151   0.1512     C
H       0.4684   0.1199   0.6561     H
H       0.4684   0.8801   0.1561     H
C      0.46856    0.219   0.9347     C
C      0.46856    0.781   0.4347     C
C         0.47   0.1063   0.8658     C
C         0.47   0.8937   0.3658     C
H       0.4705   0.4515    0.341     H
H       0.4705   0.5485    0.841     H
H       0.4729   0.2757   0.9592     H
H       0.4729   0.7243   0.4592     H
H       0.4759   0.0704   0.8325     H
H       0.4759   0.9296   0.3325     H
N      0.48327   0.1885   0.8875     N
N      0.48327   0.8115   0.3875     N
C      0.48608   0.3293   0.6234     C
C      0.48608   0.6707   0.1234     C
C      0.48948    0.236   0.6305     C
C      0.48948    0.764   0.1305     C
H       0.4977   0.3642     0.89     H
H       0.4977   0.6358     0.39     H
H       0.5023   0.3642     0.61     H
H       0.5023   0.6358     0.11     H
C      0.51052    0.236   0.8695     C
C      0.51052    0.764   0.3695     C
C      0.51392   0.3293   0.8766     C
C      0.51392   0.6707   0.3766     C
N      0.51673   0.1885   0.6125     N
N      0.51673   0.8115   0.1125     N
H       0.5241   0.0704   0.6675     H
H       0.5241   0.9296   0.1675     H
H       0.5271   0.2757   0.5408     H
H       0.5271   0.7243   0.0408     H
H       0.5295   0.4515    0.159     H
H       0.5295   0.5485    0.659     H
C         0.53   0.1063   0.6342     C
C         0.53   0.8937   0.1342     C
C      0.53144    0.219   0.5653     C
C      0.53144    0.781   0.0653     C
H       0.5316   0.1199   0.8439     H
H       0.5316   0.8801   0.3439     H
C      0.53402   0.1849   0.8488     C
C      0.53402   0.8151   0.3488     C
H         0.54   0.4279   0.7377     H
H         0.54   0.5721   0.2377     H
C      0.54125   0.3733   0.8643     C
C      0.54125   0.6267   0.3643     C
H       0.5437   0.4381   0.8707     H
H       0.5437   0.5619   0.3707     H
C      0.55086   0.4559   0.1944     C
C      0.55086   0.5441   0.6944     C
N      0.55272   0.0798   0.6039     N
N      0.55272   0.9202   0.1039     N
C      0.55327   0.1527   0.5606     C
C      0.55327   0.8473   0.0606     C
H       0.5545   0.2088   0.0112     H
H       0.5545   0.7912   0.5112     H
H       0.5556   0.3702   0.0523     H
H       0.5556   0.6298   0.5523     H
C      0.55732   0.4723    0.741     C
C      0.55732   0.5277    0.241     C
C      0.55968   0.2274   0.0579     C
C      0.55968   0.7726   0.5579     C
C       0.5604   0.3161   0.0799     C
C       0.5604   0.6839   0.5799     C
C      0.56139   0.2298   0.8352     C
C      0.56139   0.7702   0.3352     C
C      0.56552   0.3246   0.8427     C
C      0.56552   0.6754   0.3427     C
O      0.56618   0.0296  0.98262     O
O      0.56618   0.9704  0.48262     O
H       0.5671   0.1555   0.5316     H
H       0.5671   0.8445   0.0316     H
O       0.5673    0.039  0.24474     O
O       0.5673    0.961  0.74474     O
N      0.56769   0.1687   0.1141     N
N      0.56769   0.8313   0.6141     N
N      0.56966   0.3111   0.1512     N
N      0.56966   0.6889   0.6512     N
C       0.5737    0.224   0.1686     C
C       0.5737    0.776   0.6686     C
C      0.57623   0.3896   0.1997     C
C      0.57623   0.6104   0.6997     C
H       0.5772   0.1946   0.8207     H
H       0.5772   0.8054   0.3207     H
H       0.5778   0.0108   0.3707     H
H       0.5778   0.9892   0.8707     H
H       0.5802   0.2026   0.2149     H
H       0.5802   0.7974   0.7149     H
Zn     0.58203  0.03417  0.12088    Zn
Co     0.58203  0.96583  0.62088    Co
H       0.5831   0.2797   0.7207     H
H       0.5831   0.7203   0.2207     H
C      0.58873   0.4634   0.7932     C
C      0.58873   0.5366   0.2932     C
C      0.59785     0.03   0.0041     C
C      0.59785     0.97   0.5041     C
C      0.59812    0.017   0.2606     C
C      0.59812    0.983   0.7606     C
C      0.59827   0.3755   0.8405     C
C      0.59827   0.6245   0.3405     C
C      0.60107   0.0074   0.8843     C
C      0.60107   0.9926   0.3843     C
C        0.607   0.2767   0.7431     C
C        0.607   0.7233   0.2431     C
C      0.60755   0.3969   0.2501     C
C      0.60755   0.6031   0.7501     C
H       0.6085   0.4653   0.4193     H
H       0.6085   0.5347   0.9193     H
C      0.61386   0.4711    0.296     C
C      0.61386   0.5289    0.796     C
O      0.61474   0.0134  0.21665     O
O      0.61474   0.9866  0.71665     O
O      0.61576   0.0298  0.06881     O
O      0.61576   0.9702  0.56881     O
C      0.61693   0.3978   0.9178     C
C      0.61693   0.6022   0.4178     C
C       0.6173   0.0318   0.9517     C
C       0.6173   0.9682   0.4517     C
H       0.6176   0.2034   0.6668     H
H       0.6176   0.7966   0.1668     H
C      0.61801   0.0088   0.8349     C
C      0.61801   0.9912   0.3349     C
C      0.61811   0.4834   0.9477     C
C      0.61811   0.5166   0.4477     C
C      0.62127   0.3177    0.808     C
C      0.62127   0.6823    0.308     C
H       0.6247   0.3519   0.2536     H
H       0.6247   0.6481   0.7536     H
C      0.62756   0.2312   0.7107     C
C      0.62756   0.7688   0.2107     C
H       0.6297   0.2642   0.9434     H
H       0.6297   0.7358   0.4434     H
C       0.6307   0.3245   0.9621     C
C       0.6307   0.6755   0.4621     C
C      0.63322    0.497   0.0194     C
C      0.63322    0.503   0.5194     C
H       0.6335   0.4432   0.5386     H
H       0.6335   0.5568   0.0386     H
H       0.6357   0.4772   0.3298     H
H       0.6357   0.5228   0.8298     H
C      0.64594   0.3367    0.033     C
C      0.64594   0.6633    0.533     C
C       0.6475    0.424   0.0616     C
C       0.6475    0.576   0.5616     C
C      0.65174    0.058   0.9719     C
C      0.65174    0.942   0.4719     C
C      0.65194   0.0355   0.8545     C
C      0.65194   0.9645   0.3545     C
H       0.6552   0.0651   0.6605     H
H       0.6552   0.2853   0.0617     H
H       0.6552   0.7147   0.5617     H
H       0.6552   0.9349   0.1605     H
C      0.65653   0.3144    0.838     C
C      0.65653   0.6856    0.338     C
C      0.66233   0.2268   0.7431     C
C      0.66233   0.7732   0.2431     C
H       0.6625    0.419   0.6491     H
H       0.6625    0.581   0.1491     H
H       0.6634   0.0737   0.0186     H
H       0.6634   0.9263   0.5186     H
H       0.6636   0.0364   0.8214     H
H       0.6636   0.9636   0.3214     H
N      0.66401   0.4395  0.13501     N
N      0.66401   0.5605  0.63501     N
H       0.6669   0.3445   0.8809     H
H       0.6669   0.6555   0.3809     H
C      0.66903   0.0612   0.9227     C
C      0.66903   0.9388   0.4227     C
C      0.66959    0.478   0.6686     C
C      0.66959    0.522   0.1686     C
C      0.67573   0.0994   0.6713     C
C      0.67573   0.9006   0.1713     C
C      0.67679   0.2681   0.8066     C
C      0.67679   0.7319   0.3066     C
H       0.6785   0.3089   0.1723     H
H       0.6785   0.6911   0.6723     H
C      0.67866   0.3728   0.1826     C
C      0.67866   0.6272   0.6826     C
N      0.68395   0.1786  0.70954     N
N      0.68395   0.8214  0.20954     N
C      0.68752   0.4973   0.7361     C
C      0.68752   0.5027   0.2361     C
H       0.6921   0.0806    0.936     H
H       0.6921   0.9194    0.436     H
N       0.6932   0.4088  0.24535     N
N       0.6932   0.5912  0.74535     N
H        0.695   0.4524   0.7716     H
H        0.695   0.5476   0.2716     H
H       0.7007   0.2646   0.8289     H
H       0.7007   0.7354   0.3289     H
C      0.70417   0.0806   0.6517     C
C      0.70417   0.9194   0.1517     C
H       0.7065   0.0289   0.6251     H
H       0.7065   0.9711   0.1251     H
C      0.71583   0.2058   0.7122     C
C      0.71583   0.7942   0.2122     C
O      0.71602    0.216   0.3444     O
O      0.71602    0.784   0.8444     O
O      0.72299   0.3877  0.41944     O
O      0.72299   0.6123  0.91944     O
Co     0.72335  0.34564  0.32966    Co
Zn     0.72335  0.65436  0.82966    Zn
O      0.72508   0.1377   0.2573     O
O      0.72508   0.8623   0.7573     O
H       0.7251   0.3704   0.0081     H
H       0.7251   0.6296   0.5081     H
O      0.72577    0.462   0.8966     O
O      0.72577    0.538   0.3966     O
C       0.7258   0.1438   0.3188     C
C       0.7258   0.8562   0.8188     C
H       0.7273   0.2586   0.7361     H
H       0.7273   0.7414   0.2361     H
C      0.72773   0.4728   0.4373     C
C      0.72773   0.5272   0.9373     C
N      0.72871    0.148  0.67669     N
N      0.72871    0.852  0.17669     N
C      0.73359     0.42   0.0392     C
C      0.73359     0.58   0.5392     C
C      0.73688   0.4917   0.5143     C
C      0.73688   0.5083   0.0143     C
H       0.7376   0.0342   0.7957     H
H       0.7376   0.9658   0.2957     H
H       0.7404   0.3465    0.127     H
H       0.7404   0.6535    0.627     H
C      0.74041   0.0645   0.3684     C
C      0.74041   0.9355   0.8684     C
C      0.74296    0.406   0.1099     C
C      0.74296    0.594   0.6099     C
C      0.74405   0.0232   0.8439     C
C      0.74405   0.9768   0.3439     C
H       0.7475   0.1418   0.4558     H
H       0.7475   0.8582   0.9558     H
C      0.74988   0.0819   0.4392     C
C      0.74988   0.9181   0.9392     C
C      0.75012   0.4181   0.5608     C
C      0.75012   0.5819   0.0608     C
H       0.7525   0.3582   0.5442     H
H       0.7525   0.6418   0.0442     H
C      0.75595   0.4768   0.1561     C
C      0.75595   0.5232   0.6561     C
C      0.75704    0.094   0.8901     C
C      0.75704    0.906   0.3901     C
C      0.75959   0.4355   0.6316     C
C      0.75959   0.5645   0.1316     C
H       0.7596   0.1535    0.873     H
H       0.7596   0.8465    0.373     H
H       0.7624   0.4658   0.2043     H
H       0.7624   0.5342   0.7043     H
C      0.76312   0.0083   0.4857     C
C      0.76312   0.9917   0.9857     C
C      0.76641     0.08   0.9608     C
C      0.76641     0.92   0.4608     C
N      0.77129    0.352  0.32331     N
N      0.77129    0.648  0.82331     N
C      0.77227   0.0272   0.5627     C
C      0.77227   0.9728   0.0627     C
H       0.7727   0.2414   0.2639     H
H       0.7727   0.7586   0.7639     H
C       0.7742   0.3562   0.6812     C
C       0.7742   0.6438   0.1812     C
O      0.77423    0.038   0.1034     O
O      0.77423    0.962   0.6034     O
H       0.7749   0.1296   0.9919     H
H       0.7749   0.8704   0.4919     H
O      0.77492   0.3623   0.7427     O
O      0.77492   0.6377   0.2427     O
Zn     0.77665  0.15436  0.67034    Zn
Co     0.77665  0.84564  0.17034    Co
O      0.77701   0.1123  0.58056     O
O      0.77701   0.8877  0.08056     O
O      0.78398    0.284   0.6556     O
O      0.78398    0.716   0.1556     O
C      0.78417   0.2942   0.2878     C
C      0.78417   0.7058   0.7878     C
H       0.7935   0.4711   0.3749     H
H       0.7935   0.5289   0.8749     H
C      0.79583   0.4194   0.3483     C
C      0.79583   0.5806   0.8483     C
H       0.7993   0.2354   0.1711     H
H       0.7993   0.7646   0.6711     H
H        0.805   0.0476   0.2284     H
H        0.805   0.9524   0.7284     H
N       0.8068   0.0912  0.75465     N
N       0.8068   0.9088  0.25465     N
H       0.8079   0.4194    0.064     H
H       0.8079   0.5806    0.564     H
C      0.81248   0.0027   0.2639     C
C      0.81248   0.9973   0.7639     C
N      0.81605   0.3214  0.29046     N
N      0.81605   0.6786  0.79046     N
C      0.82134   0.1272   0.8174     C
C      0.82134   0.8728   0.3174     C
H       0.8215   0.1911   0.8277     H
H       0.8215   0.8089   0.3277     H
C      0.82321   0.2319   0.1934     C
C      0.82321   0.7681   0.6934     C
C      0.82427   0.4006   0.3287     C
C      0.82427   0.5994   0.8287     C
C      0.83041    0.022   0.3314     C
C      0.83041    0.978   0.8314     C
C      0.83097   0.4388   0.0773     C
C      0.83097   0.5612   0.5773     C
H       0.8331   0.1555   0.1191     H
H       0.8331   0.8445   0.6191     H
N      0.83599   0.0605  0.86499     N
N      0.83599   0.9395  0.36499     N
H       0.8364   0.4636   0.1786     H
H       0.8364   0.5364   0.6786     H
H       0.8366   0.4263   0.9814     H
H       0.8366   0.5737   0.4814     H
H       0.8375    0.081   0.3509     H
H       0.8375    0.919   0.8509     H
C      0.83767   0.2732   0.2569     C
C      0.83767   0.7268   0.7569     C
C      0.84347   0.1856    0.162     C
C      0.84347   0.8144    0.662     C
H       0.8448   0.2147   0.9383     H
H       0.8448   0.4349   0.3395     H
H       0.8448   0.5651   0.8395     H
H       0.8448   0.7853   0.4383     H
C      0.84806   0.4645   0.1455     C
C      0.84806   0.5355   0.6455     C
C      0.84826    0.442   0.0281     C
C      0.84826    0.558   0.5281     C
C       0.8525    0.076   0.9384     C
C       0.8525    0.924   0.4384     C
C      0.85406   0.1633    0.967     C
C      0.85406   0.8367    0.467     C
H       0.8643   0.0228   0.6702     H
H       0.8643   0.9772   0.1702     H
H       0.8665   0.0568   0.4614     H
H       0.8665   0.9432   0.9614     H
C      0.86678    0.003   0.9806     C
C      0.86678    0.997   0.4806     C
C       0.8693   0.1755   0.0379     C
C       0.8693   0.8245   0.5379     C
H       0.8703   0.2358   0.0566     H
H       0.8703   0.7642   0.5566     H
C      0.87244   0.2688   0.2893     C
C      0.87244   0.7312   0.7893     C
H       0.8753   0.1481   0.7464     H
H       0.8753   0.8519   0.2464     H
C      0.87873   0.1823    0.192     C
C      0.87873   0.8177    0.692     C
C      0.88189   0.0166   0.0523     C
C      0.88189   0.9834   0.5523     C
C      0.88199   0.4912   0.1651     C
C      0.88199   0.5088   0.6651     C
H       0.8824   0.2966   0.3332     H
H       0.8824   0.7034   0.8332     H
C       0.8827   0.4682   0.0483     C
C       0.8827   0.5318   0.5483     C
C      0.88307   0.1022   0.0822     C
C      0.88307   0.8978   0.5822     C
O      0.88424   0.4702  0.93119     O
O      0.88424   0.5298  0.43119     O
O      0.88526   0.4866  0.78335     O
O      0.88526   0.5134  0.28335     O
C      0.88614   0.0289    0.704     C
C      0.88614   0.9711    0.204     C
H       0.8915   0.0347   0.5807     H
H       0.8915   0.9653   0.0807     H
C      0.89245   0.1031   0.7499     C
C      0.89245   0.8969   0.2499     C
C        0.893   0.2233   0.2569     C
C        0.893   0.7767   0.7569     C
C      0.89893   0.4926   0.1157     C
C      0.89893   0.5074   0.6157     C
C      0.90173   0.1245   0.1595     C
C      0.90173   0.8755   0.6595     C
C      0.90188    0.483   0.7394     C
C      0.90188    0.517   0.2394     C
C      0.90215     0.47   0.9959     C
C      0.90215     0.53   0.4959     C
C      0.91127   0.0366   0.2068     C
C      0.91127   0.9634   0.7068     C
H       0.9169   0.2203   0.2793     H
H       0.9169   0.7797   0.7793     H
Zn     0.91797  0.46583  0.87912    Zn
Co     0.91797  0.53417  0.37912    Co
H       0.9198   0.2974   0.7851     H
H       0.9198   0.7026   0.2851     H
H       0.9222   0.4892   0.6293     H
H       0.9222   0.5108   0.1293     H
H       0.9228   0.3054   0.1793     H
H       0.9228   0.6946   0.6793     H
C      0.92377   0.1104   0.8003     C
C      0.92377   0.8896   0.3003     C
C       0.9263    0.276   0.8314     C
C       0.9263    0.724   0.3314     C
N      0.93034   0.1889   0.8488     N
N      0.93034   0.8111   0.3488     N
N      0.93231   0.3313   0.8859     N
N      0.93231   0.6687   0.3859     N
O       0.9327    0.461  0.75526     O
O       0.9327    0.539  0.25526     O
H       0.9329   0.3445   0.4684     H
H       0.9329   0.6555   0.9684     H
O      0.93382   0.4704  0.01738     O
O      0.93382   0.5296  0.51738     O
C      0.93448   0.1754   0.1573     C
C      0.93448   0.8246   0.6573     C
C      0.93861   0.2702   0.1648     C
C      0.93861   0.7298   0.6648     C
C       0.9396   0.1839   0.9201     C
C       0.9396   0.8161   0.4201     C
C      0.94032   0.2726   0.9421     C
C      0.94032   0.7274   0.4421     C
C      0.94268   0.0277    0.259     C
C      0.94268   0.9723    0.759     C
H       0.9444   0.1298   0.9477     H
H       0.9444   0.8702   0.4477     H
H       0.9455   0.2912   0.9888     H
H       0.9455   0.7088   0.4888     H
C      0.94673   0.3473   0.4394     C
C      0.94673   0.6527   0.9394     C
N      0.94728   0.4202   0.3961     N
N      0.94728   0.5798   0.8961     N
C      0.94914   0.0441   0.8056     C
C      0.94914   0.9559   0.3056     C
H       0.9563   0.0619   0.1293     H
H       0.9563   0.9381   0.6293     H
C      0.95875   0.1267   0.1357     C
C      0.95875   0.8733   0.6357     C
H         0.96   0.0721   0.2623     H
H         0.96   0.9279   0.7623     H
C      0.96598   0.3151   0.1512     C
C      0.96598   0.6849   0.6512     C
H       0.9684   0.3801   0.1561     H
H       0.9684   0.6199   0.6561     H
C      0.96856    0.281   0.4347     C
C      0.96856    0.719   0.9347     C
C         0.97   0.3937   0.3658     C
C         0.97   0.6063   0.8658     C
H       0.9705   0.0485    0.841     H
H       0.9705   0.9515    0.341     H
H       0.9729   0.2243   0.4592     H
H       0.9729   0.7757   0.9592     H
H       0.9759   0.4296   0.3325     H
H       0.9759   0.5704   0.8325     H
N      0.98327   0.3115   0.3875     N
N      0.98327   0.6885   0.8875     N
C      0.98608   0.1707   0.1234     C
C      0.98608   0.8293   0.6234     C
C      0.98948    0.264   0.1305     C
C      0.98948    0.736   0.6305     C
H       0.9977   0.1358     0.39     H
H       0.9977   0.8642     0.89     H
