data_I
_chemical_name_common  '/home/zhangsd/repos/MofS-CGCNN/ML/data/SSD/clean_cifs/BURQIQ_clean'
_cell_length_a 25.45000
_cell_length_b 11.92800
_cell_length_c 25.83500
_cell_angle_alpha 90.00000
_cell_angle_beta  116.77700
_cell_angle_gamma 90.00000
_space_group_name_H-M_alt      'P 1'


loop_
_space_group_symop_operation_xyz
  'x, y, z' 

loop_
_atom_site_label
_atom_site_fract_x
_atom_site_fract_y
_atom_site_fract_z
_atom_site_type_symbol
Na     0.02061   0.4875  0.07304    Na
Na     0.02061   0.5125  0.57304    Na
O       0.0231   0.1903   0.5216     O
O       0.0231   0.8097   0.0216     O
O       0.0286    0.375   0.5095     O
O       0.0286    0.625   0.0095     O
C       0.0526   0.2824   0.5271     C
C       0.0526   0.7176   0.0271     C
O       0.0653   0.3996   0.9477     O
O       0.0653   0.6004   0.4477     O
H         0.07    0.454   0.3814     H
H         0.07    0.546   0.8814     H
Cd     0.07013  0.25272  0.01095    Cd
Cd     0.07013  0.74728  0.51095    Cd
O        0.094   0.3489   0.0994     O
O        0.094   0.6511   0.5994     O
H       0.1102   0.3142   0.3506     H
H       0.1102   0.6858   0.8506     H
C       0.1106    0.446   0.3974     C
C       0.1106    0.554   0.8974     C
C       0.1195   0.2629   0.1275     C
C       0.1195   0.7371   0.6275     C
C       0.1196   0.2724   0.5581     C
C       0.1196   0.7276   0.0581     C
C         0.12   0.4018   0.9674     C
C         0.12   0.5982   0.4674     C
O       0.1205   0.1737    0.102     O
O       0.1205   0.8263    0.602     O
H       0.1266   0.1075   0.5589     H
H       0.1266   0.8925   0.0589     H
H       0.1328   0.4373    0.562     H
H       0.1328   0.5627    0.062     H
C       0.1346   0.3663   0.3775     C
C       0.1346   0.6337   0.8775     C
H       0.1356   0.4323   0.2005     H
H       0.1356   0.5677   0.7005     H
C       0.1474   0.4843   0.9419     C
C       0.1474   0.5157   0.4419     C
C       0.1479    0.267   0.1915     C
C       0.1479    0.733   0.6915     C
C       0.1487    0.173   0.5711     C
C       0.1487    0.827   0.0711     C
C       0.1517   0.3669   0.2213     C
C       0.1517   0.6331   0.7213     C
C        0.152   0.3687    0.573     C
C        0.152   0.6313    0.073     C
O       0.1525   0.3357   0.0051     O
O       0.1525   0.6643   0.5051     O
H       0.1678   0.1044   0.2073     H
H       0.1678   0.8956   0.7073     H
C         0.17   0.1729   0.2254     C
C         0.17   0.8271   0.7254     C
C       0.1781   0.3693   0.2789     C
C       0.1781   0.6307   0.7789     C
H       0.1818   0.4376   0.2976     H
H       0.1818   0.5624   0.7976     H
C        0.195   0.1762   0.2842     C
C        0.195   0.8238   0.7842     C
C       0.1956   0.3606   0.3967     C
C       0.1956   0.6394   0.8967     C
C       0.1999   0.2745   0.3119     C
C       0.1999   0.7255   0.8119     C
C       0.2072   0.4889   0.9627     C
C       0.2072   0.5111   0.4627     C
C       0.2079   0.1638   0.6008     C
C       0.2079   0.8362   0.1008     C
H       0.2087   0.1105   0.3054     H
H       0.2087   0.8895   0.8054     H
C       0.2133    0.367   0.6041     C
C       0.2133    0.633   0.1041     C
N       0.2218    0.281   0.3749     N
N       0.2218    0.719   0.8749     N
H       0.2264   0.0943   0.6093     H
H       0.2264   0.9057   0.1093     H
H       0.2313   0.4412   0.9924     H
H       0.2313   0.5588   0.4924     H
C       0.2315   0.4349   0.4392     C
C       0.2315   0.5651   0.9392     C
H       0.2349   0.4331   0.6147     H
H       0.2349   0.5669   0.1147     H
H       0.2377   0.2037   0.4723     H
H       0.2377   0.7963   0.9723     H
C       0.2404    0.265   0.6185     C
C       0.2404    0.735   0.1185     C
C       0.2664   0.1751   0.4629     C
C       0.2664   0.8249   0.9629     C
C       0.2665   0.2061   0.4122     C
C       0.2665   0.7939   0.9122     C
H        0.272   0.4335    0.452     H
H        0.272   0.5665    0.952     H
H       0.2853   0.1604   0.7281     H
H       0.2853   0.8396   0.2281     H
H       0.2984   0.3665   0.5576     H
H       0.2984   0.6335   0.0576     H
N       0.3044   0.2594   0.6461     N
N       0.3044   0.7406   0.1461     N
H       0.3055   0.0799   0.5335     H
H       0.3055   0.9201   0.0335     H
C       0.3074   0.1032      0.5     C
C       0.3074   0.8968      0.0     C
C        0.311   0.1729   0.4003     C
C        0.311   0.8271   0.9003     C
H        0.313   0.2001   0.3675     H
H        0.313   0.7999   0.8675     H
C       0.3184   0.1316   0.7264     C
C       0.3184   0.8684   0.2264     C
C       0.3281   0.3956   0.5916     C
C       0.3281   0.6044   0.0916     C
C       0.3336   0.1687    0.686     C
C       0.3336   0.8313    0.186     C
C       0.3377   0.3492   0.6426     C
C       0.3377   0.6508   0.1426     C
H       0.3401   0.0237   0.7924     H
H       0.3401   0.9763   0.2924     H
H       0.3516   0.4812   0.0524     H
H       0.3516   0.5188   0.5524     H
C       0.3518   0.0646   0.4882     C
C       0.3518   0.9354   0.9882     C
C        0.352   0.0506   0.7656     C
C        0.352   0.9494   0.2656     C
C       0.3535   0.0989   0.4368     C
C       0.3535   0.9011   0.9368     C
C       0.3609   0.4852    0.588     C
C       0.3609   0.5148    0.088     C
C       0.3822   0.1247   0.6846     C
C       0.3822   0.8753   0.1846     C
H       0.3827   0.0723   0.4276     H
H       0.3827   0.9277   0.9276     H
C        0.385   0.3891   0.6925     C
C        0.385   0.6109   0.1925     C
H       0.3928   0.1508   0.6567     H
H       0.3928   0.8492   0.1567     H
H        0.394   0.3557    0.728     H
H        0.394   0.6443    0.228     H
O       0.3945   0.0563   0.0718     O
O       0.3945   0.9437   0.5718     O
C       0.3981   0.0174   0.0285     C
C       0.3981   0.9826   0.5285     C
C       0.4024   0.0088    0.766     C
C       0.4024   0.9912    0.266     C
C       0.4086   0.4752   0.1391     C
C       0.4086   0.5248   0.6391     C
C       0.4161   0.0439   0.7224     C
C       0.4161   0.9561   0.2224     C
C       0.4182   0.4764   0.6899     C
C       0.4182   0.5236   0.1899     C
O       0.4274   0.3278   0.0886     O
O       0.4274   0.6722   0.5886     O
O       0.4326   0.0902   0.3539     O
O       0.4326   0.9098   0.8539     O
O       0.4381   0.0492   0.0156     O
O       0.4381   0.9508   0.5156     O
C       0.4437   0.0655   0.3116     C
C       0.4437   0.9345   0.8116     C
C       0.4451   0.3811   0.1346     C
C       0.4451   0.6189   0.6346     C
H       0.4479   0.0129   0.7188     H
H       0.4479   0.9871   0.2188     H
H       0.4484   0.4964   0.2241     H
H       0.4484   0.5036   0.7241     H
Cd      0.4775  0.17535  0.09091    Cd
Cd      0.4775  0.82465  0.59091    Cd
O       0.4895   0.1044   0.3103     O
O       0.4895   0.8956   0.8103     O
O       0.4926   0.3581   0.1803     O
O       0.4926   0.6419   0.6803     O
Cd         0.5   0.2341     0.25    Cd
Cd         0.5   0.7659     0.75    Cd
O       0.5074   0.3581   0.3197     O
O       0.5074   0.6419   0.8197     O
O       0.5105   0.1044   0.1897     O
O       0.5105   0.8956   0.6897     O
Cd      0.5225  0.17535  0.40909    Cd
Cd      0.5225  0.82465  0.90909    Cd
H       0.5516   0.4964   0.2759     H
H       0.5516   0.5036   0.7759     H
H       0.5521   0.0129   0.7812     H
H       0.5521   0.9871   0.2812     H
C       0.5549   0.3811   0.3654     C
C       0.5549   0.6189   0.8654     C
C       0.5563   0.0655   0.1884     C
C       0.5563   0.9345   0.6884     C
O       0.5619   0.0492   0.4844     O
O       0.5619   0.9508   0.9844     O
O       0.5674   0.0902   0.1461     O
O       0.5674   0.9098   0.6461     O
O       0.5726   0.3278   0.4114     O
O       0.5726   0.6722   0.9114     O
C       0.5818   0.4764   0.8101     C
C       0.5818   0.5236   0.3101     C
C       0.5839   0.0439   0.7776     C
C       0.5839   0.9561   0.2776     C
C       0.5914   0.4752   0.3609     C
C       0.5914   0.5248   0.8609     C
C       0.5976   0.0088    0.734     C
C       0.5976   0.9912    0.234     C
C       0.6019   0.0174   0.4715     C
C       0.6019   0.9826   0.9715     C
O       0.6055   0.0563   0.4282     O
O       0.6055   0.9437   0.9282     O
H        0.606   0.3557    0.772     H
H        0.606   0.6443    0.272     H
H       0.6072   0.1508   0.8433     H
H       0.6072   0.8492   0.3433     H
C        0.615   0.3891   0.8075     C
C        0.615   0.6109   0.3075     C
H       0.6173   0.0723   0.0724     H
H       0.6173   0.9277   0.5724     H
C       0.6178   0.1247   0.8154     C
C       0.6178   0.8753   0.3154     C
C       0.6391   0.4852    0.912     C
C       0.6391   0.5148    0.412     C
C       0.6465   0.0989   0.0632     C
C       0.6465   0.9011   0.5632     C
C        0.648   0.0506   0.7344     C
C        0.648   0.9494   0.2344     C
C       0.6482   0.0646   0.0118     C
C       0.6482   0.9354   0.5118     C
H       0.6484   0.4812   0.4476     H
H       0.6484   0.5188   0.9476     H
H       0.6599   0.0237   0.7076     H
H       0.6599   0.9763   0.2076     H
C       0.6623   0.3492   0.8574     C
C       0.6623   0.6508   0.3574     C
C       0.6664   0.1687    0.814     C
C       0.6664   0.8313    0.314     C
C       0.6719   0.3956   0.9084     C
C       0.6719   0.6044   0.4084     C
C       0.6816   0.1316   0.7736     C
C       0.6816   0.8684   0.2736     C
H        0.687   0.2001   0.1325     H
H        0.687   0.7999   0.6325     H
C        0.689   0.1729   0.0997     C
C        0.689   0.8271   0.5997     C
C       0.6926   0.1032      0.0     C
C       0.6926   0.8968      0.5     C
H       0.6945   0.0799   0.9665     H
H       0.6945   0.9201   0.4665     H
N       0.6956   0.2594   0.8539     N
N       0.6956   0.7406   0.3539     N
H       0.7016   0.3665   0.9424     H
H       0.7016   0.6335   0.4424     H
H       0.7147   0.1604   0.7719     H
H       0.7147   0.8396   0.2719     H
H        0.728   0.4335    0.048     H
H        0.728   0.5665    0.548     H
C       0.7335   0.2061   0.0878     C
C       0.7335   0.7939   0.5878     C
C       0.7336   0.1751   0.0371     C
C       0.7336   0.8249   0.5371     C
C       0.7596    0.265   0.8815     C
C       0.7596    0.735   0.3815     C
H       0.7623   0.2037   0.0277     H
H       0.7623   0.7963   0.5277     H
H       0.7651   0.4331   0.8853     H
H       0.7651   0.5669   0.3853     H
C       0.7685   0.4349   0.0608     C
C       0.7685   0.5651   0.5608     C
H       0.7687   0.4412   0.5076     H
H       0.7687   0.5588   0.0076     H
H       0.7736   0.0943   0.8907     H
H       0.7736   0.9057   0.3907     H
N       0.7782    0.281   0.1251     N
N       0.7782    0.719   0.6251     N
C       0.7867    0.367   0.8959     C
C       0.7867    0.633   0.3959     C
H       0.7913   0.1105   0.1946     H
H       0.7913   0.8895   0.6946     H
C       0.7921   0.1638   0.8992     C
C       0.7921   0.8362   0.3992     C
C       0.7928   0.4889   0.5373     C
C       0.7928   0.5111   0.0373     C
C       0.8001   0.2745   0.1881     C
C       0.8001   0.7255   0.6881     C
C       0.8044   0.3606   0.1033     C
C       0.8044   0.6394   0.6033     C
C        0.805   0.1762   0.2158     C
C        0.805   0.8238   0.7158     C
H       0.8182   0.4376   0.2024     H
H       0.8182   0.5624   0.7024     H
C       0.8219   0.3693   0.2211     C
C       0.8219   0.6307   0.7211     C
C         0.83   0.1729   0.2746     C
C         0.83   0.8271   0.7746     C
H       0.8322   0.1044   0.2927     H
H       0.8322   0.8956   0.7927     H
O       0.8475   0.3357   0.4949     O
O       0.8475   0.6643   0.9949     O
C        0.848   0.3687    0.927     C
C        0.848   0.6313    0.427     C
C       0.8483   0.3669   0.2787     C
C       0.8483   0.6331   0.7787     C
C       0.8513    0.173   0.9289     C
C       0.8513    0.827   0.4289     C
C       0.8521    0.267   0.3085     C
C       0.8521    0.733   0.8085     C
C       0.8526   0.4843   0.5581     C
C       0.8526   0.5157   0.0581     C
H       0.8644   0.4323   0.2995     H
H       0.8644   0.5677   0.7995     H
C       0.8654   0.3663   0.1225     C
C       0.8654   0.6337   0.6225     C
H       0.8672   0.4373    0.938     H
H       0.8672   0.5627    0.438     H
H       0.8734   0.1075   0.9411     H
H       0.8734   0.8925   0.4411     H
O       0.8795   0.1737    0.398     O
O       0.8795   0.8263    0.898     O
C         0.88   0.4018   0.5326     C
C         0.88   0.5982   0.0326     C
C       0.8804   0.2724   0.9419     C
C       0.8804   0.7276   0.4419     C
C       0.8805   0.2629   0.3725     C
C       0.8805   0.7371   0.8725     C
C       0.8894    0.446   0.1026     C
C       0.8894    0.554   0.6026     C
H       0.8898   0.3142   0.1494     H
H       0.8898   0.6858   0.6494     H
O        0.906   0.3489   0.4006     O
O        0.906   0.6511   0.9006     O
Cd     0.92987  0.25272  0.48905    Cd
Cd     0.92987  0.74728  0.98905    Cd
H         0.93    0.454   0.1186     H
H         0.93    0.546   0.6186     H
O       0.9347   0.3996   0.5523     O
O       0.9347   0.6004   0.0523     O
C       0.9474   0.2824   0.9729     C
C       0.9474   0.7176   0.4729     C
O       0.9714    0.375   0.9905     O
O       0.9714    0.625   0.4905     O
O       0.9769   0.1903   0.9784     O
O       0.9769   0.8097   0.4784     O
Na     0.97939   0.4875  0.42696    Na
Na     0.97939   0.5125  0.92696    Na
