data_I
_chemical_name_common  '/home/zhangsd/repos/MofS-CGCNN/ML/data/SSD/clean_cifs/BUSGIG_clean'
_cell_length_a  9.17500
_cell_length_b  9.49300
_cell_length_c 21.51000
_cell_angle_alpha 90.00000
_cell_angle_beta  90.00000
_cell_angle_gamma 116.48300
_space_group_name_H-M_alt      'P 1'


loop_
_space_group_symop_operation_xyz
  'x, y, z' 

loop_
_atom_site_label
_atom_site_fract_x
_atom_site_fract_y
_atom_site_fract_z
_atom_site_type_symbol
C       0.0025   0.4781   0.5336     C
N       0.0043   0.8653   0.3831     N
H       0.0044    0.345   0.7775     H
C       0.0119   0.0081   0.0355     C
C       0.0133   0.5225   0.1184     C
C       0.0292   0.5784   0.2319     C
Cu     0.03842  0.69177  0.35361    Cu
C       0.0404   0.8787   0.5813     C
C       0.0478   0.4904   0.1834     C
O       0.0516   0.1173  0.93417     O
O       0.0537     0.39  0.88944     O
O       0.0542   0.4597  0.07543     O
H       0.0548    0.791   0.5704     H
N       0.0576   0.5579   0.2918     N
O       0.0898    0.144  0.05696     O
C       0.0937   0.3737   0.1977     C
C       0.0971    0.112   0.4357     C
C        0.103   0.4436   0.3041     C
H       0.1076   0.3132   0.1664     H
C       0.1145   0.9817    0.418     C
C       0.1186   0.3486   0.2589     C
H       0.1247   0.4283   0.3451     H
Dy     0.12484  0.35745  0.99173    Dy
C        0.129   0.1206   0.6333     C
O       0.1303   0.6176  0.44212     O
O       0.1362   0.5391  0.56098     O
H       0.1458   0.2683   0.2697     H
C       0.1576   0.9976   0.6144     C
O       0.1604   0.7852  0.99614     O
H       0.2054   0.1976   0.6586     H
H       0.2071   0.9732   0.4308     H
O       0.2245   0.3713   0.4719     O
C       0.2326   0.2432    0.472     C
H       0.2447   0.0049    0.124     H
H       0.2553   0.9951    0.624     H
C       0.2674   0.7568    0.972     C
O       0.2755   0.6287   0.9719     O
H       0.2929   0.0268   0.9308     H
H       0.2946   0.8024   0.1586     H
O       0.3396   0.2148  0.49614     O
C       0.3424   0.0024   0.1144     C
H       0.3542   0.7317   0.7697     H
O       0.3638   0.4609  0.06098     O
O       0.3697   0.3824  0.94212     O
C        0.371   0.8794   0.1333     C
Dy     0.37516  0.64255  0.49173    Dy
H       0.3753   0.5717   0.8451     H
C       0.3814   0.6514   0.7589     C
C       0.3855   0.0183    0.918     C
H       0.3924   0.6868   0.6664     H
C        0.397   0.5564   0.8041     C
C       0.4029    0.888   0.9357     C
C       0.4063   0.6263   0.6977     C
O       0.4102    0.856  0.55696     O
N       0.4424   0.4421   0.7918     N
H       0.4452    0.209   0.0704     H
O       0.4458   0.5403  0.57543     O
O       0.4463     0.61  0.38944     O
O       0.4484   0.8827  0.43417     O
C       0.4522   0.5096   0.6834     C
C       0.4596   0.1213   0.0813     C
Cu     0.46158  0.30823  0.85361    Cu
C       0.4708   0.4216   0.7319     C
C       0.4867   0.4775   0.6184     C
C       0.4881   0.9919   0.5355     C
H       0.4956    0.655   0.2775     H
N       0.4957   0.1347   0.8831     N
C       0.4975   0.5219   0.0336     C
C       0.5025   0.4781   0.9664     C
N       0.5043   0.8653   0.1169     N
H       0.5044    0.345   0.7225     H
C       0.5119   0.0081   0.4645     C
C       0.5133   0.5225   0.3816     C
C       0.5292   0.5784   0.2681     C
Cu     0.53842  0.69177  0.14639    Cu
C       0.5404   0.8787   0.9187     C
C       0.5478   0.4904   0.3166     C
O       0.5516   0.1173  0.56583     O
O       0.5537     0.39  0.61056     O
O       0.5542   0.4597  0.42457     O
H       0.5548    0.791   0.9296     H
N       0.5576   0.5579   0.2082     N
O       0.5898    0.144  0.44304     O
C       0.5937   0.3737   0.3023     C
C       0.5971    0.112   0.0643     C
C        0.603   0.4436   0.1959     C
H       0.6076   0.3132   0.3336     H
C       0.6145   0.9817    0.082     C
C       0.6186   0.3486   0.2411     C
H       0.6247   0.4283   0.1549     H
Dy     0.62484  0.35745  0.50827    Dy
C        0.629   0.1206   0.8667     C
O       0.6303   0.6176  0.05788     O
O       0.6362   0.5391  0.93902     O
H       0.6458   0.2683   0.2303     H
C       0.6576   0.9976   0.8856     C
O       0.6604   0.7852  0.50386     O
H       0.7054   0.1976   0.8414     H
H       0.7071   0.9732   0.0692     H
O       0.7245   0.3713   0.0281     O
C       0.7326   0.2432    0.028     C
H       0.7447   0.0049    0.376     H
H       0.7553   0.9951    0.876     H
C       0.7674   0.7568    0.528     C
O       0.7755   0.6287   0.5281     O
H       0.7929   0.0268   0.5692     H
H       0.7946   0.8024   0.3414     H
O       0.8396   0.2148  0.00386     O
C       0.8424   0.0024   0.3856     C
H       0.8542   0.7317   0.7303     H
O       0.8638   0.4609  0.43902     O
O       0.8697   0.3824  0.55788     O
C        0.871   0.8794   0.3667     C
Dy     0.87516  0.64255  0.00827    Dy
H       0.8753   0.5717   0.6549     H
C       0.8814   0.6514   0.7411     C
C       0.8855   0.0183    0.582     C
H       0.8924   0.6868   0.8336     H
C        0.897   0.5564   0.6959     C
C       0.9029    0.888   0.5643     C
C       0.9063   0.6263   0.8023     C
O       0.9102    0.856  0.94304     O
N       0.9424   0.4421   0.7082     N
H       0.9452    0.209   0.4296     H
O       0.9458   0.5403  0.92457     O
O       0.9463     0.61  0.11056     O
O       0.9484   0.8827  0.06583     O
C       0.9522   0.5096   0.8166     C
C       0.9596   0.1213   0.4187     C
Cu     0.96158  0.30823  0.64639    Cu
C       0.9708   0.4216   0.7681     C
C       0.9867   0.4775   0.8816     C
C       0.9881   0.9919   0.9645     C
H       0.9956    0.655   0.2225     H
N       0.9957   0.1347   0.6169     N
C       0.9975   0.5219   0.4664     C
