data_I
_chemical_name_common  '/home/zhangsd/repos/MofS-CGCNN/ML/data/SSD/clean_cifs/BUSGOM_clean'
_cell_length_a  9.23330
_cell_length_b  9.55030
_cell_length_c 21.58500
_cell_angle_alpha 90.00000
_cell_angle_beta  90.00000
_cell_angle_gamma 116.00600
_space_group_name_H-M_alt      'P 1'


loop_
_space_group_symop_operation_xyz
  'x, y, z' 

loop_
_atom_site_label
_atom_site_fract_x
_atom_site_fract_y
_atom_site_fract_z
_atom_site_type_symbol
C       0.0035   0.9772   0.9663     C
H        0.004   0.8458   0.7239     H
N        0.005   0.3631   0.1169     N
C       0.0112    0.508   0.4645     C
C       0.0114   0.0273   0.3795     C
C       0.0291   0.0775    0.267     C
Cu     0.04086  0.19116  0.14545    Cu
C       0.0441   0.3826   0.9186     C
C        0.046   0.9915   0.3155     C
O       0.0504   0.9683  0.42451     O
O       0.0512   0.6154  0.56628     O
O       0.0569   0.8855  0.61438     O
N       0.0577   0.0568   0.2075     N
H       0.0608   0.2969   0.9301     H
O       0.0911   0.6421  0.44314     O
C       0.0941   0.8763   0.3021     C
C       0.0962   0.6096   0.0651     C
C       0.1035    0.943   0.1959     C
H       0.1089   0.8173   0.3336     H
C        0.115   0.4789   0.0827     C
C       0.1193   0.8514   0.2413     C
Sm     0.12341  0.85922  0.50856    Sm
H       0.1252   0.9265   0.1552     H
O       0.1268   0.1178  0.05786     O
C       0.1296   0.6247   0.8675     C
O       0.1366   0.0377  0.93933     O
H       0.1472   0.7719    0.231     H
C       0.1592   0.5018   0.8852     C
O        0.164   0.2873   0.5058     O
H       0.2063   0.7032   0.8436     H
H       0.2075   0.4708   0.0703     H
O         0.22   0.8679  0.03038     O
C       0.2281   0.7405   0.0306     C
H       0.2442   0.5007   0.3748     H
H       0.2558   0.4993   0.8748     H
C       0.2719   0.2595   0.5306     C
O         0.28   0.1321  0.53038     O
H       0.2925   0.5292   0.5703     H
H       0.2937   0.2968   0.3436     H
O        0.336   0.7127   0.0058     O
C       0.3408   0.4982   0.3852     C
H       0.3528   0.2281    0.731     H
O       0.3634   0.9623  0.43933     O
C       0.3704   0.3753   0.3675     C
O       0.3732   0.8822  0.55786     O
H       0.3748   0.0735   0.6552     H
Sm     0.37659  0.14078  0.00856    Sm
C       0.3807   0.1486   0.7413     C
C        0.385   0.5211   0.5827     C
H       0.3911   0.1827   0.8336     H
C       0.3965    0.057   0.6959     C
C       0.4038   0.3904   0.5651     C
C       0.4059   0.1237   0.8021     C
O       0.4089   0.3579  0.94314     O
H       0.4392   0.7031   0.4301     H
N       0.4423   0.9432   0.7075     N
O       0.4431   0.1145  0.11438     O
O       0.4488   0.3846  0.06628     O
O       0.4496   0.0317  0.92451     O
C        0.454   0.0085   0.8155     C
C       0.4559   0.6174   0.4186     C
Cu     0.45914  0.80884  0.64545    Cu
C       0.4709   0.9225    0.767     C
C       0.4886   0.9727   0.8795     C
C       0.4888    0.492   0.9645     C
N        0.495   0.6369   0.6169     N
H        0.496   0.1542   0.2239     H
C       0.4965   0.0228   0.4663     C
C       0.5035   0.9772   0.5337     C
H        0.504   0.8458   0.7761     H
N        0.505   0.3631   0.3831     N
C       0.5112    0.508   0.0355     C
C       0.5114   0.0273   0.1205     C
C       0.5291   0.0775    0.233     C
Cu     0.54086  0.19116  0.35455    Cu
C       0.5441   0.3826   0.5814     C
C        0.546   0.9915   0.1845     C
O       0.5504   0.9683  0.07549     O
O       0.5512   0.6154  0.93372     O
O       0.5569   0.8855  0.88562     O
N       0.5577   0.0568   0.2925     N
H       0.5608   0.2969   0.5699     H
O       0.5911   0.6421  0.05686     O
C       0.5941   0.8763   0.1979     C
C       0.5962   0.6096   0.4349     C
C       0.6035    0.943   0.3041     C
H       0.6089   0.8173   0.1664     H
C        0.615   0.4789   0.4173     C
C       0.6193   0.8514   0.2587     C
Sm     0.62341  0.85922  0.99144    Sm
H       0.6252   0.9265   0.3448     H
O       0.6268   0.1178  0.44214     O
C       0.6296   0.6247   0.6325     C
O       0.6366   0.0377  0.56067     O
H       0.6472   0.7719    0.269     H
C       0.6592   0.5018   0.6148     C
O        0.664   0.2873   0.9942     O
H       0.7063   0.7032   0.6564     H
H       0.7075   0.4708   0.4297     H
O         0.72   0.8679  0.46962     O
C       0.7281   0.7405   0.4694     C
H       0.7442   0.5007   0.1252     H
H       0.7558   0.4993   0.6252     H
C       0.7719   0.2595   0.9694     C
O         0.78   0.1321  0.96962     O
H       0.7925   0.5292   0.9297     H
H       0.7937   0.2968   0.1564     H
O        0.836   0.7127   0.4942     O
C       0.8408   0.4982   0.1148     C
H       0.8528   0.2281    0.769     H
O       0.8634   0.9623  0.06067     O
C       0.8704   0.3753   0.1325     C
O       0.8732   0.8822  0.94214     O
H       0.8748   0.0735   0.8448     H
Sm     0.87659  0.14078  0.49144    Sm
C       0.8807   0.1486   0.7587     C
C        0.885   0.5211   0.9173     C
H       0.8911   0.1827   0.6664     H
C       0.8965    0.057   0.8041     C
C       0.9038   0.3904   0.9349     C
C       0.9059   0.1237   0.6979     C
O       0.9089   0.3579  0.55686     O
H       0.9392   0.7031   0.0699     H
N       0.9423   0.9432   0.7925     N
O       0.9431   0.1145  0.38562     O
O       0.9488   0.3846  0.43372     O
O       0.9496   0.0317  0.57549     O
C        0.954   0.0085   0.6845     C
C       0.9559   0.6174   0.0814     C
Cu     0.95914  0.80884  0.85455    Cu
C       0.9709   0.9225    0.733     C
C       0.9886   0.9727   0.6205     C
C       0.9888    0.492   0.5355     C
N        0.995   0.6369   0.8831     N
H        0.996   0.1542   0.2761     H
C       0.9965   0.0228   0.0337     C
