data_I
_chemical_name_common  '/home/zhangsd/repos/MofS-CGCNN/ML/data/SSD/clean_cifs/BUSQIQ_clean'
_cell_length_a  6.99410
_cell_length_b  7.48900
_cell_length_c 11.14610
_cell_angle_alpha 107.82200
_cell_angle_beta  106.36400
_cell_angle_gamma 95.46640
_space_group_name_H-M_alt      'P 1'


loop_
_space_group_symop_operation_xyz
  'x, y, z' 

loop_
_atom_site_label
_atom_site_fract_x
_atom_site_fract_y
_atom_site_fract_z
_atom_site_type_symbol
Al         0.0      0.5      0.5    Al
H        0.006     0.69    0.352     H
O       0.0277   0.3162   0.5836     O
H        0.142    0.973    0.478     H
O        0.166   0.6992   0.6694     O
O       0.2315   0.4245    0.467     O
O       0.2355   0.0425    0.467     O
Al     0.29518  0.29518  0.59036    Al
C       0.3246   0.6819   0.7514     C
O       0.3279    0.199   0.7356     O
H        0.336    0.505    0.478     H
H        0.346    0.662    0.352     H
O       0.4077   0.5366   0.7356     O
C       0.4246   0.8465   0.8804     C
C       0.4268   0.0695   0.7514     C
O       0.4441   0.7326   0.4164     O
H       0.4481   0.6879     -0.0     H
C       0.4558   0.0339   0.8804     C
C       0.4693   0.8151      0.0     C
O       0.4966   0.0298   0.3306     O
Al         0.5      1.0      0.5    Al
O       0.5034   0.9702   0.6694     O
C       0.5307   0.1849      0.0     C
C       0.5442   0.9661   0.1196     C
H       0.5519   0.3121     -0.0     H
O       0.5559   0.2674   0.5836     O
C       0.5732   0.9305   0.2486     C
C       0.5754   0.1535   0.1196     C
O       0.5923   0.4634   0.2644     O
H        0.654    0.338    0.648     H
H        0.664    0.495    0.522     H
O       0.6721    0.801   0.2644     O
C       0.6754   0.3181   0.2486     C
Al     0.70482  0.70482  0.40964    Al
O       0.7645   0.9575    0.533     O
O       0.7685   0.5755    0.533     O
O        0.834   0.3008   0.3306     O
H        0.858    0.027    0.522     H
O       0.9723   0.6838   0.4164     O
H        0.994     0.31    0.648     H
