data_I
_chemical_name_common  '/home/zhangsd/repos/MofS-CGCNN/ML/data/SSD/clean_cifs/BUSQEM_clean'
_cell_length_a 11.61600
_cell_length_b 12.50300
_cell_length_c 14.89100
_cell_angle_alpha 90.00000
_cell_angle_beta  90.00000
_cell_angle_gamma 90.00000
_space_group_name_H-M_alt      'P 1'


loop_
_space_group_symop_operation_xyz
  'x, y, z' 

loop_
_atom_site_label
_atom_site_fract_x
_atom_site_fract_y
_atom_site_fract_z
_atom_site_type_symbol
C       0.0638   0.0272      0.5     C
C       0.0638   0.9728      1.0     C
C       0.0642      0.5     0.25     C
C       0.0642      0.5     0.75     C
C       0.0771    0.092   0.4203     C
C       0.0771    0.092   0.5797     C
C       0.0771    0.908   0.0797     C
C       0.0771    0.908   0.9203     C
H       0.0867   0.3429   0.2808     H
H       0.0867   0.3429   0.7192     H
H       0.0867   0.6571   0.2192     H
H       0.0867   0.6571   0.7808     H
N       0.0941   0.1396   0.3573     N
N       0.0941   0.1396   0.6427     N
N       0.0941   0.8604   0.1427     N
N       0.0941   0.8604   0.8573     N
C       0.1257    0.408   0.2681     C
C       0.1257    0.408   0.7319     C
C       0.1257    0.592   0.2319     C
C       0.1257    0.592   0.7681     C
C       0.1565   0.0638      0.0     C
C       0.1565   0.9362      0.5     C
H       0.1635    0.082   0.1352     H
H       0.1635    0.082   0.8648     H
H       0.1635    0.918   0.3648     H
H       0.1635    0.918   0.6352     H
C       0.1942   0.1074     0.08     C
C       0.1942   0.1074     0.92     C
C       0.1942   0.8926     0.42     C
C       0.1942   0.8926     0.58     C
C       0.2449   0.4118   0.2678     C
C       0.2449   0.4118   0.7322     C
C       0.2449   0.5882   0.2322     C
C       0.2449   0.5882   0.7678     C
C       0.2757    0.188   0.0804     C
C       0.2757    0.188   0.9196     C
C       0.2757    0.812   0.4196     C
C       0.2757    0.812   0.5804     C
H        0.286   0.3481   0.2813     H
H        0.286   0.3481   0.7187     H
H        0.286   0.6519   0.2187     H
H        0.286   0.6519   0.7813     H
H       0.3006   0.2174   0.1359     H
H       0.3006   0.2174   0.8641     H
H       0.3006   0.7826   0.3641     H
H       0.3006   0.7826   0.6359     H
N       0.3045      0.5     0.25     N
N       0.3045      0.5     0.75     N
C       0.3232   0.2264      0.0     C
C       0.3232   0.7736      0.5     C
C       0.4173   0.3021      0.0     C
C       0.4173   0.6979      0.5     C
C       0.4632   0.3417   0.0798     C
C       0.4632   0.3417   0.9202     C
C       0.4632   0.6583   0.4202     C
C       0.4632   0.6583   0.5798     C
N       0.4986   0.3747   0.3542     N
N       0.4986   0.3747   0.6458     N
N       0.4986   0.6253   0.1458     N
N       0.4986   0.6253   0.8542     N
Mn         0.5      0.5     0.25    Mn
Mn         0.5      0.5     0.75    Mn
N       0.5014   0.3747   0.1458     N
N       0.5014   0.3747   0.8542     N
N       0.5014   0.6253   0.3542     N
N       0.5014   0.6253   0.6458     N
C       0.5368   0.3417   0.4202     C
C       0.5368   0.3417   0.5798     C
C       0.5368   0.6583   0.0798     C
C       0.5368   0.6583   0.9202     C
C       0.5827   0.3021      0.5     C
C       0.5827   0.6979      0.0     C
C       0.6768   0.2264      0.5     C
C       0.6768   0.7736      0.0     C
N       0.6955      0.5     0.25     N
N       0.6955      0.5     0.75     N
H       0.6994   0.2174   0.3641     H
H       0.6994   0.2174   0.6359     H
H       0.6994   0.7826   0.1359     H
H       0.6994   0.7826   0.8641     H
H        0.714   0.3481   0.2187     H
H        0.714   0.3481   0.7813     H
H        0.714   0.6519   0.2813     H
H        0.714   0.6519   0.7187     H
C       0.7243    0.188   0.4196     C
C       0.7243    0.188   0.5804     C
C       0.7243    0.812   0.0804     C
C       0.7243    0.812   0.9196     C
C       0.7551   0.4118   0.2322     C
C       0.7551   0.4118   0.7678     C
C       0.7551   0.5882   0.2678     C
C       0.7551   0.5882   0.7322     C
C       0.8058   0.1074     0.42     C
C       0.8058   0.1074     0.58     C
C       0.8058   0.8926     0.08     C
C       0.8058   0.8926     0.92     C
H       0.8365    0.082   0.3648     H
H       0.8365    0.082   0.6352     H
H       0.8365    0.918   0.1352     H
H       0.8365    0.918   0.8648     H
C       0.8435   0.0638      0.5     C
C       0.8435   0.9362      0.0     C
C       0.8743    0.408   0.2319     C
C       0.8743    0.408   0.7681     C
C       0.8743    0.592   0.2681     C
C       0.8743    0.592   0.7319     C
N       0.9059   0.1396   0.1427     N
N       0.9059   0.1396   0.8573     N
N       0.9059   0.8604   0.3573     N
N       0.9059   0.8604   0.6427     N
H       0.9133   0.3429   0.2192     H
H       0.9133   0.3429   0.7808     H
H       0.9133   0.6571   0.2808     H
H       0.9133   0.6571   0.7192     H
C       0.9229    0.092   0.0797     C
C       0.9229    0.092   0.9203     C
C       0.9229    0.908   0.4203     C
C       0.9229    0.908   0.5797     C
C       0.9358      0.5     0.25     C
C       0.9358      0.5     0.75     C
C       0.9362   0.0272      0.0     C
C       0.9362   0.9728      0.5     C
