data_I
_chemical_name_common  '/home/zhangsd/repos/MofS-CGCNN/ML/data/SSD/clean_cifs/CAKXET_clean'
_cell_length_a  7.98090
_cell_length_b  9.74650
_cell_length_c 15.92650
_cell_angle_alpha 90.00000
_cell_angle_beta  90.00000
_cell_angle_gamma 96.21590
_space_group_name_H-M_alt      'P 1'


loop_
_space_group_symop_operation_xyz
  'x, y, z' 

loop_
_atom_site_label
_atom_site_fract_x
_atom_site_fract_y
_atom_site_fract_z
_atom_site_type_symbol
H       0.0314  0.31504  0.61209     H
O       0.0491   0.2964  0.42855     O
C       0.0567   0.4253   0.4183     C
Sm     0.08019   0.8649  0.67327    Sm
C       0.0865   0.5237   0.6317     C
C       0.0894   0.9908   0.4841     C
C       0.1049   0.3844   0.6409     C
H      0.11737  0.84707  0.24853     H
O       0.1176   0.3134  0.25943     O
O       0.1248   0.0247  0.40992     O
O         0.15   0.1111  0.68864     O
N       0.1625   0.0515   0.2316     N
O       0.1711   0.5128  0.44246     O
O       0.1878   0.9435  0.53553     O
C       0.1889   0.9205   0.2188     C
N       0.1895    0.621   0.6706     N
C       0.2317   0.3512   0.6932     C
C       0.2427   0.2963   0.2149     C
C       0.2573   0.2037   0.7149     C
C       0.2683   0.1488   0.1932     C
N       0.3105    0.879   0.1706     N
C       0.3111   0.5795   0.7188     C
O       0.3122   0.5565  0.03553     O
O       0.3289   0.9872  0.94246     O
N       0.3375   0.4485   0.7316     N
O         0.35   0.3889  0.18864     O
O       0.3752   0.4753  0.90992     O
O       0.3824   0.1866  0.75943     O
H      0.38263  0.65293  0.74853     H
C       0.3951   0.1156   0.1409     C
C       0.4106   0.5092   0.9841     C
C       0.4135   0.9763   0.1317     C
Sm     0.41981   0.6351  0.17327    Sm
C       0.4433   0.0747   0.9183     C
O       0.4509   0.2036  0.92855     O
H       0.4686  0.18496  0.11209     H
H       0.5314  0.81504  0.88791     H
O       0.5491   0.7964  0.07145     O
C       0.5567   0.9253   0.0817     C
Sm     0.58019   0.3649  0.82673    Sm
C       0.5865   0.0237   0.8683     C
C       0.5894   0.4908   0.0159     C
C       0.6049   0.8844   0.8591     C
H      0.61737  0.34707  0.25147     H
O       0.6176   0.8134  0.24057     O
O       0.6248   0.5247  0.09008     O
O         0.65   0.6111  0.81136     O
N       0.6625   0.5515   0.2684     N
O       0.6711   0.0128  0.05754     O
O       0.6878   0.4435  0.96447     O
C       0.6889   0.4205   0.2812     C
N       0.6895    0.121   0.8294     N
C       0.7317   0.8512   0.8068     C
C       0.7427   0.7963   0.2851     C
C       0.7573   0.7037   0.7851     C
C       0.7683   0.6488   0.3068     C
N       0.8105    0.379   0.3294     N
C       0.8111   0.0795   0.7812     C
O       0.8122   0.0565  0.46447     O
O       0.8289   0.4872  0.55754     O
N       0.8375   0.9485   0.7684     N
O         0.85   0.8889  0.31136     O
O       0.8752   0.9753  0.59008     O
O       0.8824   0.6866  0.74057     O
H      0.88263  0.15293  0.75147     H
C       0.8951   0.6156   0.3591     C
C       0.9106   0.0092   0.5159     C
C       0.9135   0.4763   0.3683     C
Sm     0.91981   0.1351  0.32673    Sm
C       0.9433   0.5747   0.5817     C
O       0.9509   0.7036  0.57145     O
H       0.9686  0.68496  0.38791     H
