data_I
_chemical_name_common  '/home/zhangsd/repos/MofS-CGCNN/ML/data/SSD/clean_cifs/CAKYIY_clean'
_cell_length_a  7.92300
_cell_length_b  9.59260
_cell_length_c 15.79380
_cell_angle_alpha 90.00000
_cell_angle_beta  90.00000
_cell_angle_gamma 96.75900
_space_group_name_H-M_alt      'P 1'


loop_
_space_group_symop_operation_xyz
  'x, y, z' 

loop_
_atom_site_label
_atom_site_fract_x
_atom_site_fract_y
_atom_site_fract_z
_atom_site_type_symbol
H       0.0314  0.31504  0.61209     H
O       0.0527   0.2901   0.4295     O
C       0.0601    0.422   0.4193     C
Er     0.07183  0.86722   0.6726    Er
C       0.0813   0.5274   0.6322     C
C       0.0912   0.9901   0.4851     C
C       0.1001   0.3858   0.6409     C
H      0.11737  0.84707  0.24853     H
O       0.1242   0.3128   0.2633     O
O       0.1278   0.0224   0.4099     O
O       0.1449   0.1088   0.6896     O
N       0.1696   0.0479   0.2355     N
O       0.1753   0.5108   0.4445     O
N       0.1827   0.6264   0.6733     N
O       0.1867   0.9435   0.5377     O
C        0.197    0.915   0.2226     C
C       0.2256   0.3531   0.6951     C
C       0.2494   0.2963   0.2174     C
C       0.2506   0.2037   0.7174     C
C       0.2744   0.1469   0.1951     C
C        0.303    0.585   0.7226     C
O       0.3133   0.5565   0.0377     O
N       0.3173   0.8736   0.1733     N
O       0.3247   0.9892   0.9445     O
N       0.3304   0.4521   0.7355     N
O       0.3551   0.3912   0.1896     O
O       0.3722   0.4776   0.9099     O
O       0.3758   0.1872   0.7633     O
H      0.38263  0.65293  0.74853     H
C       0.3999   0.1142   0.1409     C
C       0.4088   0.5099   0.9851     C
C       0.4187   0.9726   0.1322     C
Er     0.42817  0.63278   0.1726    Er
C       0.4399    0.078   0.9193     C
O       0.4473   0.2099   0.9295     O
H       0.4686  0.18496  0.11209     H
H       0.5314  0.81504  0.88791     H
O       0.5527   0.7901   0.0705     O
C       0.5601    0.922   0.0807     C
Er     0.57183  0.36722   0.8274    Er
C       0.5813   0.0274   0.8678     C
C       0.5912   0.4901   0.0149     C
C       0.6001   0.8858   0.8591     C
H      0.61737  0.34707  0.25147     H
O       0.6242   0.8128   0.2367     O
O       0.6278   0.5224   0.0901     O
O       0.6449   0.6088   0.8104     O
N       0.6696   0.5479   0.2645     N
O       0.6753   0.0108   0.0555     O
N       0.6827   0.1264   0.8267     N
O       0.6867   0.4435   0.9623     O
C        0.697    0.415   0.2774     C
C       0.7256   0.8531   0.8049     C
C       0.7494   0.7963   0.2826     C
C       0.7506   0.7037   0.7826     C
C       0.7744   0.6469   0.3049     C
C        0.803    0.085   0.7774     C
O       0.8133   0.0565   0.4623     O
N       0.8173   0.3736   0.3267     N
O       0.8247   0.4892   0.5555     O
N       0.8304   0.9521   0.7645     N
O       0.8551   0.8912   0.3104     O
O       0.8722   0.9776   0.5901     O
O       0.8758   0.6872   0.7367     O
H      0.88263  0.15293  0.75147     H
C       0.8999   0.6142   0.3591     C
C       0.9088   0.0099   0.5149     C
C       0.9187   0.4726   0.3678     C
Er     0.92817  0.13278   0.3274    Er
C       0.9399    0.578   0.5807     C
O       0.9473   0.7099   0.5705     O
H       0.9686  0.68496  0.38791     H
