data_I
_chemical_name_common  '/home/zhangsd/repos/MofS-CGCNN/ML/data/SSD/clean_cifs/CAKYAQ_clean'
_cell_length_a  7.95500
_cell_length_b  9.65000
_cell_length_c 15.84500
_cell_angle_alpha 90.00000
_cell_angle_beta  90.00000
_cell_angle_gamma 96.55500
_space_group_name_H-M_alt      'P 1'


loop_
_space_group_symop_operation_xyz
  'x, y, z' 

loop_
_atom_site_label
_atom_site_fract_x
_atom_site_fract_y
_atom_site_fract_z
_atom_site_type_symbol
H       0.0314  0.31504  0.61209     H
O       0.0505   0.2918   0.4294     O
C       0.0584   0.4231   0.4188     C
Dy     0.07562   0.8669   0.6729    Dy
C       0.0839   0.5267   0.6319     C
C       0.0898   0.9904   0.4849     C
C       0.1023   0.3858   0.6411     C
H      0.11737  0.84707  0.24853     H
O       0.1207   0.3124   0.2617     O
O       0.1261   0.0229   0.4096     O
O       0.1473   0.1096   0.6895     O
N       0.1665   0.0483   0.2341     N
O       0.1734   0.5108   0.4435     O
N       0.1862    0.625   0.6722     N
O       0.1874   0.9433   0.5369     O
C       0.1926   0.9168    0.221     C
C       0.2282    0.353   0.6946     C
C       0.2461   0.2952   0.2166     C
C       0.2539   0.2048   0.7166     C
C       0.2718    0.147   0.1946     C
C       0.3074   0.5832    0.721     C
O       0.3126   0.5567   0.0369     O
N       0.3138    0.875   0.1722     N
O       0.3266   0.9892   0.9435     O
N       0.3335   0.4517   0.7341     N
O       0.3527   0.3904   0.1895     O
O       0.3739   0.4771   0.9096     O
O       0.3793   0.1876   0.7617     O
H      0.38263  0.65293  0.74853     H
C       0.3977   0.1142   0.1411     C
C       0.4102   0.5096   0.9849     C
C       0.4161   0.9733   0.1319     C
Dy     0.42438   0.6331   0.1729    Dy
C       0.4416   0.0769   0.9188     C
O       0.4495   0.2082   0.9294     O
H       0.4686  0.18496  0.11209     H
H       0.5314  0.81504  0.88791     H
O       0.5505   0.7918   0.0706     O
C       0.5584   0.9231   0.0812     C
Dy     0.57562   0.3669   0.8271    Dy
C       0.5839   0.0267   0.8681     C
C       0.5898   0.4904   0.0151     C
C       0.6023   0.8858   0.8589     C
H      0.61737  0.34707  0.25147     H
O       0.6207   0.8124   0.2383     O
O       0.6261   0.5229   0.0904     O
O       0.6473   0.6096   0.8105     O
N       0.6665   0.5483   0.2659     N
O       0.6734   0.0108   0.0565     O
N       0.6862    0.125   0.8278     N
O       0.6874   0.4433   0.9631     O
C       0.6926   0.4168    0.279     C
C       0.7282    0.853   0.8054     C
C       0.7461   0.7952   0.2834     C
C       0.7539   0.7048   0.7834     C
C       0.7718    0.647   0.3054     C
C       0.8074   0.0832    0.779     C
O       0.8126   0.0567   0.4631     O
N       0.8138    0.375   0.3278     N
O       0.8266   0.4892   0.5565     O
N       0.8335   0.9517   0.7659     N
O       0.8527   0.8904   0.3105     O
O       0.8739   0.9771   0.5904     O
O       0.8793   0.6876   0.7383     O
H      0.88263  0.15293  0.75147     H
C       0.8977   0.6142   0.3589     C
C       0.9102   0.0096   0.5151     C
C       0.9161   0.4733   0.3681     C
Dy     0.92438   0.1331   0.3271    Dy
C       0.9416   0.5769   0.5812     C
O       0.9495   0.7082   0.5706     O
H       0.9686  0.68496  0.38791     H
