data_I
_chemical_name_common  '/home/zhangsd/repos/MofS-CGCNN/ML/data/SSD/clean_cifs/CAKYEU_clean'
_cell_length_a  7.93750
_cell_length_b  9.62190
_cell_length_c 15.82160
_cell_angle_alpha 90.00000
_cell_angle_beta  90.00000
_cell_angle_gamma 96.62500
_space_group_name_H-M_alt      'P 1'


loop_
_space_group_symop_operation_xyz
  'x, y, z' 

loop_
_atom_site_label
_atom_site_fract_x
_atom_site_fract_y
_atom_site_fract_z
_atom_site_type_symbol
H       0.0314  0.31504  0.61209     H
O       0.0515   0.2916  0.42931     O
C       0.0604   0.4226   0.4189     C
Ho     0.07276  0.86692  0.67277    Ho
C       0.0819   0.5271   0.6321     C
C       0.0912   0.9901    0.485     C
C       0.1005   0.3862   0.6414     C
H      0.11737  0.84707  0.24853     H
O       0.1236   0.3126  0.26254     O
O       0.1273   0.0226  0.41026     O
O       0.1439   0.1091  0.68988     O
N       0.1688   0.0478  0.23498     N
O       0.1752   0.5114  0.44439     O
N       0.1828   0.6257  0.67276     N
O        0.187   0.9436  0.53773     O
C       0.1966   0.9155    0.222     C
C       0.2253   0.3527    0.695     C
C       0.2487   0.2958   0.2171     C
C       0.2513   0.2042   0.7171     C
C       0.2747   0.1473    0.195     C
C       0.3034   0.5845    0.722     C
O        0.313   0.5564  0.03773     O
N       0.3172   0.8743  0.17276     N
O       0.3248   0.9886  0.94439     O
N       0.3312   0.4522  0.73498     N
O       0.3561   0.3909  0.18988     O
O       0.3727   0.4774  0.91026     O
O       0.3764   0.1874  0.76254     O
H      0.38263  0.65293  0.74853     H
C       0.3995   0.1138   0.1414     C
C       0.4088   0.5099    0.985     C
C       0.4181   0.9729   0.1321     C
Ho     0.42724  0.63308  0.17277    Ho
C       0.4396   0.0774   0.9189     C
O       0.4485   0.2084  0.92931     O
H       0.4686  0.18496  0.11209     H
H       0.5314  0.81504  0.88791     H
O       0.5515   0.7916  0.07069     O
C       0.5604   0.9226   0.0811     C
Ho     0.57276  0.36692  0.82723    Ho
C       0.5819   0.0271   0.8679     C
C       0.5912   0.4901    0.015     C
C       0.6005   0.8862   0.8586     C
H      0.61737  0.34707  0.25147     H
O       0.6236   0.8126  0.23746     O
O       0.6273   0.5226  0.08974     O
O       0.6439   0.6091  0.81012     O
N       0.6688   0.5478  0.26502     N
O       0.6752   0.0114  0.05561     O
N       0.6828   0.1257  0.82724     N
O        0.687   0.4436  0.96227     O
C       0.6966   0.4155    0.278     C
C       0.7253   0.8527    0.805     C
C       0.7487   0.7958   0.2829     C
C       0.7513   0.7042   0.7829     C
C       0.7747   0.6473    0.305     C
C       0.8034   0.0845    0.778     C
O        0.813   0.0564  0.46227     O
N       0.8172   0.3743  0.32724     N
O       0.8248   0.4886  0.55561     O
N       0.8312   0.9522  0.76502     N
O       0.8561   0.8909  0.31012     O
O       0.8727   0.9774  0.58974     O
O       0.8764   0.6874  0.73746     O
H      0.88263  0.15293  0.75147     H
C       0.8995   0.6138   0.3586     C
C       0.9088   0.0099    0.515     C
C       0.9181   0.4729   0.3679     C
Ho     0.92724  0.13308  0.32723    Ho
C       0.9396   0.5774   0.5811     C
O       0.9485   0.7084  0.57069     O
H       0.9686  0.68496  0.38791     H
