data_I
_chemical_name_common  '/home/zhangsd/repos/MofS-CGCNN/ML/data/SSD/clean_cifs/CARGEI_clean'
_cell_length_a  9.15710
_cell_length_b  9.15700
_cell_length_c 33.37060
_cell_angle_alpha 94.30700
_cell_angle_beta  94.30700
_cell_angle_gamma 116.91300
_space_group_name_H-M_alt      'P 1'


loop_
_space_group_symop_operation_xyz
  'x, y, z' 

loop_
_atom_site_label
_atom_site_fract_x
_atom_site_fract_y
_atom_site_fract_z
_atom_site_type_symbol
C       0.0023   0.5075   0.0644     C
N       0.0114   0.3224    0.403     N
C       0.0281   0.5517   0.1912     C
N        0.043    0.145   0.7134     N
N       0.0447   0.1417    0.588     N
N       0.0537   0.4567    0.912     N
C       0.0569   0.0621   0.5644     C
C       0.0621   0.0569   0.0644     C
N       0.0684   0.6704   0.2134     N
Ag     0.08105  0.89017  0.52294    Ag
Ag     0.08575  0.65755  0.85106    Ag
Ag     0.10983  0.91895  0.97706    Ag
C       0.1103   0.7703   0.6154     C
Cs     0.11498  0.67514  0.35902    Cs
Ag       0.125    0.875     0.25    Ag
C       0.1325   0.7199   0.4888     C
Ag     0.13277  0.44189  0.02294    Ag
C       0.1395   0.1631   0.6912     C
N       0.1417   0.0447    0.088     N
N        0.145    0.043   0.2134     N
C       0.1631   0.1395   0.1912     C
N       0.1703   0.6321   0.4704     N
Cs     0.18388  0.24404  0.85902    Cs
Ag     0.22069  0.47069  0.44138    Ag
C       0.2297   0.8897   0.8846     C
Ag     0.23469  0.30649  0.14894    Ag
Cs     0.24404  0.18388  0.35902    Cs
C       0.2689   0.3563   0.9888     C
Cs     0.27934  0.52934  0.55868    Cs
C       0.2801   0.8675   0.0112     C
N       0.3001   0.3383   0.4704     N
Ag     0.30649  0.23469  0.64894    Ag
N       0.3224   0.0114    0.903     N
Cs     0.32486  0.88502  0.14098    Cs
N       0.3269   0.5769   0.6538     N
N       0.3296   0.9316   0.2866     N
N       0.3383   0.3001   0.9704     N
C       0.3412   0.5912   0.6824     C
Ag     0.34245  0.91425  0.64894    Ag
C       0.3451   0.5051   0.1154     C
C       0.3563   0.2689   0.4888     C
N       0.3679   0.8297   0.0296     N
Ag       0.375    0.625     0.75    Ag
N       0.3916   0.5806    0.403     N
C       0.4088   0.6588   0.8176     C
N       0.4194   0.6084    0.097     N
N       0.4231   0.6731   0.8462     N
Ag     0.44189  0.13277  0.52294    Ag
C       0.4483   0.9719   0.3088     C
N       0.4567   0.0537    0.412     N
Cs     0.47066  0.72066  0.94132    Cs
Ag     0.47069  0.22069  0.94138    Ag
C       0.4925   0.9977   0.4356     C
C       0.4949   0.6549   0.3846     C
C       0.5051   0.3451   0.6154     C
C       0.5075   0.0023   0.5644     C
Ag     0.52931  0.77931  0.05862    Ag
Cs     0.52934  0.27934  0.05868    Cs
N       0.5433   0.9463    0.588     N
C       0.5517   0.0281   0.6912     C
Ag     0.55811  0.86723  0.47706    Ag
N       0.5769   0.3269   0.1538     N
N       0.5806   0.3916    0.903     N
C       0.5912   0.3412   0.1824     C
N       0.6084   0.4194    0.597     N
Ag       0.625    0.375     0.25    Ag
N       0.6321   0.1703   0.9704     N
C       0.6437   0.7311   0.5112     C
C       0.6549   0.4949   0.8846     C
Ag     0.65755  0.08575  0.35106    Ag
C       0.6588   0.4088   0.3176     C
N       0.6617   0.6999   0.0296     N
N       0.6704   0.0684   0.7134     N
N       0.6731   0.4231   0.3462     N
Cs     0.67514  0.11498  0.85902    Cs
N       0.6776   0.9886    0.097     N
Ag     0.69351  0.76531  0.35106    Ag
N       0.6999   0.6617   0.5296     N
C       0.7199   0.1325   0.9888     C
Cs     0.72066  0.47066  0.44132    Cs
C       0.7311   0.6437   0.0112     C
Cs     0.75596  0.81612  0.64098    Cs
Ag     0.76531  0.69351  0.85106    Ag
C       0.7703   0.1103   0.1154     C
Ag     0.77931  0.52931  0.55862    Ag
Cs     0.81612  0.75596  0.14098    Cs
N       0.8297   0.3679   0.5296     N
C       0.8369   0.8605   0.8088     C
N        0.855    0.957   0.7866     N
N       0.8583   0.9553    0.912     N
C       0.8605   0.8369   0.3088     C
Ag     0.86723  0.55811  0.97706    Ag
C       0.8675   0.2801   0.5112     C
Ag       0.875    0.125     0.75    Ag
Cs     0.88502  0.32486  0.64098    Cs
C       0.8897   0.2297   0.3846     C
Ag     0.89017  0.08105  0.02294    Ag
Ag     0.91425  0.34245  0.14894    Ag
Ag     0.91895  0.10983  0.47706    Ag
N       0.9316   0.3296   0.7866     N
C       0.9379   0.9431   0.9356     C
C       0.9431   0.9379   0.4356     C
N       0.9463   0.5433    0.088     N
N       0.9553   0.8583    0.412     N
N        0.957    0.855   0.2866     N
C       0.9719   0.4483   0.8088     C
N       0.9886   0.6776    0.597     N
C       0.9977   0.4925   0.9356     C
