data_I
_chemical_name_common  '/home/zhangsd/repos/MofS-CGCNN/ML/data/SSD/clean_cifs/CAVTAW_clean'
_cell_length_a 12.50350
_cell_length_b 18.18740
_cell_length_c  5.82000
_cell_angle_alpha 90.00000
_cell_angle_beta  101.92300
_cell_angle_gamma 90.00000
_space_group_name_H-M_alt      'P 1'


loop_
_space_group_symop_operation_xyz
  'x, y, z' 

loop_
_atom_site_label
_atom_site_fract_x
_atom_site_fract_y
_atom_site_fract_z
_atom_site_type_symbol
C        0.001   0.4849    0.459     C
C       0.0166   0.0652    0.524     C
O        0.082    0.868    0.041     O
C        0.097   0.4627    0.357     C
C       0.1237   0.0992     0.51     C
O        0.127   0.6066    0.069     O
C       0.1529   0.0878    0.274     C
P       0.2068   0.8804    0.073     P
C       0.2093   0.4863     0.49     C
C       0.2312   0.9783    0.087     C
N       0.2429    0.032    0.287     N
O       0.2484   0.8487     0.86     O
P       0.2521   0.6126    0.086     P
O        0.268   0.8468    0.306     O
O       0.2815   0.6341    0.849     O
N       0.3003   0.4715    0.364     N
O       0.3049    0.663     0.29     O
C       0.3091   0.5229    0.167     C
C       0.3115   0.3943    0.279     C
La      0.3305     0.75   0.6237    La
C       0.3484   0.0732    0.319     C
O       0.4299   0.0892    0.914     O
O       0.4326   0.3659    0.955     O
P       0.4468   0.3986    0.203     P
O       0.4507   0.5301    0.722     O
P       0.4652   0.0889     0.18     P
O       0.4831   0.8486    0.602     O
O       0.4922   0.4759    0.233     O
O       0.4996   0.1682    0.259     O
O       0.5004   0.6682    0.741     O
O       0.5078   0.9759    0.767     O
O       0.5169   0.3486    0.398     O
P       0.5348   0.5889     0.82     P
O       0.5493   0.0301    0.278     O
P       0.5532   0.8986    0.797     P
O       0.5674   0.8659    0.045     O
O       0.5701   0.5892    0.086     O
C       0.6516   0.5732    0.681     C
La      0.6695     0.25   0.3763    La
C       0.6885   0.8943    0.721     C
C       0.6909   0.0229    0.833     C
O       0.6951    0.163     0.71     O
N       0.6997   0.9715    0.636     N
O       0.7185   0.1341    0.151     O
O        0.732   0.3468    0.694     O
P       0.7479   0.1126    0.914     P
O       0.7516   0.3487     0.14     O
N       0.7571    0.532    0.713     N
C       0.7688   0.4783    0.913     C
C       0.7907   0.9863     0.51     C
P       0.7932   0.3804    0.927     P
C       0.8471   0.5878    0.726     C
O        0.873   0.1066    0.931     O
C       0.8763   0.5992     0.49     C
C        0.903   0.9627    0.643     C
O        0.918    0.368    0.959     O
C       0.9834   0.5652    0.476     C
C        0.999   0.9849    0.541     C
