data_I
_chemical_name_common  '/home/zhangsd/repos/MofS-CGCNN/ML/data/SSD/clean_cifs/CAWZUX_clean'
_cell_length_a 13.55360
_cell_length_b 19.04630
_cell_length_c 25.82560
_cell_angle_alpha 90.00000
_cell_angle_beta  96.64110
_cell_angle_gamma 90.00000
_space_group_name_H-M_alt      'P 1'


loop_
_space_group_symop_operation_xyz
  'x, y, z' 

loop_
_atom_site_label
_atom_site_fract_x
_atom_site_fract_y
_atom_site_fract_z
_atom_site_type_symbol
C      0.00125   0.6943  0.58635     C
H       0.0039   0.5195   0.3923     H
C      0.01471   0.6172  0.59971     C
H       0.0156    0.519   0.8204     H
H       0.0186   0.9954   0.8656     H
C      0.01901   0.5821  0.88291     C
H       0.0197   0.0237   0.3425     H
N      0.02005  0.16367  0.44115     N
C      0.02061   0.4477  0.16341     C
C       0.0228   0.1219   0.0949     C
H       0.0276   0.3812   0.3272     H
C      0.02853    0.473  0.64103     C
N      0.02956  0.36988  0.09126     N
C       0.0307   0.1896   0.0745     C
H       0.0311   0.3684   0.6357     H
H       0.0311    0.922   0.4481     H
H       0.0313   0.7543    0.182     H
C      0.03167    0.605  0.65767     C
H       0.0351   0.8515   0.7166     H
C      0.03606   0.7859  0.77716     C
Ni     0.03665  0.05749  0.45723    Ni
O      0.03722  0.72799  0.43442     O
H       0.0381    0.136   0.7112     H
Ni      0.0391  0.67444   0.9786    Ni
H       0.0439   0.4085   0.4147     H
V      0.04481  0.21366  0.60271     V
N      0.04652  0.72184  0.25472     N
C      0.04852   0.4055  0.65832     C
H       0.0498   0.0254    0.747     H
N       0.0505   0.7734   0.9458     N
O       0.0522  0.94816   0.4777     O
C       0.0566   0.5301   0.6731     C
C      0.06974  0.80685  0.57004     C
H       0.0709    0.599   0.5838     H
C       0.0729    0.908   0.9055     C
C      0.07292   0.2099  0.21612     C
O      0.07536  0.24609  0.66176     O
C      0.07624   0.8249  0.74034     C
H       0.0766   0.7155   0.8344     H
C      0.07722  0.12925  0.74282     C
C      0.07843   0.7431  0.20993     C
H       0.0791   0.0972   0.1083     H
H       0.0823   0.5684   0.8971     H
C      0.08288   0.7374  0.58398     C
C       0.0841   0.9789   0.8795     C
C      0.08435   0.0624  0.76415     C
H       0.0844   0.2355   0.1849     H
H       0.0855   0.6351   0.6724     H
C      0.08745   0.0326  0.34905     C
H       0.0903   0.1612    0.211     H
O      0.09039  0.96547  0.58709     O
C      0.09186   0.2755  0.42466     C
N      0.09221  0.39089  0.70661     N
H       0.0933   0.2098    0.075     H
H        0.095   0.6922   0.3257     H
O      0.09703  0.29643  0.00273     O
C      0.09959    0.205  0.43839     C
C      0.10075   0.7441  0.80955     C
Ni      0.1057  0.28598   0.7358    Ni
C      0.10871   0.5149  0.72101     C
H       0.1109   0.0122   0.9059     H
H        0.112    0.926    0.484     H
H       0.1147   0.0212   0.2744     H
C      0.11508   0.4282  0.18628     C
C      0.11575   0.7066  0.29425     C
H       0.1163   0.4593    0.262     H
C      0.12129   0.3519  0.11239     C
C      0.12342  0.44579  0.73632     C
N      0.12453  0.18443  0.76603     N
H       0.1251   0.2883   0.2665     H
H       0.1258   0.8346   0.5683     H
H       0.1268   0.9437   0.8108     H
N      0.12694  0.04634  0.39834     N
H       0.1278   0.2145   0.2935     H
H       0.1289   0.5665   0.2182     H
V      0.12917  0.34908  0.87144     V
O      0.13039  0.32788  0.80967     O
H       0.1338    0.551   0.7429     H
V      0.13894  0.67011   0.4542     V
C      0.14079   0.2391  0.26209     C
C       0.1411   0.8026   0.9465     C
C      0.14362   0.0507  0.81162     C
C      0.14443   0.0314  0.30783     C
H       0.1467   0.7195   0.5918     H
H       0.1471     0.57   0.1255     H
H       0.1488   0.3023   0.4229     H
C       0.1491   0.9792   0.8365     C
O      0.15028  0.07922  0.51158     O
V      0.15319  0.23544  0.97005     V
C       0.1545   0.8688    0.927     C
H       0.1568   0.3195   0.0949     H
H        0.157    0.437   0.7692     H
O      0.15731  0.20353  0.57181     O
C      0.16203   0.4617  0.23583     C
H       0.1626   0.1856    0.446     H
C      0.16526   0.3793  0.15876     C
O      0.17351  0.27335  0.90811     O
O      0.17471  0.64213  0.96121     O
C      0.17776   0.7491  0.20326     C
C      0.17779   0.8249  0.73829     C
C      0.18139   0.1733  0.81159     C
C       0.1892   0.5394    0.227     C
C      0.19225   0.1085  0.83535     C
V      0.19375   0.9824  0.62549     V
H       0.1964   0.7643   0.1716     H
H       0.1964   0.7772   0.9606     H
C      0.20212   0.7452  0.80452     C
H       0.2034   0.8533   0.7138     H
O      0.20972  0.42211  0.88992     O
C      0.21431     0.56  0.13301     C
H       0.2152   0.2113   0.8279     H
C      0.21657   0.7111  0.29087     C
V      0.21701  0.12323  0.55806     V
H       0.2171   0.9686   0.8503     H
H       0.2181   0.8874   0.9281     H
H       0.2216    0.436   0.2488     H
H       0.2238   0.5586   0.2589     H
C      0.22457   0.0595  0.40657     C
H       0.2289   0.3652   0.1718     H
O       0.2303   0.7176   0.4966     O
H       0.2318   0.1035    0.867     H
O      0.23719  0.07084  0.61529     O
H        0.238   0.2001   0.1805     H
N      0.24057  0.78592  0.76997     N
H       0.2445   0.7165   0.8261     H
C      0.24608   0.0455  0.31618     C
H       0.2472   0.5687   0.0596     H
C      0.24964   0.7325  0.24414     C
C      0.25036   0.2325  0.25586     C
H       0.2528   0.0687   0.4404     H
C      0.25392   0.5455  0.18382     C
H       0.2555   0.2165   0.6739     H
N      0.25943  0.28592  0.73003     N
H        0.262   0.7001   0.3195     H
O      0.26281  0.57084  0.88471     O
H       0.2682   0.6035    0.633     H
O       0.2697   0.2176   0.0034     O
H       0.2711   0.8652   0.3282     H
C      0.27543   0.5595  0.09343     C
H       0.2762   0.0586   0.2411     H
H       0.2784    0.936   0.2512     H
H       0.2819   0.3874   0.5719     H
H       0.2829   0.4686   0.6497     H
V      0.28299  0.62323  0.94194     V
C      0.28343   0.2111  0.20913     C
H       0.2848   0.7113   0.6721     H
C      0.28569     0.06  0.36699     C
O      0.29028  0.92211  0.61008     O
H       0.2966   0.3533   0.7862     H
C      0.29788   0.2452  0.69548     C
H       0.3036   0.2643   0.3284     H
H       0.3036   0.2772   0.5394     H
V      0.30625   0.4824  0.87451     V
C      0.30775   0.6085  0.66465     C
C       0.3108   0.0394    0.273     C
C      0.31861   0.6733  0.68841     C
C      0.32221   0.3249  0.76171     C
C      0.32224   0.2491  0.29674     C
O      0.32529  0.14213  0.53879     O
O      0.32649  0.77335  0.59189     O
C      0.33474   0.8793  0.34124     C
H       0.3374   0.6856    0.054     H
C      0.33797   0.9617  0.26417     C
O      0.34269  0.70353  0.92819     O
H        0.343    0.937   0.7308     H
H       0.3432   0.8195   0.4051     H
C       0.3455   0.3688    0.573     C
V      0.34681  0.73544  0.52995     V
O      0.34972  0.57922  0.98842     O
C       0.3509   0.4792   0.6635     C
H       0.3512   0.8023   0.0771     H
H       0.3529     0.07   0.3745     H
H       0.3533   0.2195   0.9082     H
C      0.35557   0.5314  0.19217     C
C      0.35638   0.5507  0.68838     C
C       0.3589   0.3026   0.5535     C
C      0.35921   0.7391  0.23791     C
V      0.36106  0.17011   0.0458     V
H       0.3662    0.051   0.7571     H
O      0.36961  0.82788  0.69033     O
V      0.37083  0.84908  0.62856     V
H       0.3711   0.0665   0.2818     H
H       0.3722   0.7145   0.2065     H
N      0.37306  0.54634  0.10166     N
H       0.3732   0.4437   0.6892     H
H       0.3742   0.3346   0.9317     H
H       0.3749   0.7883   0.2335     H
N      0.37547  0.68443  0.73397     N
C      0.37658  0.94579  0.76368     C
C      0.37871   0.8519  0.38761     C
H       0.3837   0.9593    0.238     H
C      0.38425   0.2066  0.20575     C
C      0.38492   0.9282  0.31372     C
H       0.3853   0.5212   0.2256     H
H        0.388    0.426    0.016     H
H       0.3891   0.5122   0.5941     H
C      0.39129   0.0149  0.77899     C
Ni      0.3943  0.78598   0.7642    Ni
C      0.39925   0.2441  0.69045     C
C      0.40041    0.705  0.06161     C
O      0.40297  0.79643  0.49727     O
H        0.405   0.1922   0.1743     H
H       0.4067   0.7098    0.425     H
N      0.40779  0.89089  0.79339     N
C      0.40814   0.7755  0.07534     C
O      0.40961  0.46547  0.91291     O
H       0.4097   0.6612    0.289     H
C      0.41255   0.5326  0.15095     C
H       0.4145   0.1351   0.8276     H
H       0.4156   0.7355   0.3151     H
C      0.41565   0.5624  0.73585     C
C       0.4159   0.4789   0.6205     C
C      0.41712   0.2374  0.91602     C
H       0.4177   0.0684   0.6029     H
H       0.4209   0.5972   0.3917     H
C      0.42157   0.2431  0.29007     C
C      0.42278  0.62925  0.75718     C
H       0.4234   0.2155   0.6656     H
C      0.42376   0.3249  0.75966     C
O      0.42464  0.74609  0.83824     O
C      0.42708   0.7099  0.28388     C
C       0.4271    0.408   0.5945     C
H       0.4291    0.099   0.9162     H
C      0.43026  0.30685  0.92996     C
C       0.4434   0.0301   0.8269     C
O       0.4478  0.44816   0.0223     O
N       0.4495   0.2734   0.5542     N
H       0.4502   0.5254    0.753     H
C      0.45148   0.9055  0.84168     C
N      0.45348  0.22184  0.24528     N
V      0.45519  0.71366  0.89729     V
H       0.4561   0.9085   0.0853     H
Ni      0.4609  0.17444   0.5214    Ni
H       0.4619    0.636   0.7888     H
O      0.46278  0.22799  0.06558     O
Ni     0.46335  0.55749  0.04277    Ni
C      0.46394   0.2859  0.72284     C
H       0.4649   0.3515   0.7834     H
C      0.46833    0.105  0.84233     C
H       0.4687   0.2543    0.318     H
H       0.4689    0.422   0.0519     H
H       0.4689   0.8684   0.8643     H
C       0.4693   0.6896   0.4255     C
N      0.47044  0.86988  0.40874     N
C      0.47147    0.973  0.85897     C
H       0.4724   0.8812   0.1728     H
C       0.4772   0.6219   0.4051     C
C      0.47939   0.9477  0.33659     C
N      0.47995  0.66367  0.05885     N
H       0.4803   0.5237   0.1575     H
C      0.48099   0.0821  0.61709     C
H       0.4814   0.4954   0.6344     H
H       0.4844    0.019   0.6796     H
C      0.48529   0.1172  0.90029     C
H       0.4961   0.0195   0.1077     H
C      0.49875   0.1943  0.91365     C
C      0.50125   0.8057  0.08635     C
H       0.5039   0.9805   0.8923     H
C      0.51471   0.8828  0.09971     C
H       0.5156    0.981   0.3204     H
H       0.5186   0.5046   0.3656     H
C      0.51901   0.9179  0.38291     C
H       0.5197   0.4763   0.8425     H
N      0.52005  0.33633  0.94115     N
C      0.52061   0.0523  0.66341     C
C       0.5228   0.3781   0.5949     C
H       0.5276   0.1188   0.8272     H
C      0.52853    0.027  0.14103     C
N      0.52956  0.13012  0.59126     N
C       0.5307   0.3104   0.5745     C
H       0.5311   0.1316   0.1357     H
H       0.5311    0.578   0.9481     H
H       0.5313   0.7457    0.682     H
C      0.53167    0.895  0.15767     C
H       0.5351   0.6485   0.2166     H
C      0.53606   0.7141  0.27716     C
Ni     0.53665  0.44251  0.95723    Ni
O      0.53722  0.77201  0.93442     O
H       0.5381    0.364   0.2112     H
Ni      0.5391  0.82556   0.4786    Ni
H       0.5439   0.0915   0.9147     H
V      0.54481  0.28634  0.10271     V
N      0.54652  0.77816  0.75472     N
C      0.54852   0.0945  0.15832     C
H       0.5498   0.4746    0.247     H
N       0.5505   0.7266   0.4458     N
O       0.5522  0.55184   0.9777     O
C       0.5566   0.9699   0.1731     C
C      0.56974  0.69315  0.07004     C
H       0.5709    0.901   0.0838     H
C       0.5729    0.592   0.4055     C
C      0.57292   0.2901  0.71612     C
O      0.57536  0.25391  0.16176     O
C      0.57624   0.6751  0.24034     C
H       0.5766   0.7845   0.3344     H
C      0.57722  0.37075  0.24282     C
C      0.57843   0.7569  0.70993     C
H       0.5791   0.4028   0.6083     H
H       0.5823   0.9316   0.3971     H
C      0.58288   0.7626  0.08398     C
C       0.5841   0.5211   0.3795     C
C      0.58435   0.4376  0.26415     C
H       0.5844   0.2645   0.6849     H
H       0.5855   0.8649   0.1724     H
C      0.58745   0.4674  0.84905     C
H       0.5903   0.3388    0.711     H
O      0.59039  0.53453  0.08709     O
C      0.59186   0.2245  0.92466     C
N      0.59221  0.10911  0.20661     N
H       0.5933   0.2902    0.575     H
H        0.595   0.8078   0.8257     H
O      0.59703  0.20357  0.50273     O
C      0.59959    0.295  0.93839     C
C      0.60075   0.7559  0.30955     C
Ni      0.6057  0.21402   0.2358    Ni
C      0.60871   0.9851  0.22101     C
H       0.6109   0.4878   0.4059     H
H        0.612    0.574    0.984     H
H       0.6147   0.4788   0.7744     H
C      0.61508   0.0718  0.68628     C
C      0.61575   0.7934  0.79425     C
H       0.6163   0.0407    0.762     H
C      0.62129   0.1481  0.61239     C
C      0.62342  0.05421  0.23632     C
N      0.62453  0.31557  0.26603     N
H       0.6251   0.2117   0.7665     H
H       0.6258   0.6654   0.0683     H
H       0.6268   0.5563   0.3108     H
N      0.62694  0.45366  0.89834     N
H       0.6278   0.2855   0.7935     H
H       0.6289   0.9335   0.7182     H
V      0.62917  0.15092  0.37144     V
O      0.63039  0.17212  0.30967     O
H       0.6338    0.949   0.2429     H
V      0.63894  0.82989   0.9542     V
C      0.64079   0.2609  0.76209     C
C       0.6411   0.6974   0.4465     C
C      0.64362   0.4493  0.31162     C
C      0.64443   0.4686  0.80783     C
H       0.6467   0.7805   0.0918     H
H       0.6471     0.93   0.6255     H
H       0.6488   0.1977   0.9229     H
C       0.6491   0.5208   0.3365     C
O      0.65028  0.42078  0.01158     O
V      0.65319  0.26456  0.47005     V
C       0.6545   0.6312    0.427     C
H       0.6568   0.1805   0.5949     H
H        0.657    0.063   0.2692     H
O      0.65731  0.29647  0.07181     O
C      0.66203   0.0383  0.73583     C
H       0.6626   0.3144    0.946     H
C      0.66526   0.1207  0.65876     C
O      0.67351  0.22665  0.40811     O
O      0.67471  0.85787  0.46121     O
C      0.67776   0.7509  0.70326     C
C      0.67779   0.6751  0.23829     C
C      0.68139   0.3267  0.31159     C
C       0.6892   0.9606    0.727     C
C      0.69225   0.3915  0.33535     C
V      0.69375   0.5176  0.12549     V
H       0.6964   0.7228   0.4606     H
H       0.6964   0.7357   0.6716     H
C      0.70212   0.7548  0.30452     C
H       0.7034   0.6467   0.2138     H
O      0.70972  0.07789  0.38992     O
C      0.71431     0.94  0.63301     C
H       0.7152   0.2887   0.3279     H
C      0.71657   0.7889  0.79087     C
V      0.71701  0.37677  0.05806     V
H       0.7171   0.5314   0.3503     H
H       0.7181   0.6126   0.4281     H
H       0.7216    0.064   0.7488     H
H       0.7238   0.9414   0.7589     H
C      0.72457   0.4405  0.90657     C
H       0.7289   0.1348   0.6718     H
O       0.7303   0.7824   0.9966     O
H       0.7318   0.3965    0.367     H
O      0.73719  0.42916  0.11529     O
H        0.738   0.2999   0.6805     H
N      0.74057  0.71408  0.26997     N
H       0.7445   0.7835   0.3261     H
C      0.74608   0.4545  0.81618     C
H       0.7472   0.9313   0.5596     H
C      0.74964   0.7675  0.74414     C
C      0.75036   0.2675  0.75586     C
H       0.7528   0.4313   0.9404     H
C      0.75392   0.9545  0.68382     C
H       0.7555   0.2835   0.1739     H
N      0.75943  0.21408  0.23003     N
H        0.762   0.7999   0.8195     H
O      0.76281  0.92916  0.38471     O
H       0.7682   0.8965    0.133     H
O       0.7697   0.2824   0.5034     O
H       0.7711   0.6348   0.8282     H
C      0.77543   0.9405  0.59343     C
H       0.7762   0.4414   0.7411     H
H       0.7784    0.564   0.7512     H
H       0.7819   0.1126   0.0719     H
H       0.7829   0.0314   0.1497     H
V      0.78299  0.87677  0.44194     V
C      0.78343   0.2889  0.70913     C
H       0.7848   0.7887   0.1721     H
C      0.78569     0.44  0.86699     C
O      0.79028  0.57789  0.11008     O
H       0.7966   0.1467   0.2862     H
C      0.79788   0.2548  0.19548     C
H       0.8036   0.2228   0.0394     H
H       0.8036   0.2357   0.8284     H
V      0.80625   0.0176  0.37451     V
C      0.80775   0.8915  0.16465     C
C       0.8108   0.4606    0.773     C
C      0.81861   0.8267  0.18841     C
C      0.82221   0.1751  0.26171     C
C      0.82224   0.2509  0.79674     C
O      0.82529  0.35787  0.03879     O
O      0.82649  0.72665  0.09189     O
C      0.83474   0.6207  0.84124     C
H       0.8374   0.8144    0.554     H
C      0.83797   0.5383  0.76417     C
O      0.84269  0.79647  0.42819     O
H        0.843    0.563   0.2308     H
H       0.8432   0.6805   0.9051     H
C       0.8455   0.1312    0.073     C
V      0.84681  0.76456  0.02995     V
O      0.84972  0.92078  0.48842     O
C       0.8509   0.0208   0.1635     C
H       0.8512   0.6977   0.5771     H
H       0.8529     0.43   0.8745     H
H       0.8533   0.2805   0.4082     H
C      0.85557   0.9686  0.69217     C
C      0.85638   0.9493  0.18838     C
C       0.8589   0.1974   0.0535     C
C      0.85921   0.7609  0.73791     C
V      0.86106  0.32989   0.5458     V
H       0.8662    0.449   0.2571     H
O      0.86961  0.67212  0.19033     O
V      0.87083  0.65092  0.12856     V
H       0.8711   0.4335   0.7818     H
H       0.8722   0.7855   0.7065     H
N      0.87306  0.95366  0.60166     N
H       0.8732   0.0563   0.1892     H
H       0.8742   0.1654   0.4317     H
H       0.8749   0.7117   0.7335     H
N      0.87547  0.81557  0.23397     N
C      0.87658  0.55421  0.26368     C
C      0.87871   0.6481  0.88761     C
H       0.8837   0.5407    0.738     H
C      0.88425   0.2934  0.70575     C
C      0.88492   0.5718  0.81372     C
H       0.8853   0.9788   0.7256     H
H        0.888    0.074    0.516     H
H       0.8891   0.9878   0.0941     H
C      0.89129   0.4851  0.27899     C
Ni      0.8943  0.71402   0.2642    Ni
C      0.89925   0.2559  0.19045     C
C      0.90041    0.795  0.56161     C
O      0.90297  0.70357  0.99727     O
H        0.905   0.3078   0.6743     H
H       0.9067   0.7902    0.925     H
N      0.90779  0.60911  0.29339     N
C      0.90814   0.7245  0.57534     C
O      0.90961  0.03453  0.41291     O
H       0.9097   0.8388    0.789     H
C      0.91255   0.9674  0.65095     C
H       0.9145   0.3649   0.3276     H
H       0.9156   0.7645   0.8151     H
C      0.91565   0.9376  0.23585     C
C       0.9159   0.0211   0.1205     C
C      0.91712   0.2626  0.41602     C
H       0.9177   0.4316   0.1029     H
H       0.9209   0.9028   0.8917     H
C      0.92157   0.2569  0.79007     C
C      0.92278  0.87075  0.25718     C
H       0.9234   0.2845   0.1656     H
C      0.92376   0.1751  0.25966     C
O      0.92464  0.75391  0.33824     O
C      0.92708   0.7901  0.78388     C
C       0.9271    0.092   0.0945     C
H       0.9291    0.401   0.4162     H
C      0.93026  0.19315  0.42996     C
C       0.9434   0.4699   0.3269     C
O       0.9478  0.05184   0.5223     O
N       0.9495   0.2266   0.0542     N
H       0.9502   0.9746    0.253     H
C      0.95148   0.5945  0.34168     C
N      0.95348  0.27816  0.74528     N
V      0.95519  0.78634  0.39729     V
H       0.9561   0.5915   0.5853     H
Ni      0.9609  0.32556   0.0214    Ni
H       0.9619    0.864   0.2888     H
O      0.96278  0.27201  0.56558     O
Ni     0.96335  0.94251  0.54277    Ni
C      0.96394   0.2141  0.22284     C
H       0.9649   0.1485   0.2834     H
C      0.96833    0.395  0.34233     C
H       0.9687   0.2457    0.818     H
H       0.9689    0.078   0.5519     H
H       0.9689   0.6316   0.3643     H
C       0.9693   0.8104   0.9255     C
N      0.97044  0.63012  0.90874     N
C      0.97147    0.527  0.35897     C
H       0.9724   0.6188   0.6728     H
C       0.9772   0.8781   0.9051     C
C      0.97939   0.5523  0.83659     C
N      0.97995  0.83633  0.55885     N
H       0.9803   0.9763   0.6575     H
C      0.98099   0.4179  0.11709     C
H       0.9814   0.0046   0.1344     H
H       0.9844    0.481   0.1796     H
C      0.98529   0.3828  0.40029     C
H       0.9961   0.4805   0.6077     H
C      0.99875   0.3057  0.41365     C
