data_I
_chemical_name_common  '/home/zhangsd/repos/MofS-CGCNN/ML/data/SSD/clean_cifs/CEFLEF_clean'
_cell_length_a 15.27700
_cell_length_b 15.27700
_cell_length_c 15.77600
_cell_angle_alpha 90.00000
_cell_angle_beta  90.00000
_cell_angle_gamma 120.00000
_space_group_name_H-M_alt      'P 1'


loop_
_space_group_symop_operation_xyz
  'x, y, z' 

loop_
_atom_site_label
_atom_site_fract_x
_atom_site_fract_y
_atom_site_fract_z
_atom_site_type_symbol
Mn         0.0      0.5      0.0    Mn
Mn         0.0      0.5      0.5    Mn
H       0.0562   0.2892   0.3444     H
H       0.0562   0.2892   0.6556     H
H       0.0562    0.767   0.1556     H
H       0.0562    0.767   0.8444     H
O      0.06432  0.45027  0.40625     O
O      0.06432  0.45027  0.59375     O
O      0.06432  0.61405  0.09375     O
O      0.06432  0.61405  0.90625     O
H      0.10005   0.2001     0.25     H
H      0.10005   0.2001     0.75     H
H      0.10005  0.89995     0.25     H
H      0.10005  0.89995     0.75     H
C      0.10847   0.3233  0.30576     C
C      0.10847   0.3233  0.69424     C
C      0.10847  0.78517  0.19424     C
C      0.10847  0.78517  0.80576     C
C      0.13522  0.27044     0.25     C
C      0.13522  0.27044     0.75     C
C      0.13522  0.86479     0.25     C
C      0.13522  0.86479     0.75     C
C      0.13755  0.49423  0.35897     C
C      0.13755  0.49423  0.64103     C
C      0.13755  0.64332  0.14103     C
C      0.13755  0.64332  0.85897     C
C      0.16135  0.42823  0.30277     C
C      0.16135  0.42823  0.69723     C
C      0.16135  0.73312  0.19723     C
C      0.16135  0.73312  0.80277     C
O      0.19861  0.58649  0.35452     O
O      0.19861  0.58649  0.64548     O
O      0.19861  0.61212  0.14548     O
O      0.19861  0.61212  0.85452     O
H       0.2001  0.10005     0.25     H
H       0.2001  0.10005     0.75     H
C      0.21483   0.3233  0.19424     C
C      0.21483   0.3233  0.80576     C
C      0.21483  0.89153  0.30576     C
C      0.21483  0.89153  0.69424     C
H        0.233   0.2892   0.1556     H
H        0.233   0.2892   0.8444     H
H        0.233   0.9438   0.3444     H
H        0.233   0.9438   0.6556     H
N      0.24002  0.48004     0.25     N
N      0.24002  0.48004     0.75     N
N      0.24002  0.75999     0.25     N
N      0.24002  0.75999     0.75     N
C      0.26688  0.42823  0.19723     C
C      0.26688  0.42823  0.80277     C
C      0.26688  0.83865  0.30277     C
C      0.26688  0.83865  0.69723     C
C      0.27043  0.13521     0.25     C
C      0.27043  0.13521     0.75     C
H       0.2892   0.0562   0.1556     H
H       0.2892   0.0562   0.8444     H
H       0.2892    0.233   0.3444     H
H       0.2892    0.233   0.6556     H
C       0.3233  0.10847  0.19424     C
C       0.3233  0.10847  0.80576     C
C       0.3233  0.21483  0.30576     C
C       0.3233  0.21483  0.69424     C
Dy     0.33333  0.66666     0.25    Dy
Dy     0.33333  0.66666     0.75    Dy
C      0.35668  0.49423  0.14103     C
C      0.35668  0.49423  0.85897     C
C      0.35668  0.86245  0.35897     C
C      0.35668  0.86245  0.64103     C
O      0.38595  0.45027  0.09375     O
O      0.38595  0.45027  0.90625     O
O      0.38595  0.93568  0.40625     O
O      0.38595  0.93568  0.59375     O
O      0.38788  0.58649  0.14548     O
O      0.38788  0.58649  0.85452     O
O      0.38788  0.80139  0.35452     O
O      0.38788  0.80139  0.64548     O
O      0.41351  0.61212  0.35452     O
O      0.41351  0.61212  0.64548     O
O      0.41351  0.80139  0.14548     O
O      0.41351  0.80139  0.85452     O
C      0.42823  0.16135  0.19723     C
C      0.42823  0.16135  0.80277     C
C      0.42823  0.26688  0.30277     C
C      0.42823  0.26688  0.69723     C
O      0.45027  0.06432  0.09375     O
O      0.45027  0.06432  0.90625     O
O      0.45027  0.38595  0.40625     O
O      0.45027  0.38595  0.59375     O
N      0.48003  0.24001     0.25     N
N      0.48003  0.24001     0.75     N
C      0.49423  0.13755  0.14103     C
C      0.49423  0.13755  0.85897     C
C      0.49423  0.35668  0.35897     C
C      0.49423  0.35668  0.64103     C
Mn         0.5      0.0      0.0    Mn
Mn         0.5      0.0      0.5    Mn
Mn         0.5      0.5      0.0    Mn
Mn         0.5      0.5      0.5    Mn
C      0.50577  0.64332  0.35897     C
C      0.50577  0.64332  0.64103     C
C      0.50577  0.86245  0.14103     C
C      0.50577  0.86245  0.85897     C
N      0.51997  0.75999     0.25     N
N      0.51997  0.75999     0.75     N
O      0.54973  0.61405  0.40625     O
O      0.54973  0.61405  0.59375     O
O      0.54973  0.93568  0.09375     O
O      0.54973  0.93568  0.90625     O
C      0.57177  0.73312  0.30277     C
C      0.57177  0.73312  0.69723     C
C      0.57177  0.83865  0.19723     C
C      0.57177  0.83865  0.80277     C
O      0.58649  0.19861  0.14548     O
O      0.58649  0.19861  0.85452     O
O      0.58649  0.38788  0.35452     O
O      0.58649  0.38788  0.64548     O
O      0.61212  0.19861  0.35452     O
O      0.61212  0.19861  0.64548     O
O      0.61212  0.41351  0.14548     O
O      0.61212  0.41351  0.85452     O
O      0.61405  0.06432  0.40625     O
O      0.61405  0.06432  0.59375     O
O      0.61405  0.54973  0.09375     O
O      0.61405  0.54973  0.90625     O
C      0.64332  0.13755  0.35897     C
C      0.64332  0.13755  0.64103     C
C      0.64332  0.50577  0.14103     C
C      0.64332  0.50577  0.85897     C
Dy     0.66667  0.33334     0.25    Dy
Dy     0.66667  0.33334     0.75    Dy
C       0.6767  0.78517  0.30576     C
C       0.6767  0.78517  0.69424     C
C       0.6767  0.89153  0.19424     C
C       0.6767  0.89153  0.80576     C
H       0.7108    0.767   0.3444     H
H       0.7108    0.767   0.6556     H
H       0.7108   0.9438   0.1556     H
H       0.7108   0.9438   0.8444     H
C      0.72956  0.86478     0.25     C
C      0.72956  0.86478     0.75     C
C      0.73312  0.16135  0.30277     C
C      0.73312  0.16135  0.69723     C
C      0.73312  0.57177  0.19723     C
C      0.73312  0.57177  0.80277     C
N      0.75998  0.24001     0.25     N
N      0.75998  0.24001     0.75     N
N      0.75998  0.51996     0.25     N
N      0.75998  0.51996     0.75     N
H        0.767   0.0562   0.3444     H
H        0.767   0.0562   0.6556     H
H        0.767   0.7108   0.1556     H
H        0.767   0.7108   0.8444     H
C      0.78517  0.10847  0.30576     C
C      0.78517  0.10847  0.69424     C
C      0.78517   0.6767  0.19424     C
C      0.78517   0.6767  0.80576     C
H       0.7999  0.89995     0.25     H
H       0.7999  0.89995     0.75     H
O      0.80139  0.38788  0.14548     O
O      0.80139  0.38788  0.85452     O
O      0.80139  0.41351  0.35452     O
O      0.80139  0.41351  0.64548     O
C      0.83865  0.26688  0.19723     C
C      0.83865  0.26688  0.80277     C
C      0.83865  0.57177  0.30277     C
C      0.83865  0.57177  0.69723     C
C      0.86245  0.35668  0.14103     C
C      0.86245  0.35668  0.85897     C
C      0.86245  0.50577  0.35897     C
C      0.86245  0.50577  0.64103     C
C      0.86478  0.13522     0.25     C
C      0.86478  0.13522     0.75     C
C      0.86478  0.72956     0.25     C
C      0.86478  0.72956     0.75     C
C      0.89153  0.21483  0.19424     C
C      0.89153  0.21483  0.80576     C
C      0.89153   0.6767  0.30576     C
C      0.89153   0.6767  0.69424     C
H      0.89995  0.10005     0.25     H
H      0.89995  0.10005     0.75     H
H      0.89995   0.7999     0.25     H
H      0.89995   0.7999     0.75     H
O      0.93568  0.38595  0.09375     O
O      0.93568  0.38595  0.90625     O
O      0.93568  0.54973  0.40625     O
O      0.93568  0.54973  0.59375     O
H       0.9438    0.233   0.1556     H
H       0.9438    0.233   0.8444     H
H       0.9438   0.7108   0.3444     H
H       0.9438   0.7108   0.6556     H
