data_I
_chemical_name_common  '/home/zhangsd/repos/MofS-CGCNN/ML/data/SSD/clean_cifs/CEHTEP_clean'
_cell_length_a 11.43030
_cell_length_b  8.85460
_cell_length_c 15.60000
_cell_angle_alpha 90.00000
_cell_angle_beta  114.81000
_cell_angle_gamma 90.00000
_space_group_name_H-M_alt      'P 1'


loop_
_space_group_symop_operation_xyz
  'x, y, z' 

loop_
_atom_site_label
_atom_site_fract_x
_atom_site_fract_y
_atom_site_fract_z
_atom_site_type_symbol
Ag         0.0      0.0      0.0    Ag
Ag         0.0      0.5      0.5    Ag
C       0.0593   0.6858    0.449     C
C       0.0593   0.8142    0.949     C
N       0.0917    0.713   0.9194     N
N       0.0917    0.787   0.4194     N
Ag     0.20123  0.53805  0.87973    Ag
Ag     0.20123  0.96195  0.37973    Ag
C       0.2144   0.1717   0.4613     C
C       0.2144   0.3283   0.9613     C
N       0.2426   0.2157   0.9948     N
N       0.2426   0.2843   0.4948     N
C       0.2568   0.5417    0.764     C
C       0.2568   0.9583    0.264     C
N       0.2837   0.5403   0.7089     N
N       0.2837   0.9597   0.2089     N
Ag       0.294  0.00744  0.06683    Ag
Ag       0.294  0.49256  0.56683    Ag
N       0.4075   0.6865  0.55406     N
N       0.4075   0.8135  0.05406     N
C       0.4417   0.7043   0.0355     C
C       0.4417   0.7957   0.5355     C
Ag         0.5      0.0      0.5    Ag
Ag         0.5      0.5      0.0    Ag
C       0.5583   0.2043   0.4645     C
C       0.5583   0.2957   0.9645     C
N       0.5925   0.1865  0.94594     N
N       0.5925   0.3135  0.44594     N
Ag       0.706  0.50744  0.43317    Ag
Ag       0.706  0.99256  0.93317    Ag
N       0.7163   0.0403   0.7911     N
N       0.7163   0.4597   0.2911     N
C       0.7432   0.0417    0.736     C
C       0.7432   0.4583    0.236     C
N       0.7574   0.7157   0.5052     N
N       0.7574   0.7843   0.0052     N
C       0.7856   0.6717   0.0387     C
C       0.7856   0.8283   0.5387     C
Ag     0.79877  0.03805  0.62027    Ag
Ag     0.79877  0.46195  0.12027    Ag
N       0.9083    0.213   0.5806     N
N       0.9083    0.287   0.0806     N
C       0.9407   0.1858    0.051     C
C       0.9407   0.3142    0.551     C
