data_I
_chemical_name_common  '/home/zhangsd/repos/MofS-CGCNN/ML/data/SSD/clean_cifs/CEYPUT_clean'
_cell_length_a  6.30700
_cell_length_b 10.49190
_cell_length_c 12.61100
_cell_angle_alpha 90.00000
_cell_angle_beta  90.00000
_cell_angle_gamma 91.22700
_space_group_name_H-M_alt      'P 1'


loop_
_space_group_symop_operation_xyz
  'x, y, z' 

loop_
_atom_site_label
_atom_site_fract_x
_atom_site_fract_y
_atom_site_fract_z
_atom_site_type_symbol
N       0.0177    0.881   0.6438     N
C       0.0307   0.3842   0.1209     C
C       0.0637   0.5592   0.0016     C
O       0.1002   0.7155   0.8655     O
O       0.1342   0.1952   0.3476     O
C       0.1724   0.0292   0.4767     C
C       0.2073   0.8622   0.6039     C
N       0.2292   0.3976   0.1563     N
C       0.2576   0.1095   0.3852     C
H       0.2645   0.4868   0.3702     H
C        0.267   0.5762   0.0401     C
O       0.2886   0.1233   0.1153     O
H       0.2911   0.8002   0.6335     H
C       0.2911   0.9336   0.5193     C
H       0.3034   0.9409   0.9782     H
C       0.3425   0.4985   0.1169     C
H       0.3533   0.6416   0.0133     H
Co       0.372  0.25995  0.24626    Co
H       0.3866   0.6136   0.5087     H
C       0.3989   0.4735   0.3979     C
H       0.4248   0.9166   0.4924     H
O       0.4408   0.0987   0.3568     O
C       0.4413   0.9574   0.9552     C
H       0.4468   0.8195   0.8494     H
C       0.4711   0.5499   0.4814     C
C       0.4767   0.1347    0.088     C
H       0.4778   0.5151   0.1436     H
N       0.5177    0.381   0.3562     N
C       0.5307   0.8842   0.8791     C
C       0.5637   0.0592   0.9984     C
O       0.6002   0.2155   0.1345     O
O       0.6342   0.6952   0.6524     O
C       0.6724   0.5292   0.5233     C
C       0.7073   0.3622   0.3961     C
N       0.7292   0.8976   0.8437     N
C       0.7576   0.6095   0.6148     C
H       0.7645   0.9868   0.6298     H
C        0.767   0.0762   0.9599     C
O       0.7886   0.6233   0.8847     O
H       0.7911   0.3002   0.3665     H
C       0.7911   0.4336   0.4807     C
H       0.8034   0.4409   0.0218     H
C       0.8425   0.9985   0.8831     C
H       0.8533   0.1416   0.9867     H
Co       0.872  0.75995  0.75374    Co
H       0.8866   0.1136   0.4913     H
C       0.8989   0.9735   0.6021     C
H       0.9248   0.4166   0.5076     H
O       0.9408   0.5987   0.6432     O
C       0.9413   0.4574   0.0448     C
H       0.9468   0.3195   0.1506     H
C       0.9711   0.0499   0.5186     C
C       0.9767   0.6347    0.912     C
H       0.9778   0.0151   0.8564     H
