data_I
_chemical_name_common  '/home/zhangsd/repos/MofS-CGCNN/ML/data/SSD/clean_cifs/CISMEY_clean'
_cell_length_a  9.17940
_cell_length_b  9.46000
_cell_length_c 11.15380
_cell_angle_alpha 90.72600
_cell_angle_beta  100.25200
_cell_angle_gamma 105.26500
_space_group_name_H-M_alt      'P 1'


loop_
_space_group_symop_operation_xyz
  'x, y, z' 

loop_
_atom_site_label
_atom_site_fract_x
_atom_site_fract_y
_atom_site_fract_z
_atom_site_type_symbol
Cd     0.00304  0.52291  0.84996    Cd
O       0.0406   0.8205   0.2039     O
O       0.0626   0.6291    0.314     O
C       0.0761   0.7643   0.3034     C
N       0.0923   0.1883   0.0848     N
H        0.126   0.7036   0.5352     H
C       0.1338   0.8625   0.4176     C
O       0.1416   0.6251   0.0313     O
C       0.1479   0.8048   0.5301     C
O       0.1556   0.6939    0.758     O
H       0.1572   0.0543   0.3341     H
N       0.1576   0.3156   0.1527     N
Cd     0.16276  0.86615  0.03213    Cd
C       0.1675   0.0143   0.4099     C
N       0.1933   0.1128   0.0888     N
C       0.1945   0.8961   0.6368     C
C       0.1993   0.8309   0.7594     C
C       0.2163   0.1046   0.5153     C
C       0.2286   0.0471   0.6288     C
H       0.2314   0.5017   0.5714     H
O       0.2374   0.2536      0.5     O
O       0.2464   0.9177   0.8535     O
H       0.2594   0.1092   0.6992     H
H       0.3021   0.5802   0.2685     H
C       0.3022   0.3131    0.196     C
C        0.326   0.4855   0.6033     C
N       0.3276   0.1885   0.1576     N
C       0.3537   0.3536   0.5791     C
C       0.3959   0.5628    0.301     C
C       0.4206   0.4287   0.2747     C
H        0.422   0.6846   0.6905     H
C         0.44   0.5944   0.6755     C
H       0.4895   0.7612   0.3927     H
C       0.4919   0.3281   0.6252     C
C       0.5081   0.6719   0.3748     C
H       0.5105   0.2388   0.6073     H
C         0.56   0.4056   0.3245     C
H        0.578   0.3154   0.3095     H
C       0.5794   0.5713   0.7253     C
C       0.6041   0.4372    0.699     C
C       0.6463   0.6464   0.4209     C
N       0.6724   0.8115   0.8424     N
C        0.674   0.5145   0.3967     C
C       0.6978   0.6869    0.804     C
H       0.6979   0.4198   0.7315     H
H       0.7406   0.8908   0.3008     H
O       0.7536   0.0823   0.1465     O
O       0.7626   0.7464      0.5     O
H       0.7686   0.4983   0.4286     H
C       0.7714   0.9529   0.3712     C
C       0.7837   0.8954   0.4847     C
C       0.8007   0.1691   0.2406     C
C       0.8055   0.1039   0.3632     C
N       0.8067   0.8872   0.9112     N
C       0.8325   0.9857   0.5901     C
Cd     0.83724  0.13385  0.96787    Cd
N       0.8424   0.6844   0.8473     N
H       0.8428   0.9457   0.6659     H
O       0.8444   0.3061    0.242     O
C       0.8521   0.1952   0.4699     C
O       0.8584   0.3749   0.9687     O
C       0.8662   0.1375   0.5824     C
H        0.874   0.2964   0.4648     H
N       0.9077   0.8117   0.9152     N
C       0.9239   0.2357   0.6966     C
O       0.9374   0.3709    0.686     O
O       0.9594   0.1795   0.7961     O
Cd     0.99696  0.47709  0.15004    Cd
