data_I
_chemical_name_common  '/home/zhangsd/repos/MofS-CGCNN/ML/data/SSD/clean_cifs/CODFEH_clean'
_cell_length_a  7.95390
_cell_length_b  7.95390
_cell_length_c 13.18900
_cell_angle_alpha 90.00000
_cell_angle_beta  90.00000
_cell_angle_gamma 90.00000
_space_group_name_H-M_alt      'P 1'


loop_
_space_group_symop_operation_xyz
  'x, y, z' 

loop_
_atom_site_label
_atom_site_fract_x
_atom_site_fract_y
_atom_site_fract_z
_atom_site_type_symbol
O       0.0204    0.441  0.44164     O
H       0.0845    0.389   0.4007     H
O       0.0957   0.6826  0.11432     O
Mn     0.13538   0.4649  0.59223    Mn
C        0.147   0.6236   0.9387     C
H        0.154   0.7084    0.885     H
O       0.1631   0.4837   0.7494     O
C       0.1899   0.7074   0.0404     C
O       0.2081   0.3197   0.2916     O
H       0.2478    0.389   0.9594     H
C       0.2701   0.4237   0.8072     C
C       0.2718   0.4837   0.9154     C
H       0.2916    0.154    0.135     H
C       0.2926   0.1899   0.2904     C
O       0.3174   0.0957  0.36432     O
O       0.3197   0.7919   0.0416     O
O       0.3216   0.6209  0.52941     O
C       0.3764    0.147   0.1887     C
O       0.3791   0.3216  0.77941     O
H        0.384   0.5232   0.9316     H
H        0.389   0.7522   0.7094     H
H        0.389   0.9155   0.1507     H
C       0.4237   0.7299   0.5572     C
O        0.441   0.9796  0.19164     O
Mn      0.4649  0.86462  0.34223    Mn
H       0.4768    0.384   0.1816     H
C       0.4837   0.7282   0.6654     C
O       0.4837   0.8369   0.4994     O
O       0.5163   0.1631   0.9994     O
C       0.5163   0.2718   0.1654     C
H       0.5232    0.616   0.6816     H
Mn      0.5351  0.13538  0.84223    Mn
O        0.559   0.0204  0.69164     O
C       0.5763   0.2701   0.0572     C
H        0.611   0.0845   0.6507     H
H        0.611   0.2478   0.2094     H
H        0.616   0.4768   0.4316     H
O       0.6209   0.6784  0.27941     O
C       0.6236    0.853   0.6887     C
O       0.6784   0.3791  0.02941     O
O       0.6803   0.2081   0.5416     O
O       0.6826   0.9043  0.86432     O
C       0.7074   0.8101   0.7904     C
H       0.7084    0.846    0.635     H
C       0.7282   0.5163   0.4154     C
C       0.7299   0.5763   0.3072     C
H       0.7522    0.611   0.4594     H
O       0.7919   0.6803   0.7916     O
C       0.8101   0.2926   0.5404     C
O       0.8369   0.5163   0.2494     O
H        0.846   0.2916    0.385     H
C        0.853   0.3764   0.4387     C
Mn     0.86462   0.5351  0.09223    Mn
O       0.9043   0.3174  0.61432     O
H       0.9155    0.611   0.9007     H
O       0.9796    0.559  0.94164     O
