data_I
_chemical_name_common  '/home/zhangsd/repos/MofS-CGCNN/ML/data/SSD/clean_cifs/COQTEJ_clean'
_cell_length_a 34.34130
_cell_length_b 10.04470
_cell_length_c 17.73820
_cell_angle_alpha 90.00000
_cell_angle_beta  96.23400
_cell_angle_gamma 90.00000
_space_group_name_H-M_alt      'P 1'


loop_
_space_group_symop_operation_xyz
  'x, y, z' 

loop_
_atom_site_label
_atom_site_fract_x
_atom_site_fract_y
_atom_site_fract_z
_atom_site_type_symbol
H       0.0102   0.4541   0.3125     H
H       0.0102   0.5459   0.8125     H
C      0.01466   0.4641   0.3659     C
C      0.01466   0.5359   0.8659     C
C      0.01863   0.4931   0.0224     C
C      0.01863   0.5069   0.5224     C
C      0.02002   0.4674   0.0987     C
C      0.02002   0.5326   0.5987     C
C       0.0503   0.4776   0.4091     C
C       0.0503   0.5224   0.9091     C
C      0.05281   0.4983   0.9858     C
C      0.05281   0.5017   0.4858     C
C      0.05827    0.455   0.1464     C
C      0.05827    0.545   0.6464     C
O      0.06188   0.4332   0.2142     O
O      0.06188   0.5668   0.7142     O
H       0.0732   0.4703   0.3858     H
H       0.0732   0.5297   0.8858     H
N      0.09105   0.4589  0.10785     N
N      0.09105   0.5411  0.60785     N
C      0.09132   0.4836   0.0312     C
C      0.09132   0.5164   0.5312     C
O      0.12227   0.4899   0.0032     O
O      0.12227   0.5101   0.5032     O
H       0.1287   0.2402   0.1486     H
H       0.1287   0.7598   0.6486     H
C      0.12909   0.4419    0.152     C
C      0.12909   0.5581    0.652     C
H        0.141   0.3642   0.6668     H
H        0.141   0.6358   0.1668     H
C      0.14382    0.314   0.1646     C
C      0.14382    0.686   0.6646     C
C      0.15129   0.4492   0.6752     C
C      0.15129   0.5508   0.1752     C
O      0.17709    0.059  0.20271     O
O      0.17709    0.941  0.70271     O
C      0.18116   0.2978   0.2011     C
C      0.18116   0.7022   0.7011     C
C      0.18851   0.4645   0.7108     C
C      0.18851   0.5355   0.2108     C
O      0.19765   0.2345  0.73042     O
O      0.19765   0.7655  0.23042     O
C      0.19832   0.1593   0.2135     C
C      0.19832   0.8407   0.7135     C
C      0.20374   0.4065   0.2226     C
C      0.20374   0.5935   0.7226     C
C      0.21431    0.347   0.7346     C
C      0.21431    0.653   0.2346     C
Mg     0.22581  0.06213  0.73681    Mg
Mg     0.22581  0.93787  0.23681    Mg
O       0.2284   0.0347  0.86027     O
O       0.2284   0.9653  0.36027     O
H       0.2293   0.3948   0.2451     H
H       0.2293   0.6052   0.7451     H
O      0.23397   0.1499  0.23526     O
O      0.23397   0.8501  0.73526     O
H       0.2483    0.034   0.4966     H
H       0.2483    0.966   0.9966     H
O      0.24922   0.3665  0.75515     O
O      0.24922   0.6335  0.25515     O
O      0.24974   0.0849  0.64006     O
O      0.24974   0.9151  0.14006     O
C      0.26441   0.0545   0.8638     C
C      0.26441   0.9455   0.3638     C
C      0.27537   0.0318   0.4959     C
C      0.27537   0.9682   0.9959     C
O      0.28002   0.0995   0.8071     O
O      0.28002   0.9005   0.3071     O
C      0.28265   0.1267   0.6291     C
C      0.28265   0.8733   0.1291     C
C      0.29085   0.0166   0.9324     C
C      0.29085   0.9834   0.4324     C
C      0.29975   0.0775   0.5591     C
C      0.29975   0.9225   0.0591     C
Mg     0.30357  0.28265  0.77617    Mg
Mg     0.30357  0.71735  0.27617    Mg
O      0.30406   0.2055   0.6704     O
O      0.30406   0.7945   0.1704     O
C      0.33127   0.0198   0.9333     C
C      0.33127   0.9802   0.4333     C
C      0.33995   0.0752   0.5583     C
C      0.33995   0.9248   0.0583     C
H       0.3411   0.0485   0.8966     H
H       0.3411   0.9515   0.3966     H
C       0.3547    0.023   0.4965     C
C       0.3547    0.977   0.9965     C
H       0.3565   0.1086   0.5989     H
H       0.3565   0.8914   0.0989     H
O      0.39631   0.1964     0.42     O
O      0.39631   0.8036     0.92     O
N      0.39782   0.0151   0.4963     N
N      0.39782   0.9849   0.9963     N
O      0.39811   0.1641   0.0727     O
O      0.39811   0.8359   0.5727     O
C      0.41533   0.1101   0.4539     C
C      0.41533   0.8899   0.9539     C
C      0.41657   0.0865   0.0397     C
C      0.41657   0.9135   0.5397     C
C      0.45877   0.1025   0.4559     C
C      0.45877   0.8975   0.9559     C
C      0.46035   0.0904   0.0396     C
C      0.46035   0.9096   0.5396     C
H       0.4651   0.2369   0.3746     H
H       0.4651   0.7631   0.8746     H
H       0.4673   0.2642   0.0881     H
H       0.4673   0.7358   0.5881     H
C       0.4782   0.1918   0.4155     C
C       0.4782   0.8082   0.9155     C
C      0.47924   0.0033   0.4995     C
C      0.47924   0.9967   0.9995     C
C      0.48153   0.1861   0.0829     C
C      0.48153   0.8139   0.5829     C
C      0.51847   0.1861   0.4171     C
C      0.51847   0.8139   0.9171     C
C      0.52076   0.0033   0.0005     C
C      0.52076   0.9967   0.5005     C
C       0.5218   0.1918   0.0845     C
C       0.5218   0.8082   0.5845     C
H       0.5327   0.2642   0.4119     H
H       0.5327   0.7358   0.9119     H
H       0.5349   0.2369   0.1254     H
H       0.5349   0.7631   0.6254     H
C      0.53965   0.0904   0.4604     C
C      0.53965   0.9096   0.9604     C
C      0.54123   0.1025   0.0441     C
C      0.54123   0.8975   0.5441     C
C      0.58343   0.0865   0.4603     C
C      0.58343   0.9135   0.9603     C
C      0.58467   0.1101   0.0461     C
C      0.58467   0.8899   0.5461     C
O      0.60189   0.1641   0.4273     O
O      0.60189   0.8359   0.9273     O
N      0.60218   0.0151   0.0037     N
N      0.60218   0.9849   0.5037     N
O      0.60369   0.1964     0.08     O
O      0.60369   0.8036     0.58     O
H       0.6435   0.1086   0.9011     H
H       0.6435   0.8914   0.4011     H
C       0.6453    0.023   0.0035     C
C       0.6453    0.977   0.5035     C
H       0.6589   0.0485   0.6034     H
H       0.6589   0.9515   0.1034     H
C      0.66005   0.0752   0.9417     C
C      0.66005   0.9248   0.4417     C
C      0.66873   0.0198   0.5667     C
C      0.66873   0.9802   0.0667     C
O      0.69594   0.2055   0.8296     O
O      0.69594   0.7945   0.3296     O
Mg     0.69643  0.28265  0.72383    Mg
Mg     0.69643  0.71735  0.22383    Mg
C      0.70025   0.0775   0.9409     C
C      0.70025   0.9225   0.4409     C
C      0.70915   0.0166   0.5676     C
C      0.70915   0.9834   0.0676     C
C      0.71735   0.1267   0.8709     C
C      0.71735   0.8733   0.3709     C
O      0.71998   0.0995   0.6929     O
O      0.71998   0.9005   0.1929     O
C      0.72463   0.0318   0.0041     C
C      0.72463   0.9682   0.5041     C
C      0.73559   0.0545   0.6362     C
C      0.73559   0.9455   0.1362     C
O      0.75026   0.0849  0.85994     O
O      0.75026   0.9151  0.35994     O
O      0.75078   0.3665  0.74485     O
O      0.75078   0.6335  0.24485     O
H       0.7517    0.034   0.0034     H
H       0.7517    0.966   0.5034     H
O      0.76603   0.1499  0.26474     O
O      0.76603   0.8501  0.76474     O
H       0.7707   0.3948   0.2549     H
H       0.7707   0.6052   0.7549     H
O       0.7716   0.0347  0.63973     O
O       0.7716   0.9653  0.13973     O
Mg     0.77419  0.06213  0.76319    Mg
Mg     0.77419  0.93787  0.26319    Mg
C      0.78569    0.347   0.7654     C
C      0.78569    0.653   0.2654     C
C      0.79626   0.4065   0.2774     C
C      0.79626   0.5935   0.7774     C
C      0.80168   0.1593   0.2865     C
C      0.80168   0.8407   0.7865     C
O      0.80235   0.2345  0.76958     O
O      0.80235   0.7655  0.26958     O
C      0.81149   0.4645   0.7892     C
C      0.81149   0.5355   0.2892     C
C      0.81884   0.2978   0.2989     C
C      0.81884   0.7022   0.7989     C
O      0.82291    0.059  0.29729     O
O      0.82291    0.941  0.79729     O
C      0.84871   0.4492   0.8248     C
C      0.84871   0.5508   0.3248     C
C      0.85618    0.314   0.3354     C
C      0.85618    0.686   0.8354     C
H        0.859   0.3642   0.8332     H
H        0.859   0.6358   0.3332     H
C      0.87091   0.4419    0.348     C
C      0.87091   0.5581    0.848     C
H       0.8713   0.2402   0.3514     H
H       0.8713   0.7598   0.8514     H
O      0.87773   0.4899   0.4968     O
O      0.87773   0.5101   0.9968     O
C      0.90868   0.4836   0.4688     C
C      0.90868   0.5164   0.9688     C
N      0.90895   0.4589  0.39215     N
N      0.90895   0.5411  0.89215     N
H       0.9268   0.4703   0.1142     H
H       0.9268   0.5297   0.6142     H
O      0.93812   0.4332   0.2858     O
O      0.93812   0.5668   0.7858     O
C      0.94173    0.455   0.3536     C
C      0.94173    0.545   0.8536     C
C      0.94719   0.4983   0.5142     C
C      0.94719   0.5017   0.0142     C
C       0.9497   0.4776   0.0909     C
C       0.9497   0.5224   0.5909     C
C      0.97998   0.4674   0.4013     C
C      0.97998   0.5326   0.9013     C
C      0.98137   0.4931   0.4776     C
C      0.98137   0.5069   0.9776     C
C      0.98534   0.4641   0.1341     C
C      0.98534   0.5359   0.6341     C
H       0.9898   0.4541   0.1875     H
H       0.9898   0.5459   0.6875     H
