data_I
_chemical_name_common  '/home/zhangsd/repos/MofS-CGCNN/ML/data/SSD/clean_cifs/COTVUE_clean'
_cell_length_a 14.48210
_cell_length_b 16.71370
_cell_length_c 19.21300
_cell_angle_alpha 90.00000
_cell_angle_beta  108.03900
_cell_angle_gamma 90.00000
_space_group_name_H-M_alt      'P 1'


loop_
_space_group_symop_operation_xyz
  'x, y, z' 

loop_
_atom_site_label
_atom_site_fract_x
_atom_site_fract_y
_atom_site_fract_z
_atom_site_type_symbol
C          0.0   0.0085   0.5293     C
C          0.0   0.9915   0.4707     C
C       0.0008   0.9735   0.3983     C
C       0.0043   0.7507   0.5228     C
O       0.0064   0.1809   0.1061     O
H       0.0087   0.3055    0.938     H
C       0.0104   0.9311   0.2607     C
H       0.0133   0.9168   0.2147     H
C       0.0161   0.7176   0.4582     C
C       0.0219   0.2243   0.0599     C
O       0.0233   0.2295   0.7793     O
C       0.0264   0.1227   0.7009     C
C       0.0321   0.1006   0.6319     C
H       0.0367   0.3055   0.5767     H
C       0.0369    0.027   0.3582     C
O       0.0435   0.6112   0.1792     O
C       0.0438   0.0071   0.2888     C
O       0.0505    0.639   0.3375     O
C       0.0528   0.7018   0.0574     C
C       0.0529   0.2026   0.7337     C
H       0.0571   0.0773   0.3776     H
H       0.0585   0.1361    0.606     H
C       0.0612   0.7397   0.9953     C
Dy     0.07739   0.3638  0.77104    Dy
H       0.0786   0.8083    0.613     H
C       0.0823   0.0622   0.2428     C
C       0.0847   0.7854   0.5705     C
H       0.0886   0.5375   0.9113     H
C       0.0914   0.2478   0.4694     C
O       0.0915   0.1352  0.26145     O
C       0.1057   0.7194   0.4468     C
O       0.1062   0.2423   0.0614     O
H       0.1067   0.6054   0.8606     H
O       0.1154   0.0334   0.1958     O
O       0.1154   0.2452   0.7101     O
C       0.1179   0.6871   0.3787     C
O        0.118   0.4925   0.8202     O
C       0.1271   0.6275   0.1762     C
C       0.1279   0.5539   0.8817     C
C       0.1346   0.6742   0.1138     C
H       0.1349   0.5039   0.7827     H
C       0.1536    0.752     0.99     C
H       0.1608    0.779   0.9497     H
O        0.167   0.3256   0.8977     O
C       0.1684   0.2386   0.4633     C
C       0.1749   0.7884   0.5592     C
Dy     0.17641   0.1563  0.16881    Dy
C       0.1863   0.7539   0.4942     C
O       0.1925   0.7055   0.3592     O
H       0.1946   0.5571   0.9115     H
O       0.2006   0.6145  0.22693     O
H       0.2175   0.1691   0.3575     H
C       0.2272   0.6864   0.1062     C
C       0.2352   0.7247   0.0439     C
C       0.2441    0.323   0.8856     C
O       0.2452   0.3483    0.827     O
H       0.2455   0.7549   0.4848     H
H       0.2545   0.2549   0.0152     H
O       0.2548   0.8483    0.673     O
C       0.2559    0.823   0.6144     C
C       0.2648   0.2247   0.4561     C
C       0.2728   0.1864   0.3938     C
H       0.2825   0.6691   0.1425     H
O       0.2994   0.1145  0.27307     O
H       0.3054   0.0571   0.5885     H
O       0.3075   0.2055   0.1408     O
C       0.3137   0.2539   0.0058     C
Dy     0.32359   0.6563  0.33119    Dy
C       0.3251   0.2884   0.9408     C
C       0.3316   0.7386   0.0367     C
O        0.333   0.8256   0.6023     O
H       0.3392    0.279   0.5503     H
C       0.3464    0.252     0.51     C
H       0.3651   0.0039   0.7173     H
C       0.3654   0.1742   0.3862     C
C       0.3721   0.0539   0.6183     C
C       0.3729   0.1275   0.3238     C
O        0.382   0.9925   0.6798     O
C       0.3821   0.1871   0.1213     C
O       0.3846   0.5334   0.3042     O
O       0.3846   0.7452   0.7899     O
H       0.3933   0.1054   0.6394     H
O       0.3938   0.7423   0.4386     O
C       0.3943   0.2194   0.0532     C
O       0.4085   0.6352  0.23855     O
C       0.4086   0.7478   0.0306     C
H       0.4114   0.0375   0.5887     H
C       0.4153   0.2854   0.9295     C
C       0.4177   0.5622   0.2572     C
H       0.4214   0.3083    0.887     H
Dy     0.42261   0.8638  0.72896    Dy
C       0.4388   0.2397   0.5047     C
H       0.4415   0.6361    0.894     H
H       0.4429   0.5773   0.1224     H
C       0.4471   0.7026   0.7663     C
C       0.4472   0.2018   0.4426     C
O       0.4495    0.139   0.1625     O
C       0.4562   0.5071   0.2112     C
O       0.4565   0.1112   0.3208     O
C       0.4631    0.527   0.1418     C
H       0.4633   0.8055   0.9233     H
C       0.4679   0.6006   0.8681     C
C       0.4736   0.6227   0.7991     C
O       0.4767   0.7295   0.7207     O
C       0.4781   0.7243   0.4401     C
C       0.4839   0.2176   0.0418     C
H       0.4867   0.4168   0.2853     H
C       0.4896   0.4311   0.2393     C
H       0.4913   0.8055    0.562     H
O       0.4936   0.6809   0.3939     O
C       0.4957   0.2507   0.9772     C
C       0.4992   0.4735   0.1017     C
C          0.5   0.4915   0.0293     C
C          0.5   0.5085   0.9707     C
C       0.5008   0.5265   0.8983     C
C       0.5043   0.7493   0.0228     C
O       0.5064   0.3191   0.6061     O
H       0.5087   0.1945    0.438     H
C       0.5104   0.5689   0.7607     C
H       0.5133   0.5832   0.7147     H
C       0.5161   0.7824   0.9582     C
C       0.5219   0.2757   0.5599     C
O       0.5233   0.2705   0.2793     O
C       0.5264   0.3773   0.2009     C
C       0.5321   0.3994   0.1319     C
H       0.5367   0.1945   0.0767     H
C       0.5369    0.473   0.8582     C
O       0.5435   0.8888   0.6792     O
C       0.5438   0.4929   0.7888     C
O       0.5505    0.861   0.8375     O
C       0.5528   0.7982   0.5574     C
C       0.5529   0.2974   0.2337     C
H       0.5571   0.4227   0.8776     H
H       0.5585   0.3639    0.106     H
C       0.5612   0.7603   0.4953     C
Dy     0.57739   0.1362  0.27104    Dy
H       0.5786   0.6917    0.113     H
C       0.5823   0.4378   0.7428     C
C       0.5847   0.7146   0.0705     C
H       0.5886   0.9625   0.4113     H
C       0.5914   0.2522   0.9694     C
O       0.5915   0.3648  0.76145     O
C       0.6057   0.7806   0.9468     C
O       0.6062   0.2577   0.5614     O
H       0.6067   0.8946   0.3606     H
O       0.6154   0.2548   0.2101     O
O       0.6154   0.4666   0.6958     O
C       0.6179   0.8129   0.8787     C
O        0.618   0.0075   0.3202     O
C       0.6271   0.8725   0.6762     C
C       0.6279   0.9461   0.3817     C
C       0.6346   0.8258   0.6138     C
H       0.6349   0.9961   0.2827     H
C       0.6536    0.748     0.49     C
H       0.6608    0.721   0.4497     H
O        0.667   0.1744   0.3977     O
C       0.6684   0.2614   0.9633     C
C       0.6749   0.7116   0.0592     C
Dy     0.67641   0.3437  0.66881    Dy
C       0.6863   0.7461   0.9942     C
O       0.6925   0.7945   0.8592     O
H       0.6946   0.9429   0.4115     H
O       0.7006   0.8855  0.72693     O
H       0.7175   0.3309   0.8575     H
C       0.7272   0.8136   0.6062     C
C       0.7352   0.7753   0.5439     C
C       0.7441    0.177   0.3856     C
O       0.7452   0.1517    0.327     O
H       0.7455   0.7451   0.9848     H
H       0.7545   0.2451   0.5152     H
O       0.7548   0.6517    0.173     O
C       0.7559    0.677   0.1144     C
C       0.7648   0.2753   0.9561     C
C       0.7728   0.3136   0.8938     C
H       0.7825   0.8309   0.6425     H
O       0.7994   0.3855  0.77307     O
H       0.8054   0.4429   0.0885     H
O       0.8075   0.2945   0.6408     O
C       0.8137   0.2461   0.5058     C
Dy     0.82359   0.8437  0.83119    Dy
C       0.8251   0.2116   0.4408     C
C       0.8316   0.7614   0.5367     C
O        0.833   0.6744   0.1023     O
H       0.8392    0.221   0.0503     H
C       0.8464    0.248     0.01     C
H       0.8651   0.4961   0.2173     H
C       0.8654   0.3258   0.8862     C
C       0.8721   0.4461   0.1183     C
C       0.8729   0.3725   0.8238     C
O        0.882   0.5075   0.1798     O
C       0.8821   0.3129   0.6213     C
O       0.8846   0.7548   0.2899     O
O       0.8846   0.9666   0.8042     O
H       0.8933   0.3946   0.1394     H
O       0.8938   0.7577   0.9386     O
C       0.8943   0.2806   0.5532     C
O       0.9085   0.8648  0.73855     O
C       0.9086   0.7522   0.5306     C
H       0.9114   0.4625   0.0887     H
C       0.9153   0.2146   0.4295     C
C       0.9177   0.9378   0.7572     C
H       0.9214   0.1917    0.387     H
Dy     0.92261   0.6362  0.22896    Dy
C       0.9388   0.2603   0.0047     C
H       0.9415   0.8639    0.394     H
H       0.9429   0.9227   0.6224     H
C       0.9471   0.7974   0.2663     C
C       0.9472   0.2982   0.9426     C
O       0.9495    0.361   0.6625     O
C       0.9562   0.9929   0.7112     C
O       0.9565   0.3888   0.8208     O
C       0.9631    0.973   0.6418     C
H       0.9633   0.6945   0.4233     H
C       0.9679   0.8994   0.3681     C
C       0.9736   0.8773   0.2991     C
O       0.9767   0.7705   0.2207     O
C       0.9781   0.7757   0.9401     C
C       0.9839   0.2824   0.5418     C
H       0.9867   0.0832   0.7853     H
C       0.9896   0.0689   0.7393     C
H       0.9913   0.6945    0.062     H
O       0.9936   0.8191   0.8939     O
C       0.9957   0.2493   0.4772     C
C       0.9992   0.0265   0.6017     C
