data_I
_chemical_name_common  '/home/zhangsd/repos/MofS-CGCNN/ML/data/SSD/clean_cifs/COTVIS_clean'
_cell_length_a 14.59520
_cell_length_b 16.73290
_cell_length_c 19.57130
_cell_angle_alpha 90.00000
_cell_angle_beta  107.34400
_cell_angle_gamma 90.00000
_space_group_name_H-M_alt      'P 1'


loop_
_space_group_symop_operation_xyz
  'x, y, z' 

loop_
_atom_site_label
_atom_site_fract_x
_atom_site_fract_y
_atom_site_fract_z
_atom_site_type_symbol
C       0.0001    0.008   0.5291     C
C       0.0006   0.9733   0.3985     C
C       0.0037   0.7506   0.5222     C
O       0.0062   0.1814   0.1061     O
H       0.0075   0.3046   0.9371     H
C       0.0106   0.9304   0.2606     C
H       0.0141   0.9162   0.2155     H
C       0.0158   0.7175   0.4582     C
C       0.0204   0.2247   0.0599     C
O       0.0231   0.2297   0.7792     O
C       0.0261   0.1229   0.7008     C
C       0.0316   0.1002   0.6319     C
C       0.0363   0.0271   0.3587     C
H       0.0363   0.3052    0.576     H
O       0.0429   0.6115   0.1787     O
C       0.0436   0.0079   0.2896     C
O         0.05   0.6389   0.3376     O
C       0.0533   0.2027   0.7334     C
C       0.0534   0.7022   0.0578     C
H       0.0561   0.0774   0.3777     H
H       0.0576    0.136   0.6064     H
C       0.0624   0.7397   0.9952     C
H       0.0688   0.5097   0.6073     H
Nd     0.07771  0.36419  0.77086    Nd
H       0.0786   0.8077   0.6119     H
C       0.0823   0.0627   0.2433     C
C        0.085    0.785   0.5702     C
H       0.0867   0.5391   0.9095     H
O       0.0906   0.1357   0.2611     O
C       0.0914   0.2479   0.4704     C
H        0.094   0.4007   0.6735     H
O       0.1056   0.2429   0.0614     O
C       0.1062    0.719   0.4468     C
H       0.1103   0.6062   0.8614     H
O       0.1147    0.034   0.1962     O
O       0.1151   0.2448   0.7098     O
C       0.1166   0.6866   0.3791     C
O       0.1185   0.4926   0.8207     O
C       0.1272   0.6285   0.1764     C
C       0.1281   0.5541   0.8817     C
C       0.1344   0.6747   0.1129     C
C       0.1352    0.499   0.6315     C
H       0.1353   0.5039   0.7832     H
O       0.1429   0.4308   0.6872     O
C       0.1543   0.7517   0.9907     C
H       0.1623   0.7786   0.9513     H
H       0.1652   0.5464   0.6556     H
O       0.1661   0.3254   0.8974     O
H       0.1668   0.4828   0.5972     H
C       0.1687   0.2381   0.4634     C
C       0.1746   0.7871   0.5592     C
Nd     0.17618  0.15692  0.16885    Nd
C       0.1856   0.7534   0.4947     C
O       0.1923   0.7058   0.3597     O
H       0.1934   0.5553   0.9119     H
O       0.2007   0.6154   0.2267     O
H       0.2179   0.1695   0.3583     H
C       0.2277   0.6864   0.1061     C
C       0.2353   0.7244   0.0439     C
C       0.2436   0.3228   0.8858     C
H       0.2445   0.7546   0.4855     H
O       0.2459   0.3475   0.8276     O
O       0.2541   0.8475   0.6724     O
H       0.2555   0.2546   0.0145     H
C       0.2564   0.8228   0.6142     C
C       0.2647   0.2244   0.4561     C
C       0.2723   0.1864   0.3939     C
H       0.2821   0.6695   0.1417     H
O       0.2993   0.1154   0.2733     O
H       0.3066   0.0553   0.5881     H
O       0.3077   0.2058   0.1403     O
C       0.3144   0.2534   0.0053     C
Nd     0.32382  0.65692  0.33115    Nd
C       0.3254   0.2871   0.9408     C
C       0.3313   0.7381   0.0366     C
H       0.3332   0.9828   0.9028     H
O       0.3339   0.8254   0.6026     O
H       0.3348   0.0464   0.8444     H
H       0.3377   0.2786   0.5487     H
C       0.3457   0.2517   0.5093     C
O       0.3571   0.9308   0.8128     O
H       0.3647   0.0039   0.7168     H
C       0.3648    0.999   0.8685     C
C       0.3656   0.1747   0.3871     C
C       0.3719   0.0541   0.6183     C
C       0.3728   0.1285   0.3236     C
O       0.3815   0.9926   0.6793     O
C       0.3834   0.1866   0.1209     C
O       0.3849   0.7448   0.7902     O
O       0.3853    0.534   0.3038     O
H       0.3897   0.1062   0.6386     H
C       0.3938    0.219   0.0532     C
O       0.3944   0.7429   0.4386     O
H        0.406   0.9007   0.8265     H
C       0.4086   0.7479   0.0296     C
O       0.4094   0.6357   0.2389     O
H       0.4133   0.0391   0.5905     H
C        0.415    0.285   0.9298     C
C       0.4177   0.5627   0.2567     C
H       0.4214   0.3077   0.8881     H
Nd     0.42229  0.86419  0.72914    Nd
H       0.4312   0.0097   0.8927     H
C       0.4376   0.2397   0.5048     C
H       0.4424    0.636   0.8936     H
H       0.4439   0.5774   0.1223     H
C       0.4466   0.2022   0.4422     C
C       0.4467   0.7027   0.7666     C
O         0.45   0.1389   0.1624     O
C       0.4564   0.5079   0.2104     C
O       0.4571   0.1115   0.3213     O
C       0.4637   0.5271   0.1413     C
H       0.4637   0.8052    0.924     H
C       0.4684   0.6002   0.8681     C
C       0.4739   0.6229   0.7992     C
O       0.4769   0.7297   0.7208     O
C       0.4796   0.7247   0.4401     C
C       0.4842   0.2175   0.0418     C
H       0.4859   0.4162   0.2845     H
C       0.4894   0.4304   0.2394     C
H       0.4925   0.8046   0.5629     H
O       0.4938   0.6814   0.3939     O
C       0.4963   0.2506   0.9778     C
C       0.4994   0.4733   0.1015     C
C       0.4999    0.508   0.9709     C
C       0.5001    0.492   0.0291     C
C       0.5006   0.5267   0.8985     C
C       0.5037   0.7494   0.0222     C
O       0.5062   0.3186   0.6061     O
H       0.5075   0.1954   0.4371     H
C       0.5106   0.5696   0.7606     C
H       0.5141   0.5838   0.7155     H
C       0.5158   0.7825   0.9582     C
C       0.5204   0.2753   0.5599     C
O       0.5231   0.2703   0.2792     O
C       0.5261   0.3771   0.2008     C
C       0.5316   0.3998   0.1319     C
H       0.5363   0.1948    0.076     H
C       0.5363   0.4729   0.8587     C
O       0.5429   0.8885   0.6787     O
C       0.5436   0.4921   0.7896     C
O         0.55   0.8611   0.8376     O
C       0.5533   0.2973   0.2334     C
C       0.5534   0.7978   0.5578     C
H       0.5561   0.4226   0.8777     H
H       0.5576    0.364   0.1064     H
C       0.5624   0.7603   0.4952     C
H       0.5688   0.9903   0.1073     H
Nd     0.57771  0.13581  0.27086    Nd
H       0.5786   0.6923   0.1119     H
C       0.5823   0.4373   0.7433     C
C        0.585    0.715   0.0702     C
H       0.5867   0.9609   0.4095     H
O       0.5906   0.3643   0.7611     O
C       0.5914   0.2521   0.9704     C
H        0.594   0.0993   0.1735     H
O       0.6056   0.2571   0.5614     O
C       0.6062    0.781   0.9468     C
H       0.6103   0.8938   0.3614     H
O       0.6147    0.466   0.6962     O
O       0.6151   0.2552   0.2098     O
C       0.6166   0.8134   0.8791     C
O       0.6185   0.0074   0.3207     O
C       0.6272   0.8715   0.6764     C
C       0.6281   0.9459   0.3817     C
C       0.6344   0.8253   0.6129     C
C       0.6352    0.001   0.1315     C
H       0.6353   0.9961   0.2832     H
O       0.6429   0.0692   0.1872     O
C       0.6543   0.7483   0.4907     C
H       0.6623   0.7214   0.4513     H
H       0.6652   0.9536   0.1556     H
O       0.6661   0.1746   0.3974     O
H       0.6668   0.0172   0.0972     H
C       0.6687   0.2619   0.9634     C
C       0.6746   0.7129   0.0592     C
Nd     0.67618  0.34308  0.66885    Nd
C       0.6856   0.7466   0.9947     C
O       0.6923   0.7942   0.8597     O
H       0.6934   0.9447   0.4119     H
O       0.7007   0.8846   0.7267     O
H       0.7179   0.3305   0.8583     H
C       0.7277   0.8136   0.6061     C
C       0.7353   0.7756   0.5439     C
C       0.7436   0.1772   0.3858     C
H       0.7445   0.7454   0.9855     H
O       0.7459   0.1525   0.3276     O
O       0.7541   0.6525   0.1724     O
H       0.7555   0.2454   0.5145     H
C       0.7564   0.6772   0.1142     C
C       0.7647   0.2756   0.9561     C
C       0.7723   0.3136   0.8939     C
H       0.7821   0.8305   0.6417     H
O       0.7993   0.3846   0.7733     O
H       0.8066   0.4447   0.0881     H
O       0.8077   0.2942   0.6403     O
C       0.8144   0.2466   0.5053     C
Nd     0.82382  0.84308  0.83115    Nd
C       0.8254   0.2129   0.4408     C
C       0.8313   0.7619   0.5366     C
H       0.8332   0.5172   0.4028     H
O       0.8339   0.6746   0.1026     O
H       0.8348   0.4536   0.3444     H
H       0.8377   0.2214   0.0487     H
C       0.8457   0.2483   0.0093     C
O       0.8571   0.5692   0.3128     O
H       0.8647   0.4961   0.2168     H
C       0.8648    0.501   0.3685     C
C       0.8656   0.3253   0.8871     C
C       0.8719   0.4459   0.1183     C
C       0.8728   0.3715   0.8236     C
O       0.8815   0.5074   0.1793     O
C       0.8834   0.3134   0.6209     C
O       0.8849   0.7552   0.2902     O
O       0.8853    0.966   0.8038     O
H       0.8897   0.3938   0.1386     H
C       0.8938    0.281   0.5532     C
O       0.8944   0.7571   0.9386     O
H        0.906   0.5993   0.3265     H
C       0.9086   0.7521   0.5296     C
O       0.9094   0.8643   0.7389     O
H       0.9133   0.4609   0.0905     H
C        0.915    0.215   0.4298     C
C       0.9177   0.9373   0.7567     C
H       0.9214   0.1923   0.3881     H
Nd     0.92229  0.63581  0.22914    Nd
H       0.9312   0.4903   0.3927     H
C       0.9376   0.2603   0.0048     C
H       0.9424    0.864   0.3936     H
H       0.9439   0.9226   0.6223     H
C       0.9466   0.2978   0.9422     C
C       0.9467   0.7973   0.2666     C
O         0.95   0.3611   0.6624     O
C       0.9564   0.9921   0.7104     C
O       0.9571   0.3885   0.8213     O
H       0.9637   0.6948    0.424     H
C       0.9637   0.9729   0.6413     C
C       0.9684   0.8998   0.3681     C
C       0.9739   0.8771   0.2992     C
O       0.9769   0.7703   0.2208     O
C       0.9796   0.7753   0.9401     C
C       0.9842   0.2825   0.5418     C
H       0.9859   0.0838   0.7845     H
C       0.9894   0.0696   0.7394     C
H       0.9925   0.6954   0.0629     H
O       0.9938   0.8186   0.8939     O
C       0.9963   0.2494   0.4778     C
C       0.9994   0.0267   0.6015     C
C       0.9999    0.992   0.4709     C
