data_I
_chemical_name_common  '/home/zhangsd/repos/MofS-CGCNN/ML/data/SSD/clean_cifs/COXXIX_clean'
_cell_length_a  7.33290
_cell_length_b 14.37200
_cell_length_c 18.07000
_cell_angle_alpha 90.00000
_cell_angle_beta  90.86900
_cell_angle_gamma 90.00000
_space_group_name_H-M_alt      'P 1'


loop_
_space_group_symop_operation_xyz
  'x, y, z' 

loop_
_atom_site_label
_atom_site_fract_x
_atom_site_fract_y
_atom_site_fract_z
_atom_site_type_symbol
N        0.004  0.19406  0.01438     N
N       0.0044  0.14764  0.65193     N
N        0.026  0.95356  0.72576     N
C       0.0364  0.57581  0.28277     C
C        0.039  0.65017  0.41799     C
C       0.0471  0.26577  0.18726     C
N       0.0637   0.6794  0.80346     N
C       0.0651  0.08698  0.23463     C
N       0.0685  0.47507  0.74214     N
N        0.074  0.35122  0.53784     N
C       0.0891  0.78791  0.34505     C
C       0.0926  0.18394  0.06687     C
N        0.167    0.741  0.16242     N
C       0.1906  0.71234  0.22152     C
N       0.2053  0.94974  0.09385     N
C       0.2182  0.02345  0.11851     C
Mn     0.22928  0.06515  0.70388    Mn
Mo     0.24376  0.66157  0.33347    Mo
Mn     0.24986  0.80502  0.05465    Mn
Mn     0.25014  0.30502  0.44535    Mn
Mo     0.25624  0.16157  0.16654    Mo
Mn     0.27072  0.56515  0.79612    Mn
C       0.2818  0.52345  0.38149     C
N       0.2947  0.44974  0.40615     N
C       0.3094  0.21234  0.27848     C
N        0.333    0.241  0.33758     N
C       0.4074  0.68394  0.43313     C
C       0.4109  0.28791  0.15495     C
N        0.426  0.85122  0.96216     N
N       0.4315  0.97507  0.75786     N
C       0.4349  0.58698  0.26537     C
N       0.4363   0.1794  0.69654     N
C       0.4529  0.76577  0.31274     C
C        0.461  0.15017  0.08201     C
C       0.4636  0.07581  0.21723     C
N        0.474  0.45356  0.77424     N
N       0.4956  0.64764  0.84807     N
N        0.496  0.69406  0.48562     N
N        0.504  0.30594  0.51438     N
N       0.5044  0.35236  0.15193     N
N        0.526  0.54644  0.22576     N
C       0.5364  0.92419  0.78277     C
C        0.539  0.84983  0.91799     C
C       0.5471  0.23423  0.68726     C
N       0.5637   0.8206  0.30346     N
C       0.5651  0.41302  0.73463     C
N       0.5685  0.02493  0.24214     N
N        0.574  0.14878  0.03784     N
C       0.5891  0.71209  0.84505     C
C       0.5926  0.31606  0.56687     C
N        0.667    0.759  0.66242     N
C       0.6906  0.78766  0.72152     C
N       0.7053  0.55026  0.59385     N
C       0.7182  0.47655  0.61851     C
Mn     0.72928  0.43485  0.20388    Mn
Mo     0.74376  0.83843  0.83346    Mo
Mn     0.74986  0.69498  0.55465    Mn
Mn     0.75014  0.19498  0.94535    Mn
Mo     0.75624  0.33843  0.66654    Mo
Mn     0.77072  0.93485  0.29612    Mn
C       0.7818  0.97655  0.88149     C
N       0.7947  0.05026  0.90615     N
C       0.8094  0.28766  0.77848     C
N        0.833    0.259  0.83758     N
C       0.9074  0.81606  0.93313     C
C       0.9109  0.21209  0.65495     C
N        0.926  0.64878  0.46216     N
N       0.9315  0.52493  0.25786     N
C       0.9349  0.91302  0.76537     C
N       0.9363   0.3206  0.19654     N
C       0.9529  0.73423  0.81274     C
C        0.961  0.34983  0.58201     C
C       0.9636  0.42419  0.71723     C
N        0.974  0.04644  0.27424     N
N       0.9956  0.85236  0.34807     N
N        0.996  0.80594  0.98562     N
