data_I
_chemical_name_common  '/home/zhangsd/repos/MofS-CGCNN/ML/data/SSD/clean_cifs/CUCSAU_clean'
_cell_length_a 11.20490
_cell_length_b 16.72600
_cell_length_c 17.15200
_cell_angle_alpha 64.59200
_cell_angle_beta  80.09500
_cell_angle_gamma 85.22500
_space_group_name_H-M_alt      'P 1'


loop_
_space_group_symop_operation_xyz
  'x, y, z' 

loop_
_atom_site_label
_atom_site_fract_x
_atom_site_fract_y
_atom_site_fract_z
_atom_site_type_symbol
H       0.0007   0.4296   0.7515     H
N       0.0053   0.5965  0.96026     N
H         0.01    0.289   0.0247     H
H       0.0114   0.4669    0.908     H
C       0.0206   0.2514   0.5101     C
N       0.0325   0.2387  0.26847     N
Li      0.0335   0.3546   0.2858    Li
H       0.0343   0.1173   0.2071     H
C       0.0387   0.1793   0.6646     C
Li      0.0394   0.1925   0.3977    Li
C       0.0414   0.0196   0.5627     C
H       0.0443   0.0588   0.5922     H
C       0.0455   0.8685   0.7728     C
Li      0.0486   0.5999   0.5927    Li
C       0.0532   0.5751   0.4287     C
C       0.0561   0.6749   0.9613     C
H       0.0611    0.285   0.8273     H
C       0.0625    0.806   0.7375     C
C       0.0635   0.4548   0.9531     C
N       0.0667   0.2972   0.4227     N
H       0.0679   0.6396   0.3987     H
C       0.0797   0.4179   0.7673     C
C       0.0812   0.4414   0.5534     C
C       0.0814   0.8443   0.3137     C
H       0.0869   0.1632   0.7097     H
C        0.088    0.005   0.4285     C
H        0.089   0.9654   0.5921     H
C       0.0907   0.2256    0.579     C
H       0.0935   0.5482   0.3895     H
N       0.0967  0.06519  0.47022     N
H        0.097    0.215    0.254     H
C       0.1014   0.7728   0.4659     C
H       0.1019     0.71   0.9038     H
N       0.1051   0.5375     0.51     N
Li      0.1055   0.3384   0.1428    Li
C        0.107   0.5405   0.9447     C
H       0.1101   0.6555   0.0055     H
H       0.1147   0.4147    0.609     H
C       0.1153   0.3318   0.8126     C
H       0.1156   0.8768   0.2544     H
N       0.1195   0.5744   0.6974     N
H       0.1219   0.4131   0.5155     H
H       0.1224   0.0343   0.3659     H
H       0.1293   0.9522   0.8028     H
H        0.134   0.4192   0.9422     H
H       0.1363   0.9507   0.4561     H
C       0.1433     0.91   0.7788     C
H        0.146    0.306    0.418     H
C       0.1506   0.8203   0.3786     C
H       0.1517   0.7566   0.5098     H
H        0.152    0.476    0.152     H
H       0.1523   0.5726   0.8853     H
C       0.1569   0.4887   0.7437     C
H       0.1631   0.5285   0.9872     H
H       0.1741   0.2405   0.5659     H
N       0.1799   0.4232   0.1817     N
C       0.1821   0.7885    0.709     C
H        0.183    0.611    0.683     H
H       0.1974   0.7465   0.6847     H
C       0.2239   0.0824   0.4663     C
H       0.2292   0.1195   0.4968     H
C       0.2303   0.3126   0.8373     C
H       0.2336   0.8362    0.364     H
C       0.2364   0.5514   0.4921     C
H       0.2377   0.1581   0.0433     H
H         0.24    0.305     0.04     H
H       0.2454   0.5646   0.1973     H
H       0.2529   0.6149   0.4622     H
H       0.2544    0.253   0.8692     H
C       0.2571   0.4311   0.2332     C
N       0.2583   0.2888   0.0907     N
C       0.2588   0.8915   0.7512     C
H       0.2611    0.113   0.4051     H
H       0.2666   0.0261   0.4942     H
H       0.2694   0.5259   0.5472     H
C       0.2727   0.4658   0.7693     C
C       0.2728   0.1387   0.0951     C
H       0.2746   0.5225   0.4548     H
C       0.2796   0.8308   0.7153     C
C       0.2835   0.5117   0.2331     C
C       0.2889   0.2005   0.1283     C
H       0.2943   0.0107   0.1118     H
H       0.3018   0.2992   0.2901     H
C        0.307   0.0502   0.1361     C
C       0.3074   0.3798   0.8154     C
C       0.3166   0.3553   0.2881     C
Li      0.3242   0.3773   0.1153    Li
H       0.3248   0.9201   0.7565     H
H       0.3287   0.5116   0.7541     H
C        0.341   0.1641    0.206     C
H       0.3413   0.6499     0.89     H
H       0.3532    0.202   0.2323     H
C        0.359   0.0185   0.2116     C
H         0.36   0.8181    0.695     H
C       0.3642   0.5154   0.2842     C
C        0.375   0.0761   0.2455     C
H       0.3775    0.565   0.0373     H
H       0.3782   0.4941   0.9401     H
H       0.3809    0.571   0.2824     H
H       0.3828   0.9581   0.2389     H
H       0.3859   0.3672    0.832     H
C       0.3962   0.3608   0.3392     C
H       0.4103   0.0555   0.2974     H
C       0.4207   0.4404   0.3374     C
C       0.4283   0.6608   0.8707     C
H       0.4344   0.3085   0.3759     H
H       0.4489   0.7149   0.8743     H
H       0.4491   0.6679   0.8102     H
C       0.4658   0.5742   0.0183     C
C       0.4665   0.5043   0.9225     C
H       0.4757   0.4438   0.3723     H
H       0.4869   0.6284   0.0224     H
H        0.488   0.5108   0.8616     H
N       0.4968   0.5855   0.9271     N
N       0.5032   0.4145   0.0729     N
H        0.512   0.4892   0.1384     H
H       0.5131   0.3716   0.9776     H
H       0.5243   0.5562   0.6277     H
C       0.5335   0.4957   0.0775     C
C       0.5342   0.4258   0.9817     C
H       0.5509   0.3321   0.1898     H
H       0.5511   0.2851   0.1257     H
H       0.5656   0.6915   0.6241     H
C       0.5717   0.3392   0.1293     C
C       0.5793   0.5596   0.6626     C
H       0.5897   0.9445   0.7026     H
C       0.6038   0.6392   0.6608     C
H       0.6141   0.6328    0.168     H
H       0.6172   0.0419   0.7611     H
H       0.6191    0.429   0.7176     H
H       0.6218   0.5059   0.0599     H
H       0.6225    0.435   0.9627     H
C        0.625   0.9239   0.7545     C
C       0.6358   0.4846   0.7158     C
H         0.64   0.1819    0.305     H
C        0.641   0.9815   0.7884     C
H       0.6468    0.798   0.7677     H
H       0.6587   0.3501     0.11     H
C        0.659   0.8359    0.794     C
H       0.6713   0.4884   0.2459     H
H       0.6752   0.0799   0.2435     H
Li      0.6758   0.6227   0.8847    Li
C       0.6834   0.6447   0.7119     C
C       0.6926   0.6202   0.1846     C
C        0.693   0.9498   0.8639     C
H       0.6982   0.7008   0.7099     H
H       0.7057   0.9893   0.8882     H
C       0.7111   0.7995   0.8717     C
C       0.7165   0.4883   0.7669     C
C       0.7204   0.1692   0.2847     C
H       0.7254   0.4775   0.5452     H
C       0.7272   0.8613   0.9049     C
C       0.7273   0.5342   0.2307     C
H       0.7306   0.4741   0.4528     H
H       0.7334   0.9739   0.5058     H
H       0.7389    0.887   0.5949     H
C       0.7412   0.1085   0.2488     C
N       0.7417   0.7112   0.9093     N
C       0.7429   0.5689   0.7668     C
H       0.7456    0.747   0.1308     H
H       0.7471   0.3851   0.5378     H
H       0.7546   0.4354   0.8027     H
H         0.76    0.695     0.96     H
H       0.7623   0.8419   0.9567     H
C       0.7636   0.4486   0.5079     C
H       0.7664   0.1638    0.636     H
C       0.7697   0.6874   0.1627     C
H       0.7708   0.8805   0.5032     H
C       0.7761   0.9176   0.5337     C
H       0.8026   0.2535   0.3153     H
H        0.817    0.389    0.317     H
C       0.8179   0.2115    0.291     C
N       0.8201   0.5768   0.8183     N
H       0.8259   0.7595   0.4341     H
H       0.8369   0.4715   0.0128     H
C       0.8431   0.5113   0.2563     C
H       0.8477   0.4274   0.1147     H
H        0.848    0.524    0.848     H
H       0.8483   0.2434   0.4902     H
C       0.8494   0.1797   0.6214     C
H        0.854    0.694    0.582     H
C       0.8567     0.09   0.2212     C
H       0.8637   0.0493   0.5439     H
H        0.866   0.5808   0.0578     H
H       0.8707   0.0478   0.1972     H
H       0.8776   0.9657   0.6341     H
H       0.8781   0.5869   0.4845     H
N       0.8805   0.4256   0.3026     N
H       0.8844   0.1232   0.7456     H
C       0.8847   0.6682   0.1874     C
H       0.8853   0.5853    0.391     H
H       0.8899   0.3445   0.9945     H
C        0.893   0.4595   0.0553     C
Li      0.8945   0.6616   0.8572    Li
N       0.8949   0.4625     0.49     N
H       0.8981     0.29   0.0962     H
C       0.8986   0.2272   0.5341     C
H        0.903    0.785    0.746     H
N       0.9033  0.93481  0.52978     N
H       0.9065   0.4518   0.6105     H
C       0.9093   0.7744    0.421     C
H        0.911   0.0346   0.4079     H
C        0.912    0.995   0.5715     C
H       0.9131   0.8368   0.2903     H
C       0.9186   0.1557   0.6863     C
C       0.9188   0.5586   0.4466     C
C       0.9203   0.5821   0.2327     C
H       0.9321   0.3604   0.6013     H
N       0.9333   0.7028   0.5773     N
C       0.9365   0.5452   0.0469     C
C       0.9375    0.194   0.2625     C
H       0.9389    0.715   0.1727     H
C       0.9439   0.3251   0.0387     C
C       0.9468   0.4249   0.5713     C
Li      0.9514   0.4001   0.4073    Li
C       0.9545   0.1315   0.2272     C
H       0.9557   0.9412   0.4078     H
C       0.9586   0.9804   0.4373     C
Li      0.9606   0.8075   0.6023    Li
C       0.9613   0.8207   0.3354     C
H       0.9657   0.8827   0.7929     H
Li      0.9665   0.6454   0.7142    Li
N       0.9675   0.7613  0.73153     N
C       0.9794   0.7486   0.4899     C
H       0.9886   0.5331    0.092     H
H         0.99    0.711   0.9753     H
N       0.9947   0.4035  0.03974     N
H       0.9993   0.5704   0.2485     H
