data_I
_chemical_name_common  '/home/zhangsd/repos/MofS-CGCNN/ML/data/SSD/clean_cifs/CUFFEP_clean'
_cell_length_a 20.46390
_cell_length_b 20.46390
_cell_length_c 20.46390
_cell_angle_alpha 90.00000
_cell_angle_beta  90.00000
_cell_angle_gamma 90.00000
_space_group_name_H-M_alt      'P 1'


loop_
_space_group_symop_operation_xyz
  'x, y, z' 

loop_
_atom_site_label
_atom_site_fract_x
_atom_site_fract_y
_atom_site_fract_z
_atom_site_type_symbol
In         0.0     0.25    0.375    In
In         0.0     0.75    0.125    In
C       0.0024   0.4698    0.596     C
C       0.0024   0.5302    0.904     C
C       0.0104   0.0826    0.558     C
C       0.0104   0.9174    0.942     C
C       0.0138   0.3461   0.4598     C
C       0.0138   0.6539   0.0402     C
C       0.0302    0.404   0.5024     C
C       0.0302    0.596   0.9976     C
O       0.0307   0.0367   0.8128     O
O       0.0307   0.9633   0.6872     O
O       0.0367   0.1872   0.4693     O
O       0.0367   0.8128   0.0307     O
C       0.0402   0.0138   0.6539     C
C       0.0402   0.9862   0.8461     C
O       0.0539   0.3329    0.414     O
O       0.0539   0.6671    0.086     O
C        0.058   0.4896   0.9174     C
C        0.058   0.5104   0.5826     C
O       0.0628   0.2867   0.2807     O
O       0.0628   0.7133   0.2193     O
C       0.0826    0.442   0.4896     C
C       0.0826    0.558   0.0104     C
O       0.0829   0.1961    0.336     O
O       0.0829   0.8039    0.164     O
O        0.086   0.0539   0.6671     O
O        0.086   0.9461   0.8329     O
C        0.096   0.4976   0.5302     C
C        0.096   0.5024   0.9698     C
C       0.0961   0.2362   0.2902     C
C       0.0961   0.7638   0.2098     C
In       0.125      0.0     0.75    In
C       0.1539   0.4598   0.9862     C
C       0.1539   0.5402   0.5138     C
C        0.154   0.2198   0.2476     C
C        0.154   0.7802   0.2524     C
O        0.164   0.0829   0.8039     O
O        0.164   0.9171   0.6961     O
O       0.1671    0.414   0.9461     O
O       0.1671    0.586   0.5539     O
C       0.1674   0.2604    0.192     C
C       0.1674   0.7396    0.308     C
O       0.1872   0.4693   0.0367     O
O       0.1872   0.5307   0.4633     O
C        0.192   0.1674   0.2604     C
C        0.192   0.8326   0.2396     C
O       0.1961    0.336   0.0829     O
O       0.1961    0.664   0.4171     O
C       0.2098   0.0961   0.7638     C
C       0.2098   0.9039   0.7362     C
O       0.2133   0.2807   0.9372     O
O       0.2133   0.7193   0.5628     O
O       0.2193   0.0628   0.7133     O
O       0.2193   0.9372   0.7867     O
C       0.2198   0.2476    0.154     C
C       0.2198   0.7524    0.346     C
C       0.2362   0.2902   0.0961     C
C       0.2362   0.7098   0.4039     C
C       0.2396    0.192   0.8326     C
C       0.2396    0.808   0.6674     C
C       0.2476    0.154   0.2198     C
C       0.2476    0.846   0.2802     C
In        0.25    0.375      0.0    In
In        0.25    0.625      0.5    In
C       0.2524    0.154   0.7802     C
C       0.2524    0.846   0.7198     C
C       0.2604    0.192   0.1674     C
C       0.2604    0.808   0.3326     C
C       0.2638   0.2902   0.9039     C
C       0.2638   0.7098   0.5961     C
C       0.2802   0.2476    0.846     C
C       0.2802   0.7524    0.654     C
O       0.2807   0.0628   0.2867     O
O       0.2807   0.9372   0.2133     O
O       0.2867   0.2807   0.0628     O
O       0.2867   0.7193   0.4372     O
C       0.2902   0.0961   0.2362     C
C       0.2902   0.9039   0.2638     C
O       0.3039    0.336   0.9171     O
O       0.3039    0.664   0.5829     O
C        0.308   0.1674   0.7396     C
C        0.308   0.8326   0.7604     C
O       0.3128   0.4693   0.9633     O
O       0.3128   0.5307   0.5367     O
C       0.3326   0.2604    0.808     C
C       0.3326   0.7396    0.692     C
O       0.3329    0.414   0.0539     O
O       0.3329    0.586   0.4461     O
O        0.336   0.0829   0.1961     O
O        0.336   0.9171   0.3039     O
C        0.346   0.2198   0.7524     C
C        0.346   0.7802   0.7476     C
C       0.3461   0.4598   0.0138     C
C       0.3461   0.5402   0.4862     C
In       0.375      0.0     0.25    In
C       0.4039   0.2362   0.7098     C
C       0.4039   0.7638   0.7902     C
C        0.404   0.4976   0.4698     C
C        0.404   0.5024   0.0302     C
O        0.414   0.0539   0.3329     O
O        0.414   0.9461   0.1671     O
O       0.4171   0.1961    0.664     O
O       0.4171   0.8039    0.836     O
C       0.4174    0.442   0.5104     C
C       0.4174    0.558   0.9896     C
O       0.4372   0.2867   0.7193     O
O       0.4372   0.7133   0.7807     O
C        0.442   0.4896   0.0826     C
C        0.442   0.5104   0.4174     C
O       0.4461   0.3329    0.586     O
O       0.4461   0.6671    0.914     O
C       0.4598   0.0138   0.3461     C
C       0.4598   0.9862   0.1539     C
O       0.4633   0.1872   0.5307     O
O       0.4633   0.8128   0.9693     O
O       0.4693   0.0367   0.1872     O
O       0.4693   0.9633   0.3128     O
C       0.4698    0.404   0.4976     C
C       0.4698    0.596   0.0024     C
C       0.4862   0.3461   0.5402     C
C       0.4862   0.6539   0.9598     C
C       0.4896   0.0826    0.442     C
C       0.4896   0.9174    0.058     C
C       0.4976   0.4698    0.404     C
C       0.4976   0.5302    0.096     C
In         0.5     0.25    0.625    In
In         0.5     0.75    0.875    In
C       0.5024   0.0302    0.404     C
C       0.5024   0.9698    0.096     C
C       0.5104   0.4174    0.442     C
C       0.5104   0.5826    0.058     C
C       0.5138   0.1539   0.5402     C
C       0.5138   0.8461   0.9598     C
C       0.5302    0.096   0.4976     C
C       0.5302    0.904   0.0024     C
O       0.5307   0.4633   0.1872     O
O       0.5307   0.5367   0.3128     O
O       0.5367   0.3128   0.5307     O
O       0.5367   0.6872   0.9693     O
C       0.5402   0.4862   0.3461     C
C       0.5402   0.5138   0.1539     C
O       0.5539   0.1671    0.586     O
O       0.5539   0.8329    0.914     O
C        0.558   0.0104   0.0826     C
C        0.558   0.9896   0.4174     C
O       0.5628   0.2133   0.7193     O
O       0.5628   0.7867   0.7807     O
C       0.5826    0.058   0.5104     C
C       0.5826    0.942   0.9896     C
O       0.5829   0.3039    0.664     O
O       0.5829   0.6961    0.836     O
O        0.586   0.4461   0.3329     O
O        0.586   0.5539   0.1671     O
C        0.596   0.0024   0.4698     C
C        0.596   0.9976   0.0302     C
C       0.5961   0.2638   0.7098     C
C       0.5961   0.7362   0.7902     C
In       0.625      0.5     0.25    In
C       0.6539   0.0402   0.0138     C
C       0.6539   0.9598   0.4862     C
C        0.654   0.2802   0.7524     C
C        0.654   0.7198   0.7476     C
O        0.664   0.4171   0.1961     O
O        0.664   0.5829   0.3039     O
O       0.6671    0.086   0.0539     O
O       0.6671    0.914   0.4461     O
C       0.6674   0.2396    0.808     C
C       0.6674   0.7604    0.692     C
O       0.6872   0.0307   0.9633     O
O       0.6872   0.9693   0.5367     O
C        0.692   0.3326   0.7396     C
C        0.692   0.6674   0.7604     C
O       0.6961    0.164   0.9171     O
O       0.6961    0.836   0.5829     O
C       0.7098   0.4039   0.2362     C
C       0.7098   0.5961   0.2638     C
O       0.7133   0.2193   0.0628     O
O       0.7133   0.7807   0.4372     O
O       0.7193   0.4372   0.2867     O
O       0.7193   0.5628   0.2133     O
C       0.7198   0.2524    0.846     C
C       0.7198   0.7476    0.654     C
C       0.7362   0.2098   0.9039     C
C       0.7362   0.7902   0.5961     C
C       0.7396    0.308   0.1674     C
C       0.7396    0.692   0.3326     C
C       0.7476    0.346   0.7802     C
C       0.7476    0.654   0.7198     C
In        0.75    0.125      0.0    In
In        0.75    0.875      0.5    In
C       0.7524    0.346   0.2198     C
C       0.7524    0.654   0.2802     C
C       0.7604    0.308   0.8326     C
C       0.7604    0.692   0.6674     C
C       0.7638   0.2098   0.0961     C
C       0.7638   0.7902   0.4039     C
C       0.7802   0.2524    0.154     C
C       0.7802   0.7476    0.346     C
O       0.7807   0.4372   0.7133     O
O       0.7807   0.5628   0.7867     O
O       0.7867   0.2193   0.9372     O
O       0.7867   0.7807   0.5628     O
C       0.7902   0.4039   0.7638     C
C       0.7902   0.5961   0.7362     C
O       0.8039    0.164   0.0829     O
O       0.8039    0.836   0.4171     O
C        0.808   0.3326   0.2604     C
C        0.808   0.6674   0.2396     C
O       0.8128   0.0307   0.0367     O
O       0.8128   0.9693   0.4633     O
C       0.8326   0.2396    0.192     C
C       0.8326   0.7604    0.308     C
O       0.8329    0.086   0.9461     O
O       0.8329    0.914   0.5539     O
O        0.836   0.4171   0.8039     O
O        0.836   0.5829   0.6961     O
C        0.846   0.2802   0.2476     C
C        0.846   0.7198   0.2524     C
C       0.8461   0.0402   0.9862     C
C       0.8461   0.9598   0.5138     C
In       0.875      0.5     0.75    In
C       0.9039   0.2638   0.2902     C
C       0.9039   0.7362   0.2098     C
C        0.904   0.0024   0.5302     C
C        0.904   0.9976   0.9698     C
O        0.914   0.4461   0.6671     O
O        0.914   0.5539   0.8329     O
O       0.9171   0.3039    0.336     O
O       0.9171   0.6961    0.164     O
C       0.9174    0.058   0.4896     C
C       0.9174    0.942   0.0104     C
O       0.9372   0.2133   0.2807     O
O       0.9372   0.7867   0.2193     O
C        0.942   0.0104   0.9174     C
C        0.942   0.9896   0.5826     C
O       0.9461   0.1671    0.414     O
O       0.9461   0.8329    0.086     O
C       0.9598   0.4862   0.6539     C
C       0.9598   0.5138   0.8461     C
O       0.9633   0.3128   0.4693     O
O       0.9633   0.6872   0.0307     O
O       0.9693   0.4633   0.8128     O
O       0.9693   0.5367   0.6872     O
C       0.9698    0.096   0.5024     C
C       0.9698    0.904   0.9976     C
C       0.9862   0.1539   0.4598     C
C       0.9862   0.8461   0.0402     C
C       0.9896   0.4174    0.558     C
C       0.9896   0.5826    0.942     C
C       0.9976   0.0302    0.596     C
C       0.9976   0.9698    0.904     C
