data_I
_chemical_name_common  '/home/zhangsd/repos/MofS-CGCNN/ML/data/SSD/clean_cifs/CUKVUA_clean'
_cell_length_a  9.35210
_cell_length_b 11.34710
_cell_length_c 18.80780
_cell_angle_alpha 79.46000
_cell_angle_beta  79.46200
_cell_angle_gamma 66.51200
_space_group_name_H-M_alt      'P 1'


loop_
_space_group_symop_operation_xyz
  'x, y, z' 

loop_
_atom_site_label
_atom_site_fract_x
_atom_site_fract_y
_atom_site_fract_z
_atom_site_type_symbol
Co         0.0      0.0      0.0    Co
N       0.0009   0.1862  0.00235     N
C       0.0012   0.4344   0.0007     C
C       0.0026   0.5425   0.3464     C
H       0.0076    0.624   0.1746     H
O       0.0135    0.004  0.17683     O
H       0.0344   0.9842   0.6161     H
C       0.0354    0.575   0.2189     C
C       0.0405   0.0371    0.399     C
H        0.048    0.437    0.608     H
C       0.0483   0.3804   0.7173     C
C       0.0521   0.0231   0.4718     C
H       0.0995   0.8554   0.2863     H
H       0.1283   0.0896   0.2987     H
C       0.1295   0.7097   0.9966     C
C       0.1301   0.4271   0.3429     C
C        0.131   0.9212    0.145     C
C       0.1325   0.2056   0.0016     C
H       0.1336   0.6103    0.511     H
C        0.135   0.5873   0.9969     C
C       0.1363   0.3256   0.0004     C
C       0.1392   0.0825   0.3476     C
H       0.1516   0.2071   0.6223     H
O        0.155   0.9131  0.07906     O
C       0.1611   0.4572     0.22     C
H       0.1632    0.378   0.3864     H
C        0.166   0.0558   0.4887     C
H       0.1804   0.0484   0.5372     H
C       0.1814    0.254   0.7153     C
C       0.1951   0.7976   0.2669     C
H        0.206   0.6348   0.6166     H
N       0.2087   0.3817  0.28058     N
C       0.2109   0.6434   0.5087     C
C       0.2127   0.1778   0.6605     C
H       0.2153   0.4295   0.1756     H
O       0.2163   0.6742  0.38371     O
H       0.2236     0.72   0.9956     H
H       0.2267   0.1341   0.0018     H
H       0.2314    0.518   0.9956     H
H        0.232   0.3332   0.9995     H
C       0.2441   0.8161   0.1928     C
N       0.2466    0.116  0.36398     N
C       0.2551   0.6577   0.5717     C
C       0.2596   0.0994   0.4346     C
H       0.2686   0.2502   0.8064     H
C       0.2827   0.2037   0.7681     C
C        0.283   0.6788   0.4424     C
C        0.284   0.6965   0.3118     C
O       0.3214   0.7134   0.6961     O
C       0.3341   0.0589   0.6624     C
H       0.3376   0.1188   0.4484     H
H       0.3503   0.0095   0.6251     H
C       0.3716   0.7057   0.5692     C
C       0.3907   0.7299   0.1652     C
Co     0.39464  0.18953  0.28192    Co
C       0.4009   0.7234   0.4375     C
C       0.4037   0.0858   0.7641     C
C       0.4059   0.7314   0.6388     C
C       0.4233   0.6111   0.2863     C
H       0.4248   0.4306   0.8058     H
N       0.4296   0.0098  0.71345     N
C        0.444   0.7358    0.502     C
H       0.4508   0.7448   0.3924     H
C        0.461   0.7435   0.0863     C
H       0.4723   0.0571   0.7993     H
H       0.4755   0.2346   0.5005     H
C       0.4783   0.6277   0.2122     C
H       0.4822   0.5419   0.3174     H
O       0.4835   0.6537  0.05086     O
O       0.4837    0.229  0.36537     O
O       0.4999   0.1627   0.9353     O
O       0.5001   0.8373   0.0647     O
O       0.5163    0.771  0.63463     O
O       0.5165   0.3463  0.94914     O
H       0.5178   0.4581   0.6826     H
C       0.5217   0.3723   0.7878     C
H       0.5245   0.7654   0.4995     H
H       0.5277   0.9429   0.2007     H
C        0.539   0.2565   0.9137     C
H       0.5492   0.2552   0.6076     H
C        0.556   0.2642    0.498     C
N       0.5704   0.9902  0.28655     N
H       0.5752   0.5694   0.1942     H
C       0.5767   0.3889   0.7137     C
C       0.5941   0.2686   0.3612     C
C       0.5963   0.9142   0.2359     C
C       0.5991   0.2766   0.5625     C
Co     0.60536  0.81047  0.71808    Co
C       0.6093   0.2701   0.8348     C
C       0.6284   0.2943   0.4308     C
H       0.6497   0.9905   0.3749     H
H       0.6624   0.8812   0.5516     H
C       0.6659   0.9411   0.3376     C
O       0.6786   0.2866   0.3039     O
C        0.716   0.3035   0.6882     C
C        0.717   0.3212   0.5576     C
C       0.7173   0.7963   0.2319     C
H       0.7314   0.7498   0.1936     H
C       0.7404   0.9006   0.5654     C
C       0.7449   0.3423   0.4283     C
N       0.7534    0.884  0.63602     N
C       0.7559   0.1839   0.8072     C
H        0.768   0.6668   0.0005     H
H       0.7686    0.482   0.0044     H
H       0.7733   0.8659   0.9982     H
H       0.7764     0.28   0.0044     H
O       0.7837   0.3258  0.61629     O
H       0.7847   0.5705   0.8244     H
C       0.7873   0.8222   0.3395     C
C       0.7891   0.3566   0.4913     C
N       0.7913   0.6183  0.71942     N
H        0.794   0.3652   0.3834     H
C       0.8049   0.2024   0.7331     C
C       0.8186    0.746   0.2847     C
H       0.8196   0.9516   0.4628     H
C        0.834   0.9442   0.5113     C
H       0.8368    0.622   0.6136     H
C       0.8389   0.5428     0.78     C
O        0.845   0.0869  0.92094     O
H       0.8484   0.7929   0.3777     H
C       0.8608   0.9175   0.6524     C
C       0.8637   0.6744   0.9996     C
C        0.865   0.4127   0.0031     C
H       0.8664   0.3897    0.489     H
C       0.8675   0.7944   0.9984     C
C        0.869   0.0788    0.855     C
C       0.8699   0.5729   0.6571     C
C       0.8705   0.2903   0.0034     C
H       0.8717   0.9104   0.7013     H
H       0.9005   0.1446   0.7137     H
C       0.9479   0.9769   0.5282     C
C       0.9517   0.6196   0.2827     C
H        0.952    0.563    0.392     H
C       0.9595   0.9629    0.601     C
C       0.9646    0.425   0.7811     C
H       0.9656   0.0158   0.3839     H
O       0.9865    0.996  0.82317     O
H       0.9924    0.376   0.8254     H
C       0.9974   0.4575   0.6536     C
C       0.9988   0.5656   0.9993     C
N       0.9991   0.8138  0.99765     N
