data_I
_chemical_name_common  '/home/zhangsd/repos/MofS-CGCNN/ML/data/SSD/clean_cifs/DADLIG_clean'
_cell_length_a 13.02030
_cell_length_b 19.77600
_cell_length_c 20.82740
_cell_angle_alpha 61.93200
_cell_angle_beta  73.26800
_cell_angle_gamma 80.16200
_space_group_name_H-M_alt      'P 1'


loop_
_space_group_symop_operation_xyz
  'x, y, z' 

loop_
_atom_site_label
_atom_site_fract_x
_atom_site_fract_y
_atom_site_fract_z
_atom_site_type_symbol
Mn         0.0      0.0      0.0    Mn
C       0.0028   0.8814   0.1663     C
H       0.0082   0.1889   0.2796     H
C       0.0116    0.912   0.7984     C
C       0.0153   0.1747   0.2418     C
C       0.0172   0.5954   0.3942     C
O         0.02   0.9448  0.11012     O
C       0.0234   0.8046   0.2972     C
C       0.0244   0.8946   0.7401     C
H       0.0275   0.2278   0.6952     H
C        0.028   0.2595   0.3945     C
C       0.0346   0.5336   0.2395     C
C       0.0347   0.3958   0.2963     C
H       0.0355   0.1489   0.4716     H
C       0.0356   0.5931   0.5056     C
H       0.0386   0.9574   0.7886     H
C       0.0397    0.135   0.1289     C
O       0.0425   0.1727  0.82752     O
H       0.0451   0.7324   0.5882     H
C        0.046   0.8679   0.2309     C
H       0.0464   0.5878   0.3516     H
H       0.0484   0.1199   0.0915     H
H       0.0555   0.7418   0.3987     H
O       0.0581   0.3242  0.84272     O
C       0.0623    0.459   0.7777     C
C       0.0639   0.5962   0.7192     C
C       0.0654   0.2234   0.1688     C
H       0.0672   0.8868   0.6108     H
H       0.0684   0.5775   0.2268     H
C       0.0685   0.3805   0.4817     C
O         0.07  0.80542  0.03162     O
C       0.0729   0.7862   0.3541     C
C       0.0763   0.1876   0.4302     C
H       0.0769   0.5835    0.539     H
C       0.0778   0.2037   0.1112     C
C       0.0793   0.5808   0.4433     C
C       0.0801   0.9467   0.6622     C
C       0.0832   0.4627   0.2752     C
Mn     0.08455  0.20235  0.90042    Mn
C       0.0859   0.3191   0.3342     C
C       0.0888   0.3784   0.5918     C
H       0.0908   0.2695   0.1585     H
C       0.0928   0.9319   0.6026     C
H       0.0969   0.3729   0.4391     H
H       0.0994     0.64   0.7047     H
C       0.1107   0.3811   0.8204     C
C       0.1112   0.9197   0.2249     C
C       0.1117    0.525   0.7557     C
H       0.1162    0.027   0.6837     H
O       0.1212  0.92579  0.96478     O
C       0.1227   0.0141   0.6452     C
C       0.1227   0.8586   0.9744     C
H       0.1228   0.9663   0.1821     H
O       0.1265  0.07816  0.97567     O
H       0.1306   0.3699   0.6246     H
C       0.1337   0.3646   0.5299     C
C       0.1351    0.254    0.032     C
C       0.1428   0.9819   0.5301     C
H       0.1429   0.7299   0.9626     H
C       0.1468   0.8326   0.3454     C
H       0.1478     0.97    0.491     H
H       0.1493   0.4598   0.2853     H
O       0.1548  0.22867  0.98361     O
C       0.1591   0.9027   0.2819     C
O       0.1655   0.3177  0.01613     O
C        0.175   0.0633   0.5731     C
H       0.1782   0.5219   0.7654     H
C       0.1801   0.7678   0.9181     C
C       0.1838    0.173    0.405     C
C       0.1845   0.0477   0.5149     C
H       0.1847   0.9013   0.4193     H
C       0.1888   0.8383   0.9136     C
C       0.1946   0.3039   0.3104     C
C       0.1965   0.5556   0.4283     C
H       0.1996   0.7354   0.7401     H
H       0.2007    0.939   0.2778     H
O       0.2023  0.37985    0.831     O
H       0.2037   0.1075   0.5647     H
C       0.2119   0.0527   0.9974     C
C       0.2149   0.8095   0.3994     C
H       0.2174    0.705   0.8621     H
C       0.2254   0.7528    0.858     C
C       0.2261   0.8559   0.4291     C
H       0.2295   0.1099   0.3106     H
O       0.2302   0.5486   0.3656     O
H       0.2341   0.1223   0.0333     H
N       0.2347   0.0997   0.4399     N
H       0.2363   0.3428   0.2702     H
C       0.2425    0.232   0.3452     C
O       0.2427    0.212   0.8385     O
C       0.2464   0.3338   0.5154     C
C       0.2488   0.8926   0.8486     C
H       0.2532   0.9631   0.9789     H
O       0.2537   0.5448   0.4689     O
H       0.2561    0.265   0.6217     H
H        0.258   0.9398   0.8454     H
H       0.2595    0.714   0.6375     H
N       0.2608   0.0841   0.0239     N
H       0.2658    0.709   0.3995     H
C        0.266   0.7531   0.7082     C
N       0.2676     0.99   0.9975     N
H       0.2679   0.1326   0.7708     H
C       0.2748   0.7422   0.4174     C
H       0.2763   0.3908   0.4033     H
C       0.2833   0.8072   0.7909     C
C       0.2869    0.078   0.3277     C
Mn     0.29339  0.29806   0.9038    Mn
C       0.2947   0.2814   0.5721     C
C       0.2953   0.8768    0.788     C
H       0.2957   0.5424   0.3562     H
C       0.2974   0.8364   0.4732     C
C       0.3019     0.74    0.647     C
H       0.3026   0.8689   0.4929     H
C       0.3059   0.0671   0.3938     C
C       0.3069   0.3565   0.4427     C
H       0.3154   0.2236   0.3278     H
C        0.325   0.7919   0.7247     C
H       0.3355   0.9138   0.7445     H
H       0.3396   0.9303   0.0825     H
H       0.3402   0.0503   0.2412     H
C        0.341    0.121    0.767     C
C       0.3419   0.2023   0.8294     C
C       0.3491   0.7205   0.4615     C
H       0.3532   0.0564   0.7141     H
C       0.3534   0.0415   0.2861     C
C       0.3552   0.9726   0.0326     C
C       0.3616   0.7698   0.4893     C
C       0.3621   0.0475   0.0352     C
H       0.3716   0.0381   0.0833     H
H        0.375   0.9307    0.245     H
H       0.3891   0.6745   0.4721     H
C       0.3923   0.0744   0.7335     C
C       0.3928   0.0213   0.4167     C
O       0.3942   0.2355   0.8464     O
C       0.3956   0.1503   0.7946     C
C       0.3991   0.2527   0.5572     C
C       0.3994   0.7645   0.5992     C
H       0.4085   0.0148   0.4601     H
C       0.4116   0.3296   0.4271     C
H       0.4204   0.0776   0.9957     H
H       0.4211   0.9604    0.003     H
C       0.4239   0.8167   0.6762     C
H        0.429   0.2171   0.5965     H
N       0.4359   0.7518   0.5341     N
C       0.4387   0.9925   0.3107     C
C       0.4474   0.9173   0.2431     C
H       0.4509   0.3473   0.3776     H
C       0.4577   0.9846   0.3756     C
C       0.4586   0.2768   0.4842     C
H       0.4587   0.8483    0.193     H
C       0.4611   0.8037   0.6139     C
H        0.466   0.8426    0.686     H
H       0.4726   0.1787   0.4182     H
H       0.4841   0.0463   0.6075     H
C        0.498   0.8681   0.2107     C
C       0.4994    0.054   0.7281     C
C       0.5006    0.946   0.2719     C
C        0.502   0.1319   0.7893     C
H       0.5159   0.9537   0.3925     H
H       0.5274   0.8213   0.5818     H
H        0.534   0.1574    0.314     H
C       0.5389   0.1963   0.3861     C
H       0.5413   0.1517    0.807     H
C       0.5414   0.7232   0.5158     C
C       0.5423   0.0154   0.6244     C
H       0.5491   0.6527   0.6224     H
C       0.5526   0.0827   0.7569     C
C       0.5613   0.0075   0.6893     C
N       0.5641   0.2482   0.4659     N
H        0.571   0.7829   0.4035     H
C       0.5761   0.1833   0.3238     C
H       0.5789   0.0396    0.997     H
H       0.5796   0.9224   0.0043     H
C       0.5884   0.6704   0.5729     C
H       0.5915   0.9852   0.5399     H
C       0.6006   0.2355   0.4008     C
C       0.6009   0.7473   0.4428     C
C       0.6044   0.8497   0.2054     C
O       0.6058   0.7645   0.1536     O
C       0.6072   0.9787   0.5833     C
C       0.6077   0.9256   0.2665     C
H       0.6109   0.3255   0.5279     H
H        0.625   0.0693    0.755     H
H       0.6284   0.9619   0.9167     H
C       0.6379   0.9525   0.9648     C
C       0.6384   0.2302   0.5107     C
C       0.6448   0.0274   0.9674     C
C       0.6466   0.9585   0.7139     C
H       0.6468   0.9436   0.2859     H
C       0.6509   0.2795   0.5385     C
C       0.6581   0.7977   0.1706     C
C        0.659    0.879    0.233     C
H       0.6598   0.9497   0.7588     H
H       0.6604   0.0697   0.9175     H
H       0.6645   0.0862   0.2555     H
C        0.675   0.2081   0.2753     C
H       0.6846   0.7764   0.6722     H
C       0.6931   0.6435   0.5573     C
C       0.6941   0.9329   0.6062     C
H       0.6974   0.1311   0.5071     H
C       0.6981     0.26    0.353     C
C       0.7026   0.1636   0.5268     C
H       0.7043   0.4576   0.6438     H
C       0.7047   0.1232    0.212     C
C       0.7053   0.7186   0.4279     C
Mn     0.70661  0.70194   0.0962    Mn
C       0.7131    0.922   0.6723     C
C       0.7167   0.1928   0.2091     C
H       0.7237   0.6092   0.5967     H
C       0.7252   0.2578   0.5826     C
H       0.7321   0.8674   0.2292     H
N       0.7324     0.01   0.0025     N
C        0.734   0.2469   0.2918     C
H       0.7342    0.291   0.6005     H
N       0.7392   0.9159   0.9761     N
H       0.7405    0.286   0.3625     H
H        0.742   0.0602   0.1546     H
H       0.7439    0.735   0.3783     H
O       0.7463   0.4552   0.5311     O
H       0.7468   0.0369   0.0211     H
C       0.7512   0.1074   0.1514     C
C       0.7536   0.6662   0.4846     C
O       0.7573    0.788   0.1615     O
C       0.7575    0.768   0.6548     C
H       0.7637   0.6572   0.7298     H
N       0.7653   0.9003   0.5601     N
H       0.7659   0.8777   0.9667     H
O       0.7698   0.4514   0.6344     O
H       0.7705   0.8901   0.6894     H
C       0.7739   0.1441   0.5709     C
C       0.7746   0.2472    0.142     C
H       0.7826    0.295   0.1379     H
C       0.7851   0.1905   0.6006     C
C       0.7881   0.9473   0.0026     C
H       0.7963   0.8925   0.4353     H
O       0.7977  0.62015    0.169     O
H       0.7993    0.061   0.7222     H
H       0.8004   0.2646   0.2599     H
C       0.8035   0.4444   0.5717     C
C       0.8054   0.6961   0.6896     C
C       0.8112   0.1617   0.0864     C
H       0.8153   0.0987   0.5807     H
C       0.8155   0.9523   0.4851     C
C       0.8162    0.827    0.595     C
C       0.8199   0.2322   0.0819     C
H       0.8218   0.4781   0.2346     H
C        0.825   0.9367   0.4269     C
O       0.8345   0.6823  0.98387     O
C       0.8409   0.0973   0.7181     C
O       0.8452  0.77133  0.01639     O
H       0.8507   0.5402   0.7147     H
H       0.8522     0.03    0.509     H
C       0.8532   0.1674   0.6546     C
H       0.8571   0.2701   0.0374     H
C       0.8572   0.0181   0.4699     C
C       0.8649    0.746    0.968     C
C       0.8663   0.6354   0.4701     C
H       0.8694   0.6301   0.3754     H
O       0.8735  0.92184  0.02433     O
H       0.8772   0.0337   0.8179     H
C       0.8773   0.1414   0.0256     C
C       0.8773   0.9859   0.3548     C
O       0.8788  0.07421  0.03522     O
H       0.8838    0.973   0.3163     H
C       0.8883    0.475   0.2443     C
C       0.8888   0.0803   0.7751     C
C       0.8893   0.6189   0.1796     C
H       0.9006     0.36   0.2953     H
H       0.9031   0.6271   0.5609     H
C       0.9072   0.0681   0.3974     C
H       0.9092   0.7305   0.8415     H
C       0.9112   0.6216   0.4082     C
C       0.9141   0.6809   0.6658     C
Mn     0.91545  0.79765  0.09958    Mn
C       0.9168   0.5373   0.7248     C
C       0.9199   0.0533   0.3378     C
C       0.9207   0.4192   0.5567     C
C       0.9222   0.7963   0.8888     C
H       0.9231   0.4165    0.461     H
C       0.9237   0.8124   0.5698     C
C       0.9271   0.2138   0.6459     C
O         0.93  0.19458  0.96838     O
C       0.9315   0.6195   0.5183     C
H       0.9316   0.4225   0.7732     H
H       0.9328   0.1132   0.3892     H
C       0.9346   0.7766   0.8312     C
C       0.9361   0.4038   0.2808     C
C       0.9377    0.541   0.2223     C
O       0.9419   0.6758  0.15728     O
H       0.9445   0.2582   0.6013     H
H       0.9516   0.8801   0.9085     H
H       0.9536   0.4122   0.6484     H
C        0.954   0.1321   0.7691     C
H       0.9549   0.2676   0.4118     H
O       0.9575   0.8273  0.17248     O
C       0.9603    0.865   0.8711     C
H       0.9614   0.0426   0.2114     H
C       0.9644   0.4069   0.4944     C
H       0.9645   0.8511   0.5284     H
C       0.9653   0.6042   0.7037     C
C       0.9654   0.4664   0.7605     C
C        0.972   0.7405   0.6055     C
H       0.9725   0.7722   0.3048     H
C       0.9756   0.1054   0.2599     C
C       0.9766   0.1954   0.7028     C
O         0.98   0.0552  0.88988     O
C       0.9828   0.4046   0.6058     C
C       0.9847   0.8253   0.7582     C
C       0.9884    0.088   0.2016     C
H       0.9918   0.8111   0.7204     H
C       0.9972   0.1186   0.8337     C
