data_I
_chemical_name_common  '/home/zhangsd/repos/MofS-CGCNN/ML/data/SSD/clean_cifs/DADNII_clean'
_cell_length_a 15.52440
_cell_length_b 16.39870
_cell_length_c 12.64330
_cell_angle_alpha 90.00000
_cell_angle_beta  93.07500
_cell_angle_gamma 90.00000
_space_group_name_H-M_alt      'P 1'


loop_
_space_group_symop_operation_xyz
  'x, y, z' 

loop_
_atom_site_label
_atom_site_fract_x
_atom_site_fract_y
_atom_site_fract_z
_atom_site_type_symbol
Fe         0.0  0.04959     0.75    Fe
Fe         0.0  0.95041     0.25    Fe
O       0.0242   0.2338   0.6085     O
O       0.0242   0.7662   0.1085     O
C       0.0368    0.022   0.9969     C
C       0.0368    0.978   0.4969     C
O       0.0545   0.0622   0.9011     O
O       0.0545   0.9378   0.4011     O
C       0.0648   0.0734   0.0952     C
C       0.0648   0.9266   0.5952     C
O       0.0749   0.0412   0.1842     O
O       0.0749   0.9588   0.6842     O
H       0.0806   0.0211   0.4997     H
H       0.0806   0.9789   0.9997     H
O       0.0863   0.1432   0.0766     O
O       0.0863   0.8568   0.5766     O
O       0.1031   0.1414   0.7279     O
O       0.1031   0.8586   0.2279     O
S      0.10725   0.2192  0.66703     S
S      0.10725   0.7808  0.16703     S
Eu     0.12197  0.18899  0.91147    Eu
Eu     0.12197  0.81101  0.41147    Eu
O        0.122   0.2824   0.7495     O
O        0.122   0.7176   0.2495     O
O       0.1267   0.3211   0.9888     O
O       0.1267   0.6789   0.4888     O
O       0.1315   0.3889   0.1526     O
O       0.1315   0.6111   0.6526     O
O       0.1767   0.2182   0.5962     O
O       0.1767   0.7818   0.0962     O
S      0.18365  0.34951   0.0757     S
S      0.18365  0.65049   0.5757     S
O       0.2278   0.2774   0.1228     O
O       0.2278   0.7226   0.6228     O
O       0.2452   0.0999   0.9592     O
O       0.2452   0.9001   0.4592     O
O       0.2548   0.4001   0.0408     O
O       0.2548   0.5999   0.5408     O
O       0.2722   0.2226   0.8772     O
O       0.2722   0.7774   0.3772     O
S      0.31635  0.15049   0.9243     S
S      0.31635  0.84951   0.4243     S
O       0.3233   0.2818   0.4038     O
O       0.3233   0.7182   0.9038     O
O       0.3685   0.1111   0.8474     O
O       0.3685   0.8889   0.3474     O
O       0.3733   0.1789   0.0112     O
O       0.3733   0.8211   0.5112     O
O        0.378   0.2176   0.2505     O
O        0.378   0.7824   0.7505     O
Eu     0.37803  0.31101  0.08853    Eu
Eu     0.37803  0.68899  0.58853    Eu
S      0.39275   0.2808  0.33297     S
S      0.39275   0.7192  0.83297     S
O       0.3969   0.3586   0.2721     O
O       0.3969   0.6414   0.7721     O
O       0.4137   0.3568   0.9234     O
O       0.4137   0.6432   0.4234     O
H       0.4194   0.4789   0.5003     H
H       0.4194   0.5211   0.0003     H
O       0.4251   0.4588   0.8158     O
O       0.4251   0.5412   0.3158     O
C       0.4352   0.4266   0.9048     C
C       0.4352   0.5734   0.4048     C
O       0.4455   0.4378   0.0989     O
O       0.4455   0.5622   0.5989     O
C       0.4632    0.478   0.0031     C
C       0.4632    0.522   0.5031     C
O       0.4758   0.2662   0.3915     O
O       0.4758   0.7338   0.8915     O
Fe         0.5  0.45041     0.25    Fe
Fe         0.5  0.54959     0.75    Fe
O       0.5242   0.2662   0.1085     O
O       0.5242   0.7338   0.6085     O
C       0.5368    0.478   0.4969     C
C       0.5368    0.522   0.9969     C
O       0.5545   0.4378   0.4011     O
O       0.5545   0.5622   0.9011     O
C       0.5648   0.4266   0.5952     C
C       0.5648   0.5734   0.0952     C
O       0.5749   0.4588   0.6842     O
O       0.5749   0.5412   0.1842     O
H       0.5806   0.4789   0.9997     H
H       0.5806   0.5211   0.4997     H
O       0.5863   0.3568   0.5766     O
O       0.5863   0.6432   0.0766     O
O       0.6031   0.3586   0.2279     O
O       0.6031   0.6414   0.7279     O
S      0.60725   0.2808  0.16703     S
S      0.60725   0.7192  0.66703     S
Eu     0.62197  0.31101  0.41147    Eu
Eu     0.62197  0.68899  0.91147    Eu
O        0.622   0.2176   0.2495     O
O        0.622   0.7824   0.7495     O
O       0.6267   0.1789   0.4888     O
O       0.6267   0.8211   0.9888     O
O       0.6315   0.1111   0.6526     O
O       0.6315   0.8889   0.1526     O
O       0.6767   0.2818   0.0962     O
O       0.6767   0.7182   0.5962     O
S      0.68365  0.15049   0.5757     S
S      0.68365  0.84951   0.0757     S
O       0.7278   0.2226   0.6228     O
O       0.7278   0.7774   0.1228     O
O       0.7452   0.4001   0.4592     O
O       0.7452   0.5999   0.9592     O
O       0.7548   0.0999   0.5408     O
O       0.7548   0.9001   0.0408     O
O       0.7722   0.2774   0.3772     O
O       0.7722   0.7226   0.8772     O
S      0.81635  0.34951   0.4243     S
S      0.81635  0.65049   0.9243     S
O       0.8233   0.2182   0.9038     O
O       0.8233   0.7818   0.4038     O
O       0.8685   0.3889   0.3474     O
O       0.8685   0.6111   0.8474     O
O       0.8733   0.3211   0.5112     O
O       0.8733   0.6789   0.0112     O
O        0.878   0.2824   0.7505     O
O        0.878   0.7176   0.2505     O
Eu     0.87803  0.18899  0.58853    Eu
Eu     0.87803  0.81101  0.08853    Eu
S      0.89275   0.2192  0.83297     S
S      0.89275   0.7808  0.33297     S
O       0.8969   0.1414   0.7721     O
O       0.8969   0.8586   0.2721     O
O       0.9137   0.1432   0.4234     O
O       0.9137   0.8568   0.9234     O
H       0.9194   0.0211   0.0003     H
H       0.9194   0.9789   0.5003     H
O       0.9251   0.0412   0.3158     O
O       0.9251   0.9588   0.8158     O
C       0.9352   0.0734   0.4048     C
C       0.9352   0.9266   0.9048     C
O       0.9455   0.0622   0.5989     O
O       0.9455   0.9378   0.0989     O
C       0.9632    0.022   0.5031     C
C       0.9632    0.978   0.0031     C
O       0.9758   0.2338   0.8915     O
O       0.9758   0.7662   0.3915     O
