data_I
_chemical_name_common  '/home/zhangsd/repos/MofS-CGCNN/ML/data/SSD/clean_cifs/DALSAN_clean'
_cell_length_a  8.94500
_cell_length_b 14.93600
_cell_length_c 12.40800
_cell_angle_alpha 90.00000
_cell_angle_beta  108.53100
_cell_angle_gamma 90.00000
_space_group_name_H-M_alt      'P 1'


loop_
_space_group_symop_operation_xyz
  'x, y, z' 

loop_
_atom_site_label
_atom_site_fract_x
_atom_site_fract_y
_atom_site_fract_z
_atom_site_type_symbol
O       0.0515   0.1418   0.9325     O
O       0.0515   0.8582   0.4325     O
Cl      0.0809   0.3125  0.79043    Cl
Cl      0.0809   0.6875  0.29043    Cl
Cl      0.0852  0.05055  0.30424    Cl
Cl      0.0852  0.94945  0.80424    Cl
C       0.0876   0.0814   0.0079     C
C       0.0876   0.9186   0.5079     C
O       0.1139   0.1391   0.5452     O
O       0.1139   0.8609   0.0452     O
Fe     0.12132  0.04953  0.67924    Fe
Fe     0.12132  0.95047  0.17924    Fe
Fe       0.235  0.20554  0.90427    Fe
Fe       0.235  0.79446  0.40427    Fe
O       0.2482   0.2849   0.0487     O
O       0.2482   0.7151   0.5487     O
O       0.2588   0.1339   0.7811     O
O       0.2588   0.8661   0.2811     O
C       0.2663   0.0652   0.0624     C
C       0.2663   0.9348   0.5624     C
O       0.3056   0.0077   0.1415     O
O       0.3056   0.9923   0.6415     O
H       0.3143   0.1637   0.7494     H
H       0.3143   0.8363   0.2494     H
O       0.3579   0.1103   0.0249     O
O       0.3579   0.8897   0.5249     O
C       0.3702   0.3303   0.0785     C
C       0.3702   0.6697   0.5785     C
O       0.4091   0.3882   0.1577     O
O       0.4091   0.6118   0.6577     O
O       0.4507   0.2626   0.9307     O
O       0.4507   0.7374   0.4307     O
C        0.489   0.3171   0.0129     C
C        0.489   0.6829   0.5129     C
O       0.4969   0.4642   0.5433     O
O       0.4969   0.5358   0.0433     O
O       0.5515   0.3582   0.4325     O
O       0.5515   0.6418   0.9325     O
Cl      0.5809   0.1875  0.29043    Cl
Cl      0.5809   0.8125  0.79043    Cl
Cl      0.5852  0.44945  0.80424    Cl
Cl      0.5852  0.55055  0.30424    Cl
C       0.5876   0.4186   0.5079     C
C       0.5876   0.5814   0.0079     C
O       0.6139   0.3609   0.0452     O
O       0.6139   0.6391   0.5452     O
Fe     0.62132  0.45047  0.17924    Fe
Fe     0.62132  0.54953  0.67924    Fe
Fe       0.735  0.29446  0.40427    Fe
Fe       0.735  0.70554  0.90427    Fe
O       0.7482   0.2151   0.5487     O
O       0.7482   0.7849   0.0487     O
O       0.7588   0.3661   0.2811     O
O       0.7588   0.6339   0.7811     O
C       0.7663   0.4348   0.5624     C
C       0.7663   0.5652   0.0624     C
O       0.8056   0.4923   0.6415     O
O       0.8056   0.5077   0.1415     O
H       0.8143   0.3363   0.2494     H
H       0.8143   0.6637   0.7494     H
O       0.8579   0.3897   0.5249     O
O       0.8579   0.6103   0.0249     O
C       0.8702   0.1697   0.5785     C
C       0.8702   0.8303   0.0785     C
O       0.9091   0.1118   0.6577     O
O       0.9091   0.8882   0.1577     O
O       0.9507   0.2374   0.4307     O
O       0.9507   0.7626   0.9307     O
C        0.989   0.1829   0.5129     C
C        0.989   0.8171   0.0129     C
O       0.9969   0.0358   0.0433     O
O       0.9969   0.9642   0.5433     O
