data_I
_chemical_name_common  '/home/zhangsd/repos/MofS-CGCNN/ML/data/SSD/clean_cifs/DALSER_clean'
_cell_length_a 14.91400
_cell_length_b 23.50700
_cell_length_c  9.26100
_cell_angle_alpha 90.00000
_cell_angle_beta  90.00000
_cell_angle_gamma 90.00000
_space_group_name_H-M_alt      'P 1'


loop_
_space_group_symop_operation_xyz
  'x, y, z' 

loop_
_atom_site_label
_atom_site_fract_x
_atom_site_fract_y
_atom_site_fract_z
_atom_site_type_symbol
O          0.0      0.0   0.9703     O
O          0.0      0.5   0.4703     O
O       0.0169  0.12024   0.9956     O
O       0.0169  0.62024   0.4956     O
O        0.017  0.43018   0.7459     O
O        0.017  0.93018   0.2459     O
C       0.0427  0.10775   0.2471     C
C       0.0427  0.60775   0.7471     C
C       0.0601  0.13782   0.1028     C
C       0.0601  0.63782   0.6028     C
Cl     0.06863   0.2542   0.3946    Cl
Cl     0.06863   0.7542   0.8946    Cl
Fe     0.07694  0.44385  0.55071    Fe
Fe     0.07694  0.94385  0.05071    Fe
O       0.0874  0.12404   0.3529     O
O       0.0874  0.62404   0.8529     O
O       0.1168   0.1772   0.1033     O
O       0.1168   0.6772   0.6033     O
O       0.1332   0.4272   0.3533     O
O       0.1332   0.9272   0.8533     O
O       0.1626  0.37404   0.6029     O
O       0.1626  0.87404   0.1029     O
Fe     0.17306  0.19385  0.30071    Fe
Fe     0.17306  0.69385  0.80071    Fe
Cl     0.18137   0.0042   0.1446    Cl
Cl     0.18137   0.5042   0.6446    Cl
C       0.1899  0.38782   0.3528     C
C       0.1899  0.88782   0.8528     C
C       0.2073  0.35775   0.4971     C
C       0.2073  0.85775   0.9971     C
O        0.233  0.18018   0.4959     O
O        0.233  0.68018   0.9959     O
O       0.2331  0.37024   0.2456     O
O       0.2331  0.87024   0.7456     O
O         0.25     0.25   0.2203     O
O         0.25     0.75   0.7203     O
O       0.2669  0.12976   0.2456     O
O       0.2669  0.62976   0.7456     O
O        0.267  0.31982   0.4959     O
O        0.267  0.81982   0.9959     O
C       0.2927  0.14225   0.4971     C
C       0.2927  0.64225   0.9971     C
C       0.3101  0.11218   0.3528     C
C       0.3101  0.61218   0.8528     C
Cl     0.31863   0.4958   0.1446    Cl
Cl     0.31863   0.9958   0.6446    Cl
Fe     0.32694  0.30615  0.30071    Fe
Fe     0.32694  0.80615  0.80071    Fe
O       0.3374  0.12596   0.6029     O
O       0.3374  0.62596   0.1029     O
O       0.3668   0.0728   0.3533     O
O       0.3668   0.5728   0.8533     O
O       0.3832   0.3228   0.1033     O
O       0.3832   0.8228   0.6033     O
O       0.4126  0.37596   0.3529     O
O       0.4126  0.87596   0.8529     O
Fe     0.42306  0.05615  0.55071    Fe
Fe     0.42306  0.55615  0.05071    Fe
Cl     0.43137   0.2458   0.3946    Cl
Cl     0.43137   0.7458   0.8946    Cl
C       0.4399  0.36218   0.1028     C
C       0.4399  0.86218   0.6028     C
C       0.4573  0.39225   0.2471     C
C       0.4573  0.89225   0.7471     C
O        0.483  0.06982   0.7459     O
O        0.483  0.56982   0.2459     O
O       0.4831  0.37976   0.9956     O
O       0.4831  0.87976   0.4956     O
O          0.5      0.0   0.4703     O
O          0.5      0.5   0.9703     O
O       0.5169  0.12024   0.4956     O
O       0.5169  0.62024   0.9956     O
O        0.517  0.43018   0.2459     O
O        0.517  0.93018   0.7459     O
C       0.5427  0.10775   0.7471     C
C       0.5427  0.60775   0.2471     C
C       0.5601  0.13782   0.6028     C
C       0.5601  0.63782   0.1028     C
Cl     0.56863   0.2542   0.8946    Cl
Cl     0.56863   0.7542   0.3946    Cl
Fe     0.57694  0.44385  0.05071    Fe
Fe     0.57694  0.94385  0.55071    Fe
O       0.5874  0.12404   0.8529     O
O       0.5874  0.62404   0.3529     O
O       0.6168   0.1772   0.6033     O
O       0.6168   0.6772   0.1033     O
O       0.6332   0.4272   0.8533     O
O       0.6332   0.9272   0.3533     O
O       0.6626  0.37404   0.1029     O
O       0.6626  0.87404   0.6029     O
Fe     0.67306  0.19385  0.80071    Fe
Fe     0.67306  0.69385  0.30071    Fe
Cl     0.68137   0.0042   0.6446    Cl
Cl     0.68137   0.5042   0.1446    Cl
C       0.6899  0.38782   0.8528     C
C       0.6899  0.88782   0.3528     C
C       0.7073  0.35775   0.9971     C
C       0.7073  0.85775   0.4971     C
O        0.733  0.18018   0.9959     O
O        0.733  0.68018   0.4959     O
O       0.7331  0.37024   0.7456     O
O       0.7331  0.87024   0.2456     O
O         0.75     0.25   0.7203     O
O         0.75     0.75   0.2203     O
O       0.7669  0.12976   0.7456     O
O       0.7669  0.62976   0.2456     O
O        0.767  0.31982   0.9959     O
O        0.767  0.81982   0.4959     O
C       0.7927  0.14225   0.9971     C
C       0.7927  0.64225   0.4971     C
C       0.8101  0.11218   0.8528     C
C       0.8101  0.61218   0.3528     C
Cl     0.81863   0.4958   0.6446    Cl
Cl     0.81863   0.9958   0.1446    Cl
Fe     0.82694  0.30615  0.80071    Fe
Fe     0.82694  0.80615  0.30071    Fe
O       0.8374  0.12596   0.1029     O
O       0.8374  0.62596   0.6029     O
O       0.8668   0.0728   0.8533     O
O       0.8668   0.5728   0.3533     O
O       0.8832   0.3228   0.6033     O
O       0.8832   0.8228   0.1033     O
O       0.9126  0.37596   0.8529     O
O       0.9126  0.87596   0.3529     O
Fe     0.92306  0.05615  0.05071    Fe
Fe     0.92306  0.55615  0.55071    Fe
Cl     0.93137   0.2458   0.8946    Cl
Cl     0.93137   0.7458   0.3946    Cl
C       0.9399  0.36218   0.6028     C
C       0.9399  0.86218   0.1028     C
C       0.9573  0.39225   0.7471     C
C       0.9573  0.89225   0.2471     C
O        0.983  0.06982   0.2459     O
O        0.983  0.56982   0.7459     O
O       0.9831  0.37976   0.4956     O
O       0.9831  0.87976   0.9956     O
