data_I
_chemical_name_common  '/home/zhangsd/repos/MofS-CGCNN/ML/data/SSD/clean_cifs/DATHAJ_clean'
_cell_length_a 12.60960
_cell_length_b 13.00790
_cell_length_c 22.50140
_cell_angle_alpha 90.00000
_cell_angle_beta  90.00000
_cell_angle_gamma 90.00000
_space_group_name_H-M_alt      'P 1'


loop_
_space_group_symop_operation_xyz
  'x, y, z' 

loop_
_atom_site_label
_atom_site_fract_x
_atom_site_fract_y
_atom_site_fract_z
_atom_site_type_symbol
H        0.009    0.441   0.1603     H
H        0.009    0.441   0.3397     H
Nd     0.01142  0.83903  0.50732    Nd
Nd     0.01142  0.83903  0.99268    Nd
O      0.01605  0.10752  0.59771     O
O      0.01605  0.10752  0.90229     O
C       0.0234   0.4078  0.12256     C
C       0.0234   0.4078  0.37744     C
O       0.0519  0.29853  0.55784     O
O       0.0519  0.29853  0.94216     O
H       0.0535   0.3406   0.1306     H
H       0.0535   0.3406   0.3694     H
C       0.0548   0.1707  0.63435     C
C       0.0548   0.1707  0.86565     C
H       0.0693   0.5356   0.0743     H
H       0.0693   0.5356   0.4257     H
C       0.0738   0.2812   0.6107     C
C       0.0738   0.2812   0.8893     C
C       0.0776   0.6042  0.58863     C
C       0.0776   0.6042  0.91137     C
O       0.0791  0.15345  0.68688     O
O       0.0791  0.15345  0.81312     O
N       0.1025   0.6797  0.55105     N
N       0.1025   0.6797  0.94895     N
C       0.1032   0.4724   0.0871     C
C       0.1032   0.4724   0.4129     C
O       0.1087  0.34537  0.64769     O
O       0.1087  0.34537  0.85231     O
O      0.11002  0.00872  0.00116     O
O      0.11002  0.00872  0.49884     O
H       0.1244   0.4347   0.0518     H
H       0.1244   0.4347   0.4482     H
N       0.1536   0.5322  0.58869     N
N       0.1536   0.5322  0.91131     N
H       0.1537   0.4774     0.61     H
H       0.1537   0.4774     0.89     H
O       0.1586   0.4807     0.75     O
Nd     0.16345  0.29184     0.75    Nd
O      0.16493  0.21144  0.03963     O
O      0.16493  0.21144  0.46037     O
O      0.17495  0.78253  0.04476     O
O      0.17495  0.78253  0.45524     O
H       0.1797   0.5264   0.1609     H
H       0.1797   0.5264   0.3391     H
O      0.18091   0.9035  0.56451     O
O      0.18091   0.9035  0.93549     O
C       0.1817   0.9873  0.53714     C
C       0.1817   0.9873  0.96286     C
C        0.199   0.6536  0.52599     C
C        0.199   0.6536  0.97401     C
C       0.2009   0.4983   0.1233     C
C       0.2009   0.4983   0.3767     C
H       0.2025   0.0253     0.75     H
O       0.2128   0.6427     0.75     O
C       0.2274   0.5477     0.75     C
C       0.2318   0.5604  0.54895     C
C       0.2318   0.5604  0.95105     C
C       0.2413   0.7207  0.02258     C
C       0.2413   0.7207  0.47742     C
H       0.2418   0.4371   0.1297     H
H       0.2418   0.4371   0.3703     H
H        0.243   0.5478   0.1023     H
H        0.243   0.5478   0.3977     H
H        0.257   0.0478   0.1023     H
H        0.257   0.0478   0.3977     H
H       0.2582   0.9371   0.1297     H
H       0.2582   0.9371   0.3703     H
C       0.2587   0.2207  0.02258     C
C       0.2587   0.2207  0.47742     C
C       0.2682   0.0604  0.54895     C
C       0.2682   0.0604  0.95105     C
C       0.2726   0.0477     0.75     C
O       0.2872   0.1427     0.75     O
H       0.2975   0.5253     0.75     H
C       0.2991   0.9983   0.1233     C
C       0.2991   0.9983   0.3767     C
C        0.301   0.1536  0.52599     C
C        0.301   0.1536  0.97401     C
C       0.3183   0.4873  0.53714     C
C       0.3183   0.4873  0.96286     C
O      0.31909   0.4035  0.56451     O
O      0.31909   0.4035  0.93549     O
H       0.3203   0.0264   0.1609     H
H       0.3203   0.0264   0.3391     H
O      0.32505  0.28253  0.04476     O
O      0.32505  0.28253  0.45524     O
O      0.33507  0.71144  0.03963     O
O      0.33507  0.71144  0.46037     O
Nd     0.33655  0.79184     0.75    Nd
O       0.3414   0.9807     0.75     O
H       0.3463   0.9774     0.61     H
H       0.3463   0.9774     0.89     H
N       0.3464   0.0322  0.58869     N
N       0.3464   0.0322  0.91131     N
H       0.3756   0.9347   0.0518     H
H       0.3756   0.9347   0.4482     H
O      0.38998  0.50872  0.00116     O
O      0.38998  0.50872  0.49884     O
O       0.3913  0.84537  0.64769     O
O       0.3913  0.84537  0.85231     O
C       0.3968   0.9724   0.0871     C
C       0.3968   0.9724   0.4129     C
N       0.3975   0.1797  0.55105     N
N       0.3975   0.1797  0.94895     N
O       0.4209  0.65345  0.68688     O
O       0.4209  0.65345  0.81312     O
C       0.4224   0.1042  0.58863     C
C       0.4224   0.1042  0.91137     C
C       0.4262   0.7812   0.6107     C
C       0.4262   0.7812   0.8893     C
H       0.4307   0.0356   0.0743     H
H       0.4307   0.0356   0.4257     H
C       0.4452   0.6707  0.63435     C
C       0.4452   0.6707  0.86565     C
H       0.4465   0.8406   0.1306     H
H       0.4465   0.8406   0.3694     H
O       0.4481  0.79853  0.55784     O
O       0.4481  0.79853  0.94216     O
C       0.4766   0.9078  0.12256     C
C       0.4766   0.9078  0.37744     C
O      0.48395  0.60752  0.59771     O
O      0.48395  0.60752  0.90229     O
Nd     0.48858  0.33903  0.50732    Nd
Nd     0.48858  0.33903  0.99268    Nd
H        0.491    0.941   0.1603     H
H        0.491    0.941   0.3397     H
H        0.509    0.059   0.6603     H
H        0.509    0.059   0.8397     H
Nd     0.51142  0.66097  0.00732    Nd
Nd     0.51142  0.66097  0.49268    Nd
O      0.51605  0.39248  0.09771     O
O      0.51605  0.39248  0.40229     O
C       0.5234   0.0922  0.62256     C
C       0.5234   0.0922  0.87744     C
O       0.5519  0.20147  0.05784     O
O       0.5519  0.20147  0.44216     O
H       0.5535   0.1594   0.6306     H
H       0.5535   0.1594   0.8694     H
C       0.5548   0.3293  0.13435     C
C       0.5548   0.3293  0.36565     C
H       0.5693   0.9644   0.5743     H
H       0.5693   0.9644   0.9257     H
C       0.5738   0.2188   0.1107     C
C       0.5738   0.2188   0.3893     C
C       0.5776   0.8958  0.08863     C
C       0.5776   0.8958  0.41137     C
O       0.5791  0.34655  0.18688     O
O       0.5791  0.34655  0.31312     O
N       0.6025   0.8203  0.05105     N
N       0.6025   0.8203  0.44895     N
C       0.6032   0.0276   0.5871     C
C       0.6032   0.0276   0.9129     C
O       0.6087  0.15463  0.14769     O
O       0.6087  0.15463  0.35231     O
O      0.61002  0.49128  0.50116     O
O      0.61002  0.49128  0.99884     O
H       0.6244   0.0653   0.5518     H
H       0.6244   0.0653   0.9482     H
N       0.6536   0.9678  0.08869     N
N       0.6536   0.9678  0.41131     N
H       0.6537   0.0226     0.11     H
H       0.6537   0.0226     0.39     H
O       0.6586   0.0193     0.25     O
Nd     0.66345  0.20816     0.25    Nd
O      0.66493  0.28856  0.53963     O
O      0.66493  0.28856  0.96037     O
O      0.67495  0.71747  0.54476     O
O      0.67495  0.71747  0.95524     O
H       0.6797   0.9736   0.6609     H
H       0.6797   0.9736   0.8391     H
O      0.68091   0.5965  0.06451     O
O      0.68091   0.5965  0.43549     O
C       0.6817   0.5127  0.03714     C
C       0.6817   0.5127  0.46286     C
C        0.699   0.8464  0.02599     C
C        0.699   0.8464  0.47401     C
C       0.7009   0.0017   0.6233     C
C       0.7009   0.0017   0.8767     C
H       0.7025   0.4747     0.25     H
O       0.7128   0.8573     0.25     O
C       0.7274   0.9523     0.25     C
C       0.7318   0.9396  0.04895     C
C       0.7318   0.9396  0.45105     C
C       0.7413   0.7793  0.52258     C
C       0.7413   0.7793  0.97742     C
H       0.7418   0.0629   0.6297     H
H       0.7418   0.0629   0.8703     H
H        0.743   0.9522   0.6023     H
H        0.743   0.9522   0.8977     H
H        0.757   0.4522   0.6023     H
H        0.757   0.4522   0.8977     H
H       0.7582   0.5629   0.6297     H
H       0.7582   0.5629   0.8703     H
C       0.7587   0.2793  0.52258     C
C       0.7587   0.2793  0.97742     C
C       0.7682   0.4396  0.04895     C
C       0.7682   0.4396  0.45105     C
C       0.7726   0.4523     0.25     C
O       0.7872   0.3573     0.25     O
H       0.7975   0.9747     0.25     H
C       0.7991   0.5017   0.6233     C
C       0.7991   0.5017   0.8767     C
C        0.801   0.3464  0.02599     C
C        0.801   0.3464  0.47401     C
C       0.8183   0.0127  0.03714     C
C       0.8183   0.0127  0.46286     C
O      0.81909   0.0965  0.06451     O
O      0.81909   0.0965  0.43549     O
H       0.8203   0.4736   0.6609     H
H       0.8203   0.4736   0.8391     H
O      0.82505  0.21747  0.54476     O
O      0.82505  0.21747  0.95524     O
O      0.83507  0.78856  0.53963     O
O      0.83507  0.78856  0.96037     O
Nd     0.83655  0.70816     0.25    Nd
O       0.8414   0.5193     0.25     O
H       0.8463   0.5226     0.11     H
H       0.8463   0.5226     0.39     H
N       0.8464   0.4678  0.08869     N
N       0.8464   0.4678  0.41131     N
H       0.8756   0.5653   0.5518     H
H       0.8756   0.5653   0.9482     H
O      0.88998  0.99128  0.50116     O
O      0.88998  0.99128  0.99884     O
O       0.8913  0.65463  0.14769     O
O       0.8913  0.65463  0.35231     O
C       0.8968   0.5276   0.5871     C
C       0.8968   0.5276   0.9129     C
N       0.8975   0.3203  0.05105     N
N       0.8975   0.3203  0.44895     N
O       0.9209  0.84655  0.18688     O
O       0.9209  0.84655  0.31312     O
C       0.9224   0.3958  0.08863     C
C       0.9224   0.3958  0.41137     C
C       0.9262   0.7188   0.1107     C
C       0.9262   0.7188   0.3893     C
H       0.9307   0.4644   0.5743     H
H       0.9307   0.4644   0.9257     H
C       0.9452   0.8293  0.13435     C
C       0.9452   0.8293  0.36565     C
H       0.9465   0.6594   0.6306     H
H       0.9465   0.6594   0.8694     H
O       0.9481  0.70147  0.05784     O
O       0.9481  0.70147  0.44216     O
C       0.9766   0.5922  0.62256     C
C       0.9766   0.5922  0.87744     C
O      0.98395  0.89248  0.09771     O
O      0.98395  0.89248  0.40229     O
Nd     0.98858  0.16097  0.00732    Nd
Nd     0.98858  0.16097  0.49268    Nd
H        0.991    0.559   0.6603     H
H        0.991    0.559   0.8397     H
