data_I
_chemical_name_common  '/home/zhangsd/repos/MofS-CGCNN/ML/data/SSD/clean_cifs/DAWCAH_clean'
_cell_length_a  6.68560
_cell_length_b 26.99670
_cell_length_c  7.63770
_cell_angle_alpha 90.00000
_cell_angle_beta  90.00000
_cell_angle_gamma 90.00000
_space_group_name_H-M_alt      'P 1'


loop_
_space_group_symop_operation_xyz
  'x, y, z' 

loop_
_atom_site_label
_atom_site_fract_x
_atom_site_fract_y
_atom_site_fract_z
_atom_site_type_symbol
Ni     0.00035  0.78242  0.25396    Ni
H       0.0076   0.3486   0.4049     H
C       0.0222   0.3885   0.7712     C
C       0.0319   0.5233   0.7131     C
H       0.0323   0.1098   0.3739     H
C       0.0453   0.6809   0.3459     C
H       0.0827   0.3179   0.8252     H
C       0.0957   0.4322   0.7148     C
H       0.0958   0.6411   0.1289     H
C       0.0983   0.8898   0.3321     C
H       0.1116   0.6135   0.8037     H
O       0.1176   0.2906   0.2807     O
C       0.1392   0.3469   0.7819     C
H       0.1461   0.9613    0.381     H
O       0.1506   0.7576   0.4741     O
O       0.1508   0.1872   0.0517     O
H       0.1695   0.5283   0.7119     H
N       0.1705   0.8464   0.2669     N
C       0.1717   0.6649   0.1968     C
C       0.1732   0.7112   0.4792     C
C       0.2049   0.9323     0.34     C
O       0.2089   0.7487   0.0957     O
H       0.2132   0.1476   0.7558     H
O       0.2158    0.188     0.42     O
C       0.2474   0.7039   0.0733     C
C       0.2526   0.2039   0.9267     C
O       0.2842    0.688     0.58     O
H       0.2868   0.6476   0.2442     H
O       0.2911   0.2487   0.9043     O
C       0.2951   0.4323     0.66     C
C       0.3268   0.2112   0.5208     C
C       0.3283   0.1649   0.8032     C
N       0.3295   0.3464   0.7331     N
H       0.3305   0.0283   0.2881     H
O       0.3492   0.6872   0.9483     O
O       0.3494   0.2576   0.5259     O
H       0.3539   0.4613    0.619     H
C       0.3608   0.8469   0.2181     C
O       0.3824   0.7906   0.7193     O
H       0.3884   0.1135   0.1963     H
C       0.4017   0.3898   0.6679     C
H       0.4042   0.1411   0.8711     H
C       0.4043   0.9322   0.2852     C
H       0.4173   0.8179   0.1748     H
C       0.4547   0.1809   0.6541     C
H       0.4677   0.6098   0.6261     H
C       0.4681   0.0233   0.2869     C
C       0.4778   0.8885   0.2288     C
H       0.4924   0.8486   0.5951     H
Ni     0.49965  0.28242  0.74604    Ni
Ni     0.50035  0.71758  0.74604    Ni
H       0.5076   0.1514   0.5951     H
C       0.5222   0.1115   0.2288     C
C       0.5319   0.9767   0.2869     C
H       0.5323   0.3902   0.6261     H
C       0.5453   0.8191   0.6541     C
H       0.5827   0.1821   0.1748     H
C       0.5957   0.0678   0.2852     C
H       0.5958   0.8589   0.8711     H
C       0.5983   0.6102   0.6679     C
H       0.6116   0.8865   0.1963     H
O       0.6176   0.2094   0.7193     O
C       0.6392   0.1531   0.2181     C
H       0.6461   0.5387    0.619     H
O       0.6506   0.7424   0.5259     O
O       0.6508   0.3128   0.9483     O
H       0.6695   0.9717   0.2881     H
N       0.6705   0.6536   0.7331     N
C       0.6717   0.8351   0.8032     C
C       0.6732   0.7888   0.5208     C
C       0.7049   0.5677     0.66     C
O       0.7089   0.7513   0.9043     O
H       0.7132   0.3524   0.2442     H
O       0.7158    0.312     0.58     O
C       0.7474   0.7961   0.9267     C
C       0.7526   0.2961   0.0733     C
O       0.7842    0.812     0.42     O
H       0.7868   0.8524   0.7558     H
O       0.7911   0.2513   0.0957     O
C       0.7951   0.0677     0.34     C
C       0.8268   0.2888   0.4792     C
C       0.8283   0.3351   0.1968     C
N       0.8295   0.1536   0.2669     N
H       0.8305   0.4717   0.7119     H
O       0.8492   0.8128   0.0517     O
O       0.8494   0.2424   0.4741     O
H       0.8539   0.0387    0.381     H
C       0.8608   0.6531   0.7819     C
O       0.8824   0.7094   0.2807     O
H       0.8884   0.3865   0.8037     H
C       0.9017   0.1102   0.3321     C
H       0.9042   0.3589   0.1289     H
C       0.9043   0.5678   0.7148     C
H       0.9173   0.6821   0.8252     H
C       0.9547   0.3191   0.3459     C
H       0.9677   0.8902   0.3739     H
C       0.9681   0.4767   0.7131     C
C       0.9778   0.6115   0.7712     C
H       0.9924   0.6514   0.4049     H
Ni     0.99965  0.21758  0.25396    Ni
