data_I
_chemical_name_common  '/home/zhangsd/repos/MofS-CGCNN/ML/data/SSD/clean_cifs/DAWCOV_clean'
_cell_length_a 13.55200
_cell_length_b 16.33290
_cell_length_c 17.34690
_cell_angle_alpha 67.29320
_cell_angle_beta  67.00700
_cell_angle_gamma 65.48900
_space_group_name_H-M_alt      'P 1'


loop_
_space_group_symop_operation_xyz
  'x, y, z' 

loop_
_atom_site_label
_atom_site_fract_x
_atom_site_fract_y
_atom_site_fract_z
_atom_site_type_symbol
C      0.00435  0.98543  0.71827     C
H       0.0228   0.8961   0.4707     H
C      0.03231  0.53278   0.7826     C
C      0.03859    0.023  0.63122     C
C      0.04358  0.92174   0.4109     C
C      0.04993  0.61354   0.1218     C
H       0.0584   0.9478   0.7484     H
H       0.0585   0.5838   0.7496     H
C      0.06445   0.3724   0.8369     C
H       0.0765   0.6646   0.0908     H
C      0.08064  0.45312   0.1756     C
C      0.10571  0.44521  0.78917     C
C      0.10913  0.99849  0.23645     C
H       0.1138   0.3117   0.8421     H
C      0.12311  0.52547  0.12651     C
H       0.1273   0.8424    0.632     H
H       0.1295   0.0273   0.1773     H
H       0.1296   0.3923   0.1811     H
C      0.15656  0.90338   0.3663     C
H         0.16   0.0643   0.5255     H
C      0.16106  0.01277  0.57883     C
H       0.1681   0.1646   0.5908     H
C      0.19106  0.94086  0.27782     C
C      0.19428  0.84232  0.58812     C
H       0.2104   0.8648   0.3966     H
C      0.21473  0.11354   0.6218     C
H       0.2217   0.4729   0.9579     H
C      0.22491  0.02547  0.62651     C
C      0.22639  0.92183  0.55015     C
C      0.22729  0.42812   0.7433     C
H       0.2413   0.7073   0.5875     H
H       0.2454   0.4478   0.2484     H
C      0.24734  0.51277  0.07883     C
H       0.2502   0.5643   0.0255     H
O      0.25963  0.49609  0.69491     O
C      0.26236  0.76125  0.56083     C
H       0.2676   0.1883   0.6579     H
C      0.27145   0.4196   0.9841     C
C      0.27375   0.1276   0.6631     C
C      0.29064  0.95312   0.6756     C
O      0.29137  0.34608  0.75512     O
C      0.29195  0.48543  0.21827     C
H       0.2922   0.3421   0.9101     H
H        0.297   0.8923   0.6811     H
C      0.30163  0.42183  0.05015     C
C      0.30719    0.523  0.13122     C
C      0.31262  0.34113  0.95583     C
C      0.31449  0.91638  0.23224     C
C      0.32485   0.9196   0.4841     C
H       0.3341   0.4727   0.3227     H
C      0.34009  0.05479  0.71083     C
C      0.34407  0.50151  0.26355     C
O      0.34645  0.97079  0.15931     O
H       0.3475   0.9729   0.4579     H
C      0.34769  0.96722   0.7174     C
C      0.36023  0.76117  0.49477     C
C      0.37528  0.34232  0.08812     C
C      0.37622  0.57826   0.0891     C
O      0.37842  0.84497  0.26885     O
C      0.38383  0.26117  0.99477     C
H       0.3896   0.6039   0.0293     H
C      0.39042  0.84113  0.45583     C
H       0.3919   0.9162   0.7504     H
O      0.39257  0.15392  0.74488     O
H       0.3983   0.3424    0.132     H
C      0.39871  0.07188   0.7567     C
C      0.40974  0.55914  0.22218     C
Mn     0.41156  0.46874  0.60204    Mn
C      0.41556  0.26125  0.06083     C
O      0.41849  0.18202  0.89256     O
O      0.42104  0.59863  0.51157     O
C      0.42624  0.59662   0.1337     C
C      0.42697  0.17569  0.96477     C
C      0.43257  0.67569  0.46477     C
O      0.45063  0.00391  0.80509     O
H       0.4556   0.8421   0.4101     H
Mn     0.45586     0.25     0.75    Mn
C      0.46311  0.58362  0.26776     C
H       0.4639   0.2073   0.0875     H
O      0.46876  0.09863  0.01157     O
H       0.4718   0.6352   0.1034     H
O      0.47655  0.52921  0.34069     O
Mn     0.48234  0.03126  0.89796    Mn
O      0.49224  0.65503  0.23115     O
O      0.49307  0.31798  0.60744     O
O      0.50693  0.68202  0.39256     O
O      0.50776  0.34497  0.76885     O
Mn     0.51766  0.96874  0.10204    Mn
O      0.52345  0.47079  0.65931     O
H       0.5282   0.3648   0.8966     H
O      0.53124  0.90137  0.98843     O
H       0.5361   0.7927   0.9125     H
C      0.53689  0.41638  0.73224     C
Mn     0.54414     0.75     0.25    Mn
H       0.5444   0.1579   0.5899     H
O      0.54937  0.99609  0.19491     O
C      0.56743  0.32431  0.53523     C
C      0.57303  0.82431  0.03523     C
C      0.57376  0.40338   0.8663     C
O      0.57896  0.40137  0.48843     O
O      0.58151  0.81798  0.10744     O
C      0.58444  0.73875  0.93917     C
Mn     0.58844  0.53126  0.39796    Mn
C      0.59026  0.44086  0.77782     C
C      0.60129  0.92812   0.2433     C
H       0.6017   0.6576    0.868     H
O      0.60743  0.84608  0.25512     O
H       0.6081   0.0838   0.2496     H
C      0.60958  0.15887  0.54417     C
H       0.6104   0.3961   0.9707     H
C      0.61617  0.73883  0.00523     C
O      0.62158  0.15503  0.73115     O
C      0.62378  0.42174   0.9109     C
C      0.62472  0.65768  0.91188     C
C      0.63977  0.23883  0.50523     C
C      0.65231  0.03278   0.2826     C
H       0.6525   0.0271   0.5421     H
O      0.65355  0.02921  0.84069     O
C      0.65593  0.49849  0.73645     C
C      0.65991  0.94521  0.28917     C
H       0.6659   0.5273   0.6773     H
C      0.67515   0.0804   0.5159     C
C      0.68551  0.08362  0.76776     C
C      0.68738  0.65887  0.04417     C
C      0.69281    0.477  0.86878     C
C      0.69837  0.57817  0.94985     C
H        0.703   0.1077   0.3189     H
H       0.7078   0.6579   0.0899     H
C      0.70805  0.51457  0.78173     C
O      0.70863  0.65392  0.24488     O
C      0.70936  0.04688   0.3244     C
C      0.72625   0.8724   0.3369     C
C      0.72855   0.5804   0.0159     C
H       0.7324   0.8117   0.3421     H
C      0.73764  0.23875  0.43917     C
O      0.74037  0.50391  0.30509     O
H       0.7498   0.4357   0.9745     H
C      0.75266  0.48723  0.92117     C
H       0.7546   0.5522   0.7516     H
H       0.7587   0.2927   0.4125     H
C      0.77271  0.57188   0.2567     C
C      0.77361  0.07817  0.44985     C
C      0.77509  0.97453  0.37349     C
H       0.7783   0.5271   0.0421     H
C      0.78527  0.88646   0.3782     C
H       0.7896   0.1352   0.6034     H
C      0.80572  0.15768  0.41188     C
C      0.80894  0.05914  0.72218     C
H       0.8319   0.8354   0.4092     H
C      0.83894  0.98723  0.42117     C
H         0.84   0.9357   0.4745     H
C      0.84344  0.09662   0.6337     C
H       0.8704   0.6077   0.8189     H
H       0.8705   0.9727   0.8227     H
H       0.8727   0.1576    0.368     H
C      0.87689  0.47453  0.87349     C
H       0.8862   0.6883   0.1579     H
C      0.89087  0.00151  0.76355     C
C      0.89429  0.55479  0.21083     C
C      0.91936  0.54688   0.8244     C
H       0.9235   0.3354   0.9092     H
C      0.93555   0.6276   0.1631     C
H       0.9415   0.4162   0.2504     H
H       0.9416   0.0522   0.2516     H
C      0.95007  0.38646   0.8782     C
C      0.95642  0.07826   0.5891     C
C      0.96141    0.977  0.36878     C
C      0.96769  0.46722   0.2174     C
H       0.9772   0.1039   0.5293     H
C      0.99565  0.01457  0.28173     C
