data_I
_chemical_name_common  '/home/zhangsd/repos/MofS-CGCNN/ML/data/SSD/clean_cifs/DEJCIF_clean'
_cell_length_a  7.33610
_cell_length_b 10.74960
_cell_length_c 14.02800
_cell_angle_alpha 90.00000
_cell_angle_beta  90.77800
_cell_angle_gamma 90.00000
_space_group_name_H-M_alt      'P 1'


loop_
_space_group_symop_operation_xyz
  'x, y, z' 

loop_
_atom_site_label
_atom_site_fract_x
_atom_site_fract_y
_atom_site_fract_z
_atom_site_type_symbol
Cu     0.08893   0.0921  0.11987    Cu
Cu     0.08893   0.4079  0.61987    Cu
O       0.1058    0.012  0.83103     O
O       0.1058    0.488  0.33103     O
H       0.1299   0.6342   0.7504     H
H       0.1299   0.8658   0.2504     H
O       0.1712   0.2022   0.2918     O
O       0.1712   0.2978   0.7918     O
O       0.2114   0.0781  0.97238     O
O       0.2114   0.4219  0.47238     O
C       0.2254   0.0591   0.8864     C
C       0.2254   0.4409   0.3864     C
C         0.25     0.62   0.7282     C
C         0.25     0.88   0.2282     C
O       0.2681   0.2296    0.143     O
O       0.2681   0.2704    0.643     O
C       0.2758   0.2462   0.2333     C
C       0.2758   0.2538   0.7333     C
N       0.2778   0.5311   0.6631     N
N       0.2778   0.9689   0.1631     N
H       0.3689    0.747   0.3112     H
H       0.3689    0.753   0.8112     H
C       0.3918   0.6917    0.764     C
C       0.3918   0.8083    0.264     C
C       0.4063   0.0865   0.8406     C
C       0.4063   0.4135   0.3406     C
C       0.4321    0.174    0.769     C
C       0.4321    0.326    0.269     C
C       0.4467   0.5159   0.6286     C
C       0.4467   0.9841   0.1286     C
H       0.4656   0.0458   0.0813     H
H       0.4656   0.4542   0.5813     H
H       0.5344   0.5458   0.4187     H
H       0.5344   0.9542   0.9187     H
C       0.5533   0.0159   0.8714     C
C       0.5533   0.4841   0.3714     C
C       0.5679    0.674    0.731     C
C       0.5679    0.826    0.231     C
C       0.5937   0.5865   0.6594     C
C       0.5937   0.9135   0.1594     C
C       0.6082   0.1917    0.736     C
C       0.6082   0.3083    0.236     C
H       0.6311    0.247   0.1888     H
H       0.6311    0.253   0.6888     H
N       0.7222   0.0311   0.8369     N
N       0.7222   0.4689   0.3369     N
C       0.7242   0.7462   0.2667     C
C       0.7242   0.7538   0.7667     C
O       0.7319   0.7296    0.357     O
O       0.7319   0.7704    0.857     O
C         0.75     0.12   0.7718     C
C         0.75     0.38   0.2718     C
C       0.7746   0.5591   0.6136     C
C       0.7746   0.9409   0.1136     C
O       0.7886   0.5781  0.52762     O
O       0.7886   0.9219  0.02762     O
O       0.8288   0.7022   0.2082     O
O       0.8288   0.7978   0.7082     O
H       0.8701   0.1342   0.7496     H
H       0.8701   0.3658   0.2496     H
O       0.8942    0.512  0.66897     O
O       0.8942    0.988  0.16897     O
Cu     0.91107   0.5921  0.38013    Cu
Cu     0.91107   0.9079  0.88013    Cu
