data_I
_chemical_name_common  '/home/zhangsd/repos/MofS-CGCNN/ML/data/SSD/clean_cifs/DIRPIF_clean'
_cell_length_a 16.15800
_cell_length_b 18.17100
_cell_length_c 18.95500
_cell_angle_alpha 99.19000
_cell_angle_beta  106.28000
_cell_angle_gamma 116.34000
_space_group_name_H-M_alt      'P 1'


loop_
_space_group_symop_operation_xyz
  'x, y, z' 

loop_
_atom_site_label
_atom_site_fract_x
_atom_site_fract_y
_atom_site_fract_z
_atom_site_type_symbol
H       0.0054   0.6878   0.1994     H
C       0.0124   0.2504   0.8756     C
C       0.0353   0.1792   0.1077     C
O        0.037   0.8054  0.91172     O
C       0.0418   0.3047   0.8348     C
O       0.0513    0.134  0.06362     O
H       0.0546   0.3018    0.218     H
H       0.0636   0.2025   0.9569     H
C       0.0837   0.2391   0.9283     C
C       0.0959   0.8029   0.1375     C
C       0.1025   0.2875   0.2388     C
C       0.1055   0.2246   0.1932     C
O        0.118   0.8543   0.1008     O
H       0.1231   0.4142   0.3504     H
H       0.1344   0.4198   0.7711     H
C       0.1445   0.3508   0.8433     C
O       0.1493   0.0112   0.0452     O
Zn     0.15344  0.86212  0.01036    Zn
O       0.1597  0.79779   0.1882     O
C       0.1701   0.3982   0.3693     C
C        0.171   0.3324   0.3182     C
C       0.1751   0.2001   0.2238     C
H       0.1752   0.1551   0.1926     H
C       0.1788   0.4075   0.8027     C
C       0.1806   0.2813   0.9371     C
H       0.1898   0.6247    0.963     H
O       0.1922  0.77144  0.99398     O
C       0.2134   0.3363   0.8946     C
H       0.2268   0.2736   0.9723     H
C        0.229   0.0313   0.0346     C
H       0.2337   0.4811   0.4764     H
H       0.2349   0.1717    0.096     H
C       0.2354   0.4378   0.4445     C
C       0.2421   0.3085   0.3489     C
C       0.2433   0.2424   0.2998     C
H       0.2515   0.5334   0.9744     H
C       0.2524   0.6447   0.0017     C
O        0.255   0.9767   0.0199     O
C       0.2696   0.7908   0.0512     C
C        0.275   0.4452    0.808     C
H       0.2781   0.1636   0.5797     H
C       0.2895   0.5902   0.0088     C
C       0.2901   0.1873   0.0827     C
H       0.2908   0.2271   0.3192     H
H       0.2929   0.2992   0.5618     H
H       0.2958   0.4825   0.7801     H
H       0.2983    0.325   0.1558     H
C        0.304   0.1246   0.0474     C
Zn     0.30431  0.87873  0.21282    Zn
C        0.307   0.4138    0.475     C
C       0.3097   0.7317   0.0535     C
C       0.3107   0.3526   0.4281     C
C       0.3142   0.3771   0.9001     C
O       0.3152  0.86159  0.10803     O
O       0.3277   0.9797   0.3336     O
C       0.3443   0.4277   0.8566     C
C       0.3478   0.1923   0.6051     C
C       0.3504   0.3401   0.1387     C
H       0.3546   0.0873   0.6216     H
O       0.3578   0.8168  0.26639     O
O       0.3591   0.0047   0.2328     O
C       0.3594   0.2752   0.0989     C
H       0.3595   0.3388   0.4479     H
H       0.3605   0.3688   0.9345     H
H       0.3619   0.5559   0.3053     H
C       0.3625   0.3277    0.587     C
C        0.363   0.0289   0.2988     C
H       0.3633   0.2992   0.7798     H
N       0.3724   0.4545   0.5558     N
H       0.3747    0.693   0.2876     H
C       0.3812    0.145   0.0241     C
C       0.3831    0.618   0.0664     C
H        0.385   0.5047   0.0435     H
H       0.3882   0.1005      0.0     H
C       0.3931   0.1468   0.6314     C
C        0.404   0.7613   0.1087     C
C       0.4057   0.2805   0.6165     C
H        0.407   0.4658   0.1807     H
H       0.4079   0.1203   0.4424     H
C       0.4119   0.1248   0.3371     C
H       0.4128   0.5394   0.6976     H
C       0.4144   0.4236   0.1531     C
C       0.4156   0.5463   0.5912     C
C       0.4182    0.413   0.5936     C
H       0.4201   0.2065   0.7943     H
C        0.423   0.5624   0.0759     C
C        0.426   0.3193   0.8184     C
C       0.4289   0.1582   0.4149     C
C       0.4313   0.5856   0.3329     C
H       0.4314     0.58   0.4995     H
C       0.4317   0.5778   0.6702     C
H       0.4348   0.1596   0.2473     H
H       0.4357    0.483   0.3563     H
H       0.4397   0.5958   0.9279     H
N       0.4416    0.461   0.8573     N
C        0.442   0.7055   0.1164     C
C       0.4421   0.2982   0.0744     C
C       0.4426   0.6016   0.5513     C
H       0.4429    0.819   0.1412     H
C        0.444   0.7214   0.3146     C
C       0.4447   0.1814   0.2987     C
C       0.4506   0.2311   0.0354     C
C       0.4553   0.8561   0.2933     C
C       0.4602   0.2644   0.8263     C
C       0.4749   0.6647   0.7055     C
C       0.4751   0.5418   0.3634     C
C        0.476   0.2459   0.4511     C
C       0.4844   0.4078   0.8684     C
H       0.4847    0.685   0.7571     H
H       0.4851   0.2665   0.5025     H
C       0.4877    0.673    0.342     C
C       0.4887   0.6937   0.5879     C
C       0.4923   0.6125   0.9113     C
O       0.4938   0.0732   0.7119     O
C       0.4941   0.2741   0.3347     C
C       0.4946   0.4494   0.1266     C
H       0.4985   0.7562   0.9827     H
C       0.4999   0.8071   0.3263     C
C       0.5001   0.1929   0.6737     C
H       0.5015   0.2438   0.0173     H
C       0.5054   0.5506   0.8734     C
C       0.5059   0.7259   0.6653     C
O       0.5062   0.9268   0.2881     O
C       0.5077   0.3875   0.0887     C
C       0.5113   0.3063   0.4121     C
C       0.5123    0.327    0.658     C
H       0.5149   0.7335   0.4975     H
H       0.5153    0.315   0.2429     H
C       0.5156   0.5922   0.1316     C
C        0.524   0.7541   0.5489     C
C       0.5249   0.4582   0.6366     C
C       0.5251   0.3353   0.2945     C
C       0.5398   0.7356   0.1737     C
C       0.5447   0.1439   0.7067     C
C       0.5494   0.7689   0.9646     C
C       0.5553   0.8186   0.7013     C
C        0.556   0.2786   0.6854     C
H       0.5571    0.181   0.8588     H
C       0.5574   0.3984   0.4487     C
C       0.5579   0.7018   0.9256     C
C        0.558   0.2945   0.8836     C
N       0.5584    0.539   0.1427     N
H       0.5603   0.4042   0.0721     H
H       0.5643    0.517   0.6437     H
H       0.5652   0.8404   0.7527     H
C       0.5683   0.4222   0.3298     C
H       0.5686     0.42   0.5005     H
C       0.5687   0.4144   0.6671     C
C       0.5711   0.8418   0.5851     C
C        0.574   0.6807   0.1816     C
C        0.577   0.4376   0.9241     C
H       0.5799   0.7935   0.2057     H
C       0.5818    0.587   0.4064     C
C       0.5844   0.4537   0.4088     C
C       0.5856   0.5764   0.8469     C
H       0.5872   0.4606   0.3024     H
C       0.5881   0.8752   0.6629     C
H       0.5921   0.8797   0.5576     H
H        0.593   0.5342   0.8193     H
C       0.5943   0.7195   0.3835     C
C        0.596   0.2387   0.8913     C
C       0.6069   0.8532   0.3686     C
H       0.6118   0.8995      0.0     H
H        0.615   0.4953   0.9565     H
C       0.6169    0.382   0.9336     C
C       0.6188    0.855   0.9759     C
H       0.6253    0.307   0.7124     H
N       0.6276   0.5455   0.4442     N
H       0.6367   0.7008   0.2202     H
C        0.637   0.9711   0.7012     C
C       0.6375   0.6723    0.413     C
H       0.6381   0.4441   0.6947     H
H       0.6395   0.6312   0.0655     H
H       0.6405   0.6612   0.5521     H
C       0.6406   0.7248   0.9011     C
O       0.6409   0.9953   0.7672     O
O       0.6422   0.1832  0.73361     O
H       0.6454   0.9127   0.3784     H
C       0.6496   0.6599   0.8613     C
C       0.6522   0.8077   0.3949     C
C       0.6557   0.5723   0.1434     C
O       0.6723   0.0203   0.6664     O
O       0.6848  0.13841  0.89197     O
C       0.6858   0.6229   0.0999     C
C       0.6893   0.6474   0.5719     C
C       0.6903   0.2683   0.9465     C
C        0.693   0.5862    0.525     C
Zn     0.69569  0.12127  0.78718    Zn
C        0.696   0.8754   0.9526     C
H       0.7017    0.675   0.8442     H
H       0.7042   0.5175   0.2199     H
H       0.7071   0.7008   0.4382     H
H       0.7092   0.7729   0.6808     H
C       0.7099   0.8127   0.9173     C
C       0.7105   0.4098   0.9912     C
H       0.7219   0.8364   0.4203     H
C        0.725   0.5548    0.192     C
C       0.7304   0.2092   0.9488     C
O        0.745   0.0233   0.9801     O
C       0.7476   0.3553   0.9983     C
H       0.7485   0.4666   0.0256     H
C       0.7567   0.7576   0.7002     C
C       0.7579   0.6915   0.6511     C
C       0.7646   0.5622   0.5555     C
H       0.7651   0.8283    0.904     H
H       0.7663   0.5189   0.5236     H
C        0.771   0.9687   0.9654     C
H       0.7732   0.7264   0.0277     H
C       0.7866   0.6637   0.1054     C
O       0.8078  0.22856  0.00602     O
H       0.8102   0.3753    0.037     H
C       0.8194   0.7187   0.0629     C
C       0.8212   0.5925   0.1973     C
H       0.8248   0.8449   0.8074     H
C       0.8249   0.7999   0.7762     C
C        0.829   0.6676   0.6818     C
C       0.8299   0.6018   0.6307     C
O       0.8403  0.20221   0.8118     O
Zn     0.84656  0.13788  0.98964    Zn
O       0.8507   0.9888   0.9548     O
C       0.8555   0.6492   0.1567     C
H       0.8656   0.5802   0.2289     H
H       0.8769   0.5858   0.6496     H
O        0.882   0.1457   0.8992     O
C       0.8945   0.7754   0.8068     C
C       0.8975   0.7125   0.7612     C
C       0.9041   0.1971   0.8625     C
C       0.9163   0.7609   0.0717     C
H       0.9364   0.7975   0.0431     H
H       0.9454   0.6982    0.782     H
O       0.9487    0.866  0.93638     O
C       0.9582   0.6953   0.1652     C
O        0.963   0.1946  0.08828     O
C       0.9647   0.8208   0.8923     C
C       0.9876   0.7496   0.1244     C
H       0.9946   0.3122   0.8006     H
