data_I
_chemical_name_common  '/home/zhangsd/repos/MofS-CGCNN/ML/data/SSD/clean_cifs/DIVQAB_clean'
_cell_length_a 17.23600
_cell_length_b  9.18350
_cell_length_c 15.47800
_cell_angle_alpha 90.00000
_cell_angle_beta  90.00000
_cell_angle_gamma 90.00000
_space_group_name_H-M_alt      'P 1'


loop_
_space_group_symop_operation_xyz
  'x, y, z' 

loop_
_atom_site_label
_atom_site_fract_x
_atom_site_fract_y
_atom_site_fract_z
_atom_site_type_symbol
Ag         0.0      0.0    8e-05    Ag
Ag         0.0      0.5  0.50008    Ag
C       0.0112   0.3074   0.8891     C
C       0.0112   0.8074   0.3891     C
C       0.0209   0.0711   0.3478     C
C       0.0209   0.5711   0.8478     C
N      0.02584    0.319   0.3927     N
N      0.02584    0.819   0.8927     N
H       0.0599   0.3155   0.9146     H
H       0.0599   0.8155   0.4146     H
C       0.0933   0.0894    0.314     C
C       0.0933   0.5894    0.814     C
C       0.0943   0.3268   0.3545     C
C       0.0943   0.8268   0.8545     C
H       0.1178   0.0094   0.2892     H
H       0.1178   0.5094   0.7892     H
N       0.1192   0.4663   0.5649     N
N       0.1192   0.9663   0.0649     N
H       0.1193   0.4166   0.3551     H
H       0.1193   0.9166   0.8551     H
H       0.1307   0.1666   0.1051     H
H       0.1307   0.6666   0.6051     H
N       0.1308   0.2163   0.3149     N
N       0.1308   0.7163   0.8149     N
H       0.1322   0.2594   0.5392     H
H       0.1322   0.7594   0.0392     H
C       0.1557   0.0768   0.1045     C
C       0.1557   0.5768   0.6045     C
C       0.1567   0.3394    0.564     C
C       0.1567   0.8394    0.064     C
H       0.1901   0.0655   0.6646     H
H       0.1901   0.5655   0.1646     H
N      0.22416    0.069   0.1427     N
N      0.22416    0.569   0.6427     N
C       0.2291   0.3211   0.5978     C
C       0.2291   0.8211   0.0978     C
C       0.2388   0.0574   0.6391     C
C       0.2388   0.5574   0.1391     C
Ag        0.25     0.25  0.25008    Ag
Ag        0.25     0.75  0.75008    Ag
C       0.2612   0.4426   0.6391     C
C       0.2612   0.9426   0.1391     C
C       0.2709   0.1789   0.5978     C
C       0.2709   0.6789   0.0978     C
N      0.27584    0.431   0.1427     N
N      0.27584    0.931   0.6427     N
H       0.3099   0.4345   0.6646     H
H       0.3099   0.9345   0.1646     H
C       0.3433   0.1606    0.564     C
C       0.3433   0.6606    0.064     C
C       0.3443   0.4232   0.1045     C
C       0.3443   0.9232   0.6045     C
H       0.3678   0.2406   0.5392     H
H       0.3678   0.7406   0.0392     H
N       0.3692   0.2837   0.3149     N
N       0.3692   0.7837   0.8149     N
H       0.3693   0.3334   0.1051     H
H       0.3693   0.8334   0.6051     H
H       0.3807   0.0834   0.3551     H
H       0.3807   0.5834   0.8551     H
N       0.3808   0.0337   0.5649     N
N       0.3808   0.5337   0.0649     N
H       0.3822   0.4906   0.2892     H
H       0.3822   0.9906   0.7892     H
C       0.4057   0.1732   0.3545     C
C       0.4057   0.6732   0.8545     C
C       0.4067   0.4106    0.314     C
C       0.4067   0.9106    0.814     C
H       0.4401   0.1845   0.9146     H
H       0.4401   0.6845   0.4146     H
N      0.47416    0.181   0.3927     N
N      0.47416    0.681   0.8927     N
C       0.4791   0.4289   0.3478     C
C       0.4791   0.9289   0.8478     C
C       0.4888   0.1926   0.8891     C
C       0.4888   0.6926   0.3891     C
Ag         0.5      0.0  0.50008    Ag
Ag         0.5      0.5    8e-05    Ag
C       0.5112   0.3074   0.3891     C
C       0.5112   0.8074   0.8891     C
C       0.5209   0.0711   0.8478     C
C       0.5209   0.5711   0.3478     C
N      0.52584    0.319   0.8927     N
N      0.52584    0.819   0.3927     N
H       0.5599   0.3155   0.4146     H
H       0.5599   0.8155   0.9146     H
C       0.5933   0.0894    0.814     C
C       0.5933   0.5894    0.314     C
C       0.5943   0.3268   0.8545     C
C       0.5943   0.8268   0.3545     C
H       0.6178   0.0094   0.7892     H
H       0.6178   0.5094   0.2892     H
N       0.6192   0.4663   0.0649     N
N       0.6192   0.9663   0.5649     N
H       0.6193   0.4166   0.8551     H
H       0.6193   0.9166   0.3551     H
H       0.6307   0.1666   0.6051     H
H       0.6307   0.6666   0.1051     H
N       0.6308   0.2163   0.8149     N
N       0.6308   0.7163   0.3149     N
H       0.6322   0.2594   0.0392     H
H       0.6322   0.7594   0.5392     H
C       0.6557   0.0768   0.6045     C
C       0.6557   0.5768   0.1045     C
C       0.6567   0.3394    0.064     C
C       0.6567   0.8394    0.564     C
H       0.6901   0.0655   0.1646     H
H       0.6901   0.5655   0.6646     H
N      0.72416    0.069   0.6427     N
N      0.72416    0.569   0.1427     N
C       0.7291   0.3211   0.0978     C
C       0.7291   0.8211   0.5978     C
C       0.7388   0.0574   0.1391     C
C       0.7388   0.5574   0.6391     C
Ag        0.75     0.25  0.75008    Ag
Ag        0.75     0.75  0.25008    Ag
C       0.7612   0.4426   0.1391     C
C       0.7612   0.9426   0.6391     C
C       0.7709   0.1789   0.0978     C
C       0.7709   0.6789   0.5978     C
N      0.77584    0.431   0.6427     N
N      0.77584    0.931   0.1427     N
H       0.8099   0.4345   0.1646     H
H       0.8099   0.9345   0.6646     H
C       0.8433   0.1606    0.064     C
C       0.8433   0.6606    0.564     C
C       0.8443   0.4232   0.6045     C
C       0.8443   0.9232   0.1045     C
H       0.8678   0.2406   0.0392     H
H       0.8678   0.7406   0.5392     H
N       0.8692   0.2837   0.8149     N
N       0.8692   0.7837   0.3149     N
H       0.8693   0.3334   0.6051     H
H       0.8693   0.8334   0.1051     H
H       0.8807   0.0834   0.8551     H
H       0.8807   0.5834   0.3551     H
N       0.8808   0.0337   0.0649     N
N       0.8808   0.5337   0.5649     N
H       0.8822   0.4906   0.7892     H
H       0.8822   0.9906   0.2892     H
C       0.9057   0.1732   0.8545     C
C       0.9057   0.6732   0.3545     C
C       0.9067   0.4106    0.814     C
C       0.9067   0.9106    0.314     C
H       0.9401   0.1845   0.4146     H
H       0.9401   0.6845   0.9146     H
N      0.97416    0.181   0.8927     N
N      0.97416    0.681   0.3927     N
C       0.9791   0.4289   0.8478     C
C       0.9791   0.9289   0.3478     C
C       0.9888   0.1926   0.3891     C
C       0.9888   0.6926   0.8891     C
