data_I
_chemical_name_common  '/home/zhangsd/repos/MofS-CGCNN/ML/data/SSD/clean_cifs/DIXKOL_clean'
_cell_length_a 11.15750
_cell_length_b 11.26060
_cell_length_c 11.42400
_cell_angle_alpha 76.76200
_cell_angle_beta  65.81400
_cell_angle_gamma 80.68000
_space_group_name_H-M_alt      'P 1'


loop_
_space_group_symop_operation_xyz
  'x, y, z' 

loop_
_atom_site_label
_atom_site_fract_x
_atom_site_fract_y
_atom_site_fract_z
_atom_site_type_symbol
C      0.00346  0.27884  0.77458     C
Co     0.00718  0.64072  0.99133    Co
C        0.009  0.05381  0.76818     C
C       0.0167  0.83084   0.7585     C
O      0.02686  0.19396  0.11854     O
Co     0.02916   0.5718  0.71023    Co
H       0.0319   0.9644   0.1393     H
C      0.03406  0.17282  0.70372     C
O      0.03856  0.75767  0.68297     O
O      0.03904  0.38043  0.70146     O
C      0.04506  0.96152  0.69473     C
O      0.04948   0.4701  0.09374     O
O      0.04994  0.74055  0.10392     O
O      0.08278   0.5758  0.51164     O
N      0.09289  0.20295  0.57214     N
Co     0.10282  0.39292  0.49932    Co
C       0.1071  0.99169  0.56071     C
H       0.1268   0.4761   0.0781     H
C       0.1297  0.11353  0.50273     C
H       0.1341     0.93   0.5086     H
H       0.1466   0.6275    0.461     H
O      0.15894  0.40662  0.30093     O
H       0.1729   0.1335   0.4105     H
O      0.20896  0.64128  0.86395     O
O      0.22264  0.55113  0.70147     O
C      0.26981  0.60213  0.75965     C
C       0.2804  0.41387  0.22474     C
N      0.31226  0.37644  0.42741     N
O      0.32358  0.43219  0.10489     O
H       0.3451   0.3441     0.59     H
C      0.37248  0.39606  0.29585     C
C       0.3867  0.36027  0.49749     C
C      0.41627  0.61231  0.69495     C
H       0.4284   0.6442   0.5071     H
H       0.4535   0.5858    0.861     H
C       0.4782  0.63376  0.55957     C
C       0.4932   0.5986  0.76843     C
C       0.5068   0.4014  0.23157     C
C       0.5218  0.36624  0.44043     C
H       0.5465   0.4142    0.139     H
H       0.5716   0.3558   0.4929     H
C      0.58373  0.38769  0.30505     C
C       0.6133  0.63973  0.50251     C
C      0.62752  0.60394  0.70415     C
H       0.6549   0.6559     0.41     H
O      0.67642  0.56781  0.89511     O
N      0.68774  0.62356  0.57259     N
C       0.7196  0.58613  0.77526     C
C      0.73019  0.39787  0.24035     C
O      0.77736  0.44887  0.29853     O
O      0.79104  0.35872  0.13605     O
H       0.8271   0.8665   0.5895     H
O      0.84106  0.59338  0.69907     O
H       0.8534   0.3725    0.539     H
H       0.8659     0.07   0.4914     H
C       0.8703  0.88647  0.49727     C
H       0.8732   0.5239   0.9219     H
C       0.8929  0.00831  0.43929     C
Co     0.89718  0.60708  0.50068    Co
N      0.90711  0.79705  0.42786     N
O      0.91722   0.4242  0.48836     O
O      0.95006  0.25945  0.89608     O
O      0.95052   0.5299  0.90626     O
C      0.95494  0.03848  0.30527     C
O      0.96096  0.61957  0.29854     O
O      0.96144  0.24233  0.31703     O
C      0.96594  0.82718  0.29628     C
H       0.9681   0.0356   0.8607     H
Co     0.97084   0.4282  0.28977    Co
O      0.97314  0.80604  0.88146     O
C       0.9833  0.16916   0.2415     C
C        0.991  0.94619  0.23182     C
Co     0.99282  0.35928  0.00867    Co
C      0.99654  0.72116  0.22542     C
