data_I
_chemical_name_common  '/home/zhangsd/repos/MofS-CGCNN/ML/data/SSD/clean_cifs/DONKUO_clean'
_cell_length_a 12.30290
_cell_length_b 17.43360
_cell_length_c 17.49200
_cell_angle_alpha 67.67000
_cell_angle_beta  76.20000
_cell_angle_gamma 71.88400
_space_group_name_H-M_alt      'P 1'


loop_
_space_group_symop_operation_xyz
  'x, y, z' 

loop_
_atom_site_label
_atom_site_fract_x
_atom_site_fract_y
_atom_site_fract_z
_atom_site_type_symbol
O       0.0003   0.2843    0.306     O
C       0.0042    0.676   0.9092     C
C       0.0063   0.2169   0.3824     C
O       0.0088   0.1956   0.6983     O
C       0.0111   0.4582   0.1978     C
H       0.0154    0.646   0.0711     H
C       0.0172   0.2675   0.2329     C
H       0.0183   0.7131   0.1095     H
C       0.0194   0.6619   0.8345     C
C       0.0223   0.1634   0.7738     C
C       0.0234    0.495   0.7486     C
H       0.0268   0.6292   0.9556     H
H        0.027   0.5732   0.3014     H
H       0.0288   0.8259   0.6174     H
C       0.0289   0.7011   0.0587     C
H       0.0367   0.1764    0.011     H
C       0.0427   0.2447   0.0805     C
O       0.0459   0.8678   0.1699     O
C        0.047   0.9968   0.2646     C
C       0.0517   0.5416   0.2652     C
O        0.052   0.9659    0.754     O
O       0.0541   0.7969   0.4767     O
C       0.0554   0.2311   0.9982     C
C       0.0585   0.7454   0.5486     C
C       0.0673   0.1862   0.2263     C
O       0.0705   0.9347    0.331     O
C       0.0734   0.5761   0.8221     C
C       0.0781   0.1753    0.151     C
H       0.0781    0.494   0.9428     H
H       0.0862   0.1899   0.3913     H
H       0.0929   0.1401   0.2723     H
H       0.1065   0.7013   0.0314     H
O       0.1121   0.6694   0.5689     O
O        0.124   0.0983   0.1389     O
C        0.124     0.45   0.1596     C
Mn     0.13054  0.79954  0.35449    Mn
O       0.1322   0.1543   0.8756     O
H       0.1327   0.6683   0.2483     H
H       0.1328   0.5852   0.7732     H
C       0.1342   0.5083   0.8945     C
O       0.1349   0.4875   0.7069     O
C       0.1359   0.1637   0.7915     C
Mn     0.14298  0.56495  0.52963    Mn
C       0.1485   0.0254   0.2089     C
H        0.149   0.4183   0.1235     H
O       0.1515   0.4324   0.5797     O
H       0.1558    0.217   0.7561     H
C       0.1634    0.531    0.225     C
O       0.1688   0.6609   0.3945     O
H       0.1699   0.3651   0.7621     H
H       0.1744   0.4581   0.8796     H
C       0.1774   0.2235    0.952     C
C       0.1861   0.6037   0.3631     C
O       0.1875   0.5304   0.4062     O
H       0.1883   0.5302   0.9067     H
H       0.1921   0.0366   0.2413     H
H       0.1956   0.1174    0.778     H
H       0.1978   0.9788   0.1898     H
C       0.2008   0.4053   0.7122     C
C       0.2018    0.485   0.1708     C
C       0.2049   0.6322   0.2684     C
C       0.2055    0.379   0.6384     C
C       0.2111   0.1866   0.8905     C
H       0.2349   0.2836   0.0059     H
O       0.2436   0.5654   0.2345     O
C       0.2566   0.2576   0.9652     C
H       0.2576   0.2574   0.2981     H
H       0.2608   0.6668   0.2477     H
H       0.2619   0.3063   0.3557     H
O       0.2645   0.3066   0.6408     O
O       0.2753   0.8064   0.2489     O
H        0.279   0.4011   0.7184     H
H       0.2827   0.5551   0.0072     H
H       0.2973   0.6054   0.0602     H
C       0.3091   0.2736   0.3201     C
O       0.3177   0.7909   0.3693     O
C       0.3216   0.1795    0.847     C
C       0.3231    0.476   0.1241     C
C       0.3278   0.5543   0.0454     C
O       0.3283   0.1466   0.4304     O
H       0.3442   0.1516   0.8077     H
C       0.3466   0.7995   0.2927     C
C       0.3664   0.2546   0.9207     C
H       0.3673   0.1049   0.1664     H
C       0.3684   0.3916   0.1093     C
O       0.3715   0.3265   0.2529     O
H       0.3724   0.4765   0.1603     H
O       0.3772   0.9526   0.8146     O
H       0.3827   0.4321   0.9846     H
C       0.3837   0.1948   0.3714     C
C       0.3855    0.317   0.1766     C
H       0.3897   0.4194   0.8633     H
C       0.3916   0.3826   0.0309     C
C        0.397   0.2131   0.8618     C
H       0.4065   0.5516   0.0195     H
C       0.4195   0.2374   0.1672     C
C       0.4269    0.305   0.0176     C
H       0.4283   0.1881   0.2138     H
H       0.4354   0.0457   0.1132     H
C       0.4406   0.2314   0.0874     C
C       0.4426   0.0848   0.1378     C
C       0.4516   0.2944   0.9332     C
C       0.4609   0.3768   0.8614     C
H        0.466   0.0364   0.7015     H
C       0.4686   0.8025   0.2571     C
H       0.4726   0.7458   0.0692     H
C       0.4745    0.963   0.7991     C
O        0.476   0.1556   0.0733     O
H       0.4764   0.3662   0.8094     H
H       0.4774   0.6032   0.1337     H
H       0.4797   0.2427   0.7059     H
H       0.4805   0.8569   0.2515     H
O       0.4851   0.9877   0.2667     O
O       0.4891   0.1802   0.3548     O
O       0.4922   0.7919   0.1785     O
O       0.5078   0.2081   0.8215     O
O       0.5109   0.8198   0.6452     O
O       0.5149   0.0123   0.7333     O
H       0.5195   0.1431   0.7485     H
H       0.5203   0.7573   0.2941     H
H       0.5226   0.3968   0.8663     H
H       0.5236   0.6338   0.1906     H
O        0.524   0.8444   0.9267     O
C       0.5255    0.037   0.2009     C
H       0.5274   0.2542   0.9308     H
C       0.5314   0.1975   0.7429     C
H        0.534   0.9636   0.2985     H
C       0.5391   0.6232   0.1386     C
C       0.5484   0.7056   0.0668     C
C       0.5574   0.9152   0.8622     C
C       0.5594   0.7686   0.9126     C
H       0.5646   0.9543   0.8868     H
H       0.5717   0.8119   0.7862     H
C       0.5731    0.695   0.9824     C
C       0.5805   0.7626   0.8328     C
H       0.5935   0.4484   0.9805     H
C        0.603   0.7869   0.1382     C
C       0.6084   0.6174   0.9691     C
H       0.6103   0.5806   0.1367     H
C       0.6145    0.683   0.8234     C
C       0.6163   0.8052   0.6286     C
H       0.6173   0.5679   0.0154     H
O       0.6228   0.0474   0.1854     O
H       0.6276   0.5235   0.8397     H
O       0.6285   0.6735   0.7471     O
C       0.6316   0.6084   0.8907     C
H       0.6327   0.8951   0.8336     H
C       0.6336   0.7454   0.0793     C
C       0.6534   0.2005   0.7073     C
H       0.6558   0.8484   0.1923     H
O       0.6717   0.8534   0.5696     O
C       0.6722   0.4457   0.9546     C
C       0.6769    0.524   0.8759     C
C       0.6784   0.8205    0.153     C
O       0.6823   0.2091   0.6307     O
C       0.6909   0.7264   0.6799     C
H       0.7027   0.3946   0.9398     H
H       0.7173   0.4449   0.9928     H
H        0.721   0.5989   0.2816     H
O       0.7247   0.1936   0.7511     O
O       0.7355   0.6934   0.3592     O
H       0.7381   0.6937   0.6443     H
H       0.7392   0.3332   0.7523     H
H       0.7424   0.7426   0.7019     H
C       0.7434   0.7424   0.0348     C
O       0.7564   0.4346   0.7655     O
H       0.7651   0.7164   0.9941     H
C       0.7889   0.8134   0.1095     C
C       0.7945    0.621   0.3616     C
C       0.7951   0.3678   0.7316     C
C       0.7982    0.515   0.8292     C
C       0.7992   0.5947   0.2878     C
H       0.8022   0.0212   0.8102     H
H       0.8044   0.8826    0.222     H
H       0.8079   0.9634   0.7587     H
H       0.8117   0.4698   0.0933     H
O       0.8125   0.4696   0.5938     O
C       0.8139   0.3963   0.6369     C
C       0.8226   0.7765    0.048     C
H       0.8256   0.5419   0.1204     H
H       0.8301   0.6349   0.2379     H
O       0.8312   0.3391   0.6055     O
C       0.8366    0.469    0.775     C
H       0.8442    0.783   0.2439     H
O       0.8485   0.5676   0.4203     O
H        0.851   0.5817   0.8765     H
C       0.8515   0.9746   0.7911     C
Mn     0.85702  0.43505  0.47037    Mn
C       0.8641   0.8363   0.2085     C
O       0.8651   0.5125   0.2931     O
C       0.8658   0.4917   0.1055     C
H       0.8672   0.4148   0.2268     H
H       0.8673   0.3317   0.7517     H
O       0.8678   0.8457   0.1244     O
Mn     0.86946  0.20046  0.64551    Mn
C        0.876     0.55   0.8404     C
O        0.876   0.9017   0.8611     O
O       0.8879   0.3306   0.4311     O
H       0.8935   0.2987   0.9686     H
H       0.9071   0.8599   0.7277     H
H       0.9138   0.8101   0.6087     H
H       0.9219    0.506   0.0572     H
C       0.9219   0.8247    0.849     C
C       0.9266   0.4239   0.1779     C
O       0.9295   0.0653    0.669     O
C       0.9327   0.8138   0.7737     C
C       0.9415   0.2546   0.4514     C
C       0.9446   0.7689   0.0018     C
O       0.9459   0.2031   0.5233     O
O        0.948   0.0341    0.246     O
C       0.9483   0.4584   0.7348     C
C        0.953   0.0032   0.7354     C
O       0.9541   0.1322   0.8301     O
C       0.9573   0.7553   0.9195     C
H       0.9633   0.8236    0.989     H
C       0.9711   0.2989   0.9413     C
H       0.9712   0.1741   0.3826     H
H        0.973   0.4268   0.6986     H
H       0.9732   0.3708   0.0444     H
C       0.9766    0.505   0.2514     C
C       0.9777   0.8366   0.2262     C
C       0.9806   0.3381   0.1655     C
H       0.9817   0.2869   0.8905     H
C       0.9828   0.7325   0.7671     C
H       0.9846    0.354   0.9289     H
C       0.9889   0.5418   0.8022     C
O       0.9912   0.8044   0.3017     O
C       0.9937   0.7831   0.6176     C
C       0.9958    0.324   0.0908     C
O       0.9997   0.7157    0.694     O
