data_I
_chemical_name_common  '/home/zhangsd/repos/MofS-CGCNN/ML/data/SSD/clean_cifs/DONKOI_clean'
_cell_length_a 16.71900
_cell_length_b 16.71900
_cell_length_c 24.59800
_cell_angle_alpha 90.00000
_cell_angle_beta  90.00000
_cell_angle_gamma 120.00000
_space_group_name_H-M_alt      'P 1'


loop_
_space_group_symop_operation_xyz
  'x, y, z' 

loop_
_atom_site_label
_atom_site_fract_x
_atom_site_fract_y
_atom_site_fract_z
_atom_site_type_symbol
C       0.0015   0.2183  0.04977     C
C       0.0017   0.6691  0.93103     C
C       0.0024   0.6794   0.4581     C
C        0.007   0.3039  0.05717     C
H       0.0093   0.4482  0.02147     H
H       0.0136   0.1129  0.36467     H
H       0.0222   0.8835  0.02193     H
H       0.0277   0.6388   0.3862     H
H       0.0294   0.7178  0.77353     H
C       0.0379   0.7753  0.78933     C
H       0.0389   0.8791   0.5465     H
H       0.0421   0.0842  0.31057     H
H       0.0421   0.9579  0.97723     H
C       0.0431   0.7671  0.85123     C
O       0.0458   0.6504   0.4931     O
C       0.0462   0.8292   0.5599     C
O       0.0487   0.7347  0.01979     O
H       0.0492   0.5511   0.4526     H
C       0.0497   0.7478  0.96303     C
H       0.0517   0.8331   0.5988     H
C       0.0521   0.4555  0.29927     C
H       0.0589   0.4784  0.26237     H
C       0.0616    0.131  0.33807     C
O        0.062   0.3756  0.29967     O
C       0.0694   0.9384  0.00473     C
O       0.0714   0.7276  0.12523     O
H       0.0715   0.1525  0.06447     H
C       0.0734   0.2083  0.07067     C
C       0.0791   0.3739  0.08737     C
H        0.081   0.9285  0.73113     H
C       0.0815   0.2213  0.31217     C
H       0.0815   0.4301  0.09307     H
H       0.0842   0.0421  0.68943     H
C       0.0882   0.8412  0.88523     C
C       0.0926   0.8342  0.94163     C
C       0.0934    0.609   0.4696     C
H        0.098   0.2659  0.34187     H
H       0.0993   0.9864  0.03133     H
H       0.1001   0.2178  0.20327     H
H       0.1007   0.8331   0.5445     H
H       0.1017   0.6543  0.02483     H
H       0.1129   0.0136  0.63533     H
H       0.1165   0.1387  0.35527     H
H       0.1177   0.8999  0.86993     H
C        0.118   0.7164  0.03563     C
H       0.1209   0.1598  0.87983     H
C        0.124   0.5313  0.33557     C
C       0.1274   0.8533  0.76623     C
C       0.1299   0.7264  0.09773     C
C        0.131   0.0616  0.66193     C
H       0.1338   0.4378  0.18467     H
H       0.1345   0.6492   0.4414     H
C       0.1349   0.9266  0.73733     C
O       0.1354   0.5959   0.5597     O
O       0.1365   0.6106  0.32877     O
H       0.1387   0.1165  0.64473     H
C       0.1398   0.9185  0.97883     C
C       0.1461   0.3584  0.10837     C
C       0.1467   0.2741  0.09957     C
C       0.1483   0.5913    0.511     C
H       0.1525   0.0715  0.93553     H
C       0.1588    0.247  0.21857     C
H       0.1598   0.1209  0.12017     H
O       0.1637   0.5093  0.37177     O
C       0.1658   0.2584  0.27497     C
H       0.1669   0.2186  0.93213     H
H       0.1669   0.2676  0.87783     H
H       0.1679    0.902  0.00853     H
C       0.1708    0.217  0.89323     C
H       0.1756   0.7593  0.01793     H
O       0.1993   0.7236  0.11725     O
C       0.2002   0.4696  0.17927     C
O        0.204    0.779  0.80393     O
O       0.2046   0.5698  0.49196     O
C       0.2083   0.0734  0.92933     C
C       0.2123   0.8539  0.77503     C
C       0.2168   0.9985  0.71643     C
C        0.217   0.1708  0.10677     C
O        0.217   0.6129  0.20367     O
H       0.2178   0.1001  0.79673     H
C       0.2183   0.0015  0.95023     C
H       0.2186   0.1669  0.06787     H
O        0.221    0.425  0.13727     O
C       0.2213   0.0815  0.68783     C
C       0.2247   0.2626  0.12267     C
H       0.2282   0.4652  0.21287     H
C       0.2329    0.276  0.18457     C
C       0.2341   0.5701  0.16697     C
H        0.237   0.7718  0.87953     H
Ni     0.23827  0.74368   0.1979    Ni
H       0.2407   0.4163  0.35127     H
C        0.247   0.1588  0.78143     C
C       0.2522   0.3019  0.29637     C
Ni     0.25632  0.49459  0.53123    Ni
C       0.2584   0.1658  0.72503     C
C       0.2626   0.2247  0.87733     C
O       0.2653    0.314  0.35313     O
H       0.2659    0.098  0.65813     H
H       0.2676   0.1669  0.12217     H
C       0.2694   0.7998  0.84593     C
O       0.2724   0.3438  0.45857     O
C       0.2736   0.4035  0.43107     C
C       0.2741   0.1467  0.90043     C
O       0.2743   0.6004  0.12257     O
C        0.276   0.2329  0.81543     C
O       0.2764   0.4757  0.45059     O
Ni     0.27748   0.5919  0.41717    Ni
H       0.2822   0.3116  0.10687     H
C       0.2836   0.4016  0.36897     C
C       0.2948   0.9209  0.75403     C
C       0.2969    0.993  0.72383     C
C       0.3019   0.2522  0.70363     C
C       0.3039    0.007  0.94283     C
H        0.304   0.8662  0.85133     H
H       0.3116   0.2822  0.89313     H
O       0.3136    0.938  0.96633     O
O        0.314   0.2653  0.64687     O
Ni     0.31442  0.72252  0.08383    Ni
C       0.3206    0.323  0.79143     C
C        0.323   0.3206  0.20857     C
O       0.3261   0.7257  0.78923     O
C       0.3309   0.3326  0.26437     C
C       0.3326   0.3309  0.73563     C
C        0.336   0.7659  0.83363     C
O       0.3438   0.2724  0.54143     O
O       0.3456   0.8363  0.03843     O
H       0.3457   0.4474  0.35817     H
H       0.3486   0.9185  0.75973     H
O       0.3496   0.3954  0.82643     O
H       0.3508   0.4853  0.77473     H
C       0.3584   0.1461  0.89163     C
H       0.3612   0.3889  0.71953     H
O       0.3652   0.7954  0.15863     O
C       0.3739   0.0791  0.91263     C
O       0.3756    0.062  0.70033     O
O       0.3871   0.6041    0.537     O
H       0.3889   0.3612  0.28047     H
O       0.3894   0.5259   0.6621     O
C        0.391   0.4844  0.80293     C
O       0.3954   0.3496  0.17357     O
O       0.3959    0.783  0.87033     O
O       0.3996   0.6739   0.4559     O
C       0.4016   0.2836  0.63103     C
C       0.4034   0.9479  0.96593     C
C       0.4035   0.2736  0.56893     C
O       0.4041   0.5395  0.89303     O
C       0.4073    0.876  0.00223     C
Ni      0.4081  0.68558   0.7505    Ni
C       0.4087    0.557  0.84433     C
H       0.4163   0.2407  0.64873     H
H       0.4195   0.9411  0.92903     H
O        0.425    0.221  0.86273     O
C       0.4299    0.664   0.5003     C
H       0.4301   0.0815  0.90693     H
O       0.4302   0.6348  0.82529     O
H       0.4378   0.1338  0.81533     H
H       0.4389   0.9907  0.68813     H
C        0.443   0.8517  0.17767     C
H       0.4474   0.3457  0.64183     H
H       0.4482   0.0093  0.97853     H
H       0.4489   0.4981  0.78593     H
C       0.4555   0.0521  0.70073     C
O       0.4605   0.8646  0.22637     O
H       0.4652   0.2282  0.78713     H
C       0.4687   0.5927   0.6689     C
C       0.4696   0.2002  0.82073     C
O       0.4741   0.8635  0.99543     O
O       0.4757   0.2764  0.54941     O
H       0.4784   0.0589  0.73763     H
C       0.4844    0.391  0.19707     C
H       0.4853   0.3508  0.22527     H
O       0.4907   0.6544   0.7051     O
Ni     0.49459  0.25632  0.46877    Ni
H       0.4981   0.4489  0.21407     H
H       0.5019   0.9508  0.11927     H
Ni     0.50541  0.76173  0.86456    Ni
O       0.5093   0.1637  0.62823     O
H       0.5147   0.8655  0.10807     H
C       0.5156   0.9066  0.13627     C
H       0.5216   0.5805   0.5957     H
O       0.5243   0.8007  0.78392     O
O       0.5259   0.3894   0.3379     O
C       0.5304   0.7306   0.5126     C
C       0.5313    0.124  0.66443     C
H       0.5348    0.763   0.5462     H
O       0.5395   0.4041  0.10697     O
C       0.5445   0.5966   0.6326     C
H       0.5511   0.0492   0.5474     H
H       0.5518   0.5611   0.3548     H
H       0.5526   0.8983   0.6915     H
C        0.557   0.4087  0.15567     C
H       0.5611   0.5518   0.6452     H
H       0.5622    0.696    0.518     H
O       0.5698   0.2046  0.50804     O
H       0.5699   0.6514   0.4264     H
C       0.5701   0.2341  0.83303     C
O        0.575    0.796   0.4706     O
H       0.5805   0.5216   0.4043     H
H       0.5837   0.8244   0.6846     H
C       0.5913   0.1483    0.489     C
Ni      0.5919  0.27748  0.58283    Ni
C       0.5927   0.4687   0.3311     C
O       0.5959   0.1354   0.4403     O
C       0.5965   0.8701   0.7644     C
C       0.5966   0.5445   0.3674     C
C       0.5984    0.882   0.7023     C
O       0.6004   0.2743  0.87743     O
O       0.6041   0.3871    0.463     O
O       0.6046   0.9542  0.15977     O
C        0.609   0.0934   0.5304     C
O       0.6106   0.1365  0.67123     O
H       0.6111   0.9723  0.05287     H
O       0.6129    0.217  0.79633     O
O       0.6244   0.6864    0.633     O
C       0.6261   0.7052   0.4207     C
O       0.6348   0.4302  0.17471     O
H       0.6388   0.0277   0.6138     H
C       0.6416   0.7877   0.4417     C
H       0.6492   0.1345   0.5586     H
O       0.6504   0.0458   0.5069     O
H       0.6514   0.5699   0.5736     H
H       0.6543   0.1017  0.97517     H
O       0.6544   0.4907   0.2949     O
O       0.6562   0.9286   0.7919     O
C        0.664   0.4299   0.4997     C
C       0.6674   0.9983   0.5977     C
C       0.6691   0.0017  0.06897     C
O       0.6739   0.3996   0.5441     O
C        0.677   0.9976  0.12477     C
C       0.6794   0.0024   0.5419     C
Ni     0.68558   0.4081   0.2495    Ni
O        0.686   0.9513  0.68646     O
O       0.6864   0.6244    0.367     O
H       0.6884   0.9706   0.4402     H
H        0.696   0.5622    0.482     H
C       0.6961   0.7031   0.3905     C
C       0.6981   0.9503   0.6297     C
C       0.7031   0.6961   0.6095     C
C       0.7052   0.6261   0.5793     C
C       0.7164    0.118  0.96437     C
H       0.7178   0.0294  0.22647     H
Ni     0.72252  0.31442  0.91617    Ni
O       0.7236   0.1993  0.88275     O
C        0.724   0.9569   0.5179     C
O       0.7257   0.3261  0.21077     O
C       0.7259   0.8726   0.4329     C
C       0.7264   0.1299  0.90227     C
O       0.7276   0.0714  0.87477     O
C       0.7306   0.5304   0.4874     C
H       0.7324   0.8993  0.21117     H
H       0.7341   0.8321   0.6752     H
O       0.7347   0.0487  0.98021     O
C       0.7374   0.9621    0.456     C
C       0.7416   0.9074   0.6083     C
Ni     0.74368  0.23827   0.8021    Ni
C       0.7478   0.0497  0.03697     C
C        0.753   0.9118   0.5519     C
H       0.7593   0.1756  0.98207     H
Ni     0.76173  0.50541  0.13544    Ni
H        0.763   0.5348   0.4538     H
C       0.7659    0.336  0.16637     C
C       0.7671   0.0431  0.14877     C
H       0.7718    0.237  0.12047     H
C       0.7753   0.0379  0.21067     C
C       0.7787   0.8602   0.6455     C
O        0.779    0.204  0.19607     O
H       0.7814   0.9483  0.26547     H
C       0.7817   0.7832   0.3831     C
H       0.7822   0.8823   0.5366     H
O        0.783   0.3959  0.12967     O
C        0.783   0.9538  0.22657     C
C       0.7832   0.7817   0.6169     C
C       0.7877   0.6416   0.5583     C
C       0.7917   0.8651    0.404     C
O       0.7954   0.3652  0.84137     O
O        0.796    0.575   0.5294     O
C       0.7998   0.2694  0.15407     C
O       0.8007   0.5243  0.21608     O
H       0.8244   0.5837   0.3154     H
C       0.8292   0.0462   0.4401     C
H       0.8321   0.7341   0.3248     H
H       0.8331   0.0517   0.4012     H
H       0.8331   0.1007   0.4555     H
C       0.8342   0.0926  0.05837     C
O       0.8363   0.3456  0.96157     O
H       0.8402   0.9611  0.21317     H
C       0.8412   0.0882  0.11477     C
H       0.8475    0.919   0.3978     H
C       0.8517    0.443  0.82233     C
C       0.8533   0.1274  0.23377     C
C       0.8539   0.2123  0.22497     C
C       0.8602   0.7787   0.3545     C
H       0.8613   0.9778   0.6886     H
O       0.8635   0.4741  0.00457     O
O       0.8646   0.4605  0.77363     O
C       0.8651   0.7917    0.596     C
H       0.8655   0.5147  0.89193     H
H       0.8662    0.304  0.14867     H
C        0.869   0.9306   0.6714     C
C       0.8701   0.5965   0.2356     C
C       0.8726   0.7259   0.5671     C
C        0.876   0.4073  0.99777     C
H       0.8791   0.0389   0.4535     H
C        0.882   0.5984   0.2977     C
H       0.8823   0.7822   0.4634     H
H       0.8835   0.0222  0.97807     H
H       0.8871   0.9007    0.698     H
H       0.8983   0.5526   0.3085     H
H       0.8993   0.7324  0.78883     H
H       0.8999   0.1177  0.13007     H
H       0.9007   0.8871    0.302     H
H        0.902   0.1679  0.99147     H
C       0.9066   0.5156  0.86373     C
C       0.9074   0.7416   0.3917     C
C       0.9118    0.753   0.4481     C
H       0.9158   0.9579   0.6439     H
C       0.9185   0.1398  0.02117     C
H       0.9185   0.3486  0.24027     H
H        0.919   0.8475   0.6022     H
C       0.9209   0.2948  0.24597     C
C       0.9266   0.1349  0.26267     C
H       0.9285    0.081  0.26887     H
O       0.9286   0.6562   0.2081     O
C       0.9306    0.869   0.3286     C
O        0.938   0.3136  0.03367     O
C       0.9384   0.0694  0.99527     C
H       0.9411   0.4195  0.07097     H
C       0.9479   0.4034  0.03407     C
H       0.9483   0.7814  0.73453     H
C       0.9503   0.6981   0.3703     C
H       0.9508   0.5019  0.88073     H
O       0.9513    0.686  0.31354     O
C       0.9538    0.783  0.77343     C
O       0.9542   0.6046  0.84023     O
C       0.9569    0.724   0.4821     C
H       0.9579   0.0421  0.02277     H
H       0.9579   0.9158   0.3561     H
H       0.9611   0.8402  0.78683     H
C       0.9621   0.7374    0.544     C
H       0.9706   0.6884   0.5598     H
H       0.9723   0.6111  0.94713     H
H       0.9778   0.8613   0.3114     H
H       0.9864   0.0993  0.96867     H
H       0.9907   0.4389  0.31187     H
C        0.993   0.2969  0.27617     C
C       0.9976    0.677  0.87523     C
C       0.9983   0.6674   0.4023     C
C       0.9985   0.2168  0.28357     C
