data_I
_chemical_name_common  '/home/zhangsd/repos/MofS-CGCNN/ML/data/SSD/clean_cifs/DOQRUY_clean'
_cell_length_a 25.65500
_cell_length_b 28.56100
_cell_length_c 32.00100
_cell_angle_alpha 90.00000
_cell_angle_beta  90.00000
_cell_angle_gamma 90.00000
_space_group_name_H-M_alt      'P 1'


loop_
_space_group_symop_operation_xyz
  'x, y, z' 

loop_
_atom_site_label
_atom_site_fract_x
_atom_site_fract_y
_atom_site_fract_z
_atom_site_type_symbol
C        0.004  0.03311  0.67447     C
C        0.004  0.21689  0.57553     C
C        0.004  0.53311  0.17447     C
C        0.004  0.71689  0.07553     C
Co     0.00733  0.37025   0.5345    Co
Co     0.00733  0.37975   0.2155    Co
Co     0.00733  0.87025   0.0345    Co
Co     0.00733  0.87975   0.7155    Co
O      0.00781  0.06591  0.94631     O
O      0.00781  0.18409  0.30369     O
O      0.00781  0.56591  0.44631     O
O      0.00781  0.68409  0.80369     O
C      0.00789   0.0811  0.66627     C
C      0.00789   0.1689  0.58373     C
C      0.00789   0.5811  0.16627     C
C      0.00789   0.6689  0.08373     C
O       0.0092  0.06005  0.30817     O
O       0.0092  0.18995  0.94183     O
O       0.0092  0.56005  0.80817     O
O       0.0092  0.68995  0.44183     O
C       0.0134  0.34931  0.87987     C
C       0.0134  0.40069  0.87013     C
C       0.0134  0.84931  0.37987     C
C       0.0134  0.90069  0.37013     C
C      0.01533  0.28107  0.30379     C
C      0.01533  0.46893  0.44621     C
C      0.01533  0.78107  0.80379     C
C      0.01533  0.96893  0.94621     C
H       0.0178    0.021   0.6998     H
H       0.0178    0.229   0.5502     H
H       0.0178    0.521   0.1998     H
H       0.0178    0.729   0.0502     H
H       0.0183   0.0173   0.0547     H
H       0.0183   0.2327   0.1953     H
H       0.0183   0.5173   0.5547     H
H       0.0183   0.7327   0.6953     H
C       0.0197  0.25289  0.89623     C
C       0.0197  0.49711  0.85377     C
C       0.0197  0.75289  0.39623     C
C       0.0197  0.99711  0.35377     C
C       0.0201  0.32948  0.30285     C
C       0.0201  0.42052  0.44715     C
C       0.0201  0.82948  0.80285     C
C       0.0201  0.92052  0.94715     C
C       0.0221  0.04901   0.3444     C
C       0.0221  0.20099   0.9056     C
C       0.0221  0.54901   0.8444     C
C       0.0221  0.70099   0.4056     C
C      0.02997  0.10719  0.04901     C
C      0.02997  0.14281  0.20099     C
C      0.02997  0.60719  0.54901     C
C      0.02997  0.64281  0.70099     C
O      0.03279  0.11422  0.23188     O
O      0.03279  0.13578  0.01812     O
O      0.03279  0.61422  0.73188     O
O      0.03279  0.63578  0.51812     O
O       0.0356  0.07626  0.37222     O
O       0.0356  0.17374  0.87778     O
O       0.0356  0.57626  0.87222     O
O       0.0356  0.67374  0.37778     O
C       0.0383    0.319   0.8525     C
C       0.0383    0.431   0.8975     C
C       0.0383    0.819   0.3525     C
C       0.0383    0.931   0.3975     C
C       0.0409   0.1092   0.6964     C
C       0.0409   0.1408   0.5536     C
C       0.0409   0.6092   0.1964     C
C       0.0409   0.6408   0.0536     C
C        0.041   0.2718   0.8608     C
C        0.041   0.4782   0.8892     C
C        0.041   0.7718   0.3608     C
C        0.041   0.9782   0.3892     C
O       0.0411    0.101   0.7324     O
O       0.0411    0.149   0.5176     O
O       0.0411    0.601   0.2324     O
O       0.0411    0.649   0.0176     O
H       0.0437   0.3335   0.3935     H
H       0.0437   0.4165   0.3565     H
H       0.0437   0.8335   0.8935     H
H       0.0437   0.9165   0.8565     H
H       0.0537    0.331   0.8278     H
H       0.0537    0.419   0.9222     H
H       0.0537    0.831   0.3278     H
H       0.0537    0.919   0.4222     H
C       0.0544  0.05019  0.94894     C
C       0.0544  0.19981  0.30106     C
C       0.0544  0.55019  0.44894     C
C       0.0544  0.69981  0.80106     C
H        0.058   0.2518   0.8414     H
H        0.058   0.4982   0.9086     H
H        0.058   0.7518   0.3414     H
H        0.058   0.9982   0.4086     H
H       0.0583   0.2535   0.3937     H
H       0.0583   0.4965   0.3563     H
H       0.0583   0.7535   0.8937     H
H       0.0583   0.9965   0.8563     H
C      0.05936  0.25249  0.30348     C
C      0.05936  0.49751  0.44652     C
C      0.05936  0.75249  0.80348     C
C      0.05936  0.99751  0.94652     C
C        0.061   0.3196  0.41655     C
C        0.061   0.4304  0.33345     C
C        0.061   0.8196  0.91655     C
C        0.061   0.9304  0.83345     C
O      0.06653  0.09996  0.07255     O
O      0.06653  0.15004  0.17745     O
O      0.06653  0.59996  0.57255     O
O      0.06653  0.65004  0.67745     O
C       0.0694  0.35018  0.30169     C
C       0.0694  0.39982  0.44831     C
C       0.0694  0.85018  0.80169     C
C       0.0694  0.89982  0.94831     C
C       0.0701    0.272  0.41646     C
C       0.0701    0.478  0.33354     C
C       0.0701    0.772  0.91646     C
C       0.0701    0.978  0.83354     C
O       0.0717    0.113   0.5675     O
O       0.0717    0.137   0.6825     O
O       0.0717    0.613   0.0675     O
O       0.0717    0.637   0.1825     O
C       0.0768  0.34768  0.44968     C
C       0.0768  0.40232  0.30032     C
C       0.0768  0.84768  0.94968     C
C       0.0768  0.90232  0.80032     C
O      0.08065  0.07669  0.82363     O
O      0.08065  0.17331  0.42637     O
O      0.08065  0.57669  0.32363     O
O      0.08065  0.67331  0.92637     O
O      0.08279  0.37327  0.21014     O
O      0.08279  0.37673  0.53986     O
O      0.08279  0.87327  0.71014     O
O      0.08279  0.87673  0.03986     O
O      0.08491  0.35454  0.71778     O
O      0.08491  0.39546  0.03222     O
O      0.08491  0.85454  0.21778     O
O      0.08491  0.89546  0.53222     O
O      0.09385  0.07427  0.95381     O
O      0.09385  0.17573  0.29619     O
O      0.09385  0.57427  0.45381     O
O      0.09385  0.67573  0.79619     O
C       0.0967  0.25066  0.44981     C
C       0.0967  0.49934  0.30019     C
C       0.0967  0.75066  0.94981     C
C       0.0967  0.99934  0.80019     C
C       0.1029  0.32693  0.48298     C
C       0.1029  0.42307  0.26702     C
C       0.1029  0.82693  0.98298     C
C       0.1029  0.92307  0.76702     C
H       0.1032   0.3352   0.9455     H
H       0.1032   0.4148   0.8045     H
H       0.1032   0.8352   0.4455     H
H       0.1032   0.9148   0.3045     H
C       0.1051   0.0512  0.79894     C
C       0.1051   0.1988  0.45106     C
C       0.1051   0.5512  0.29894     C
C       0.1051   0.6988  0.95106     C
C       0.1085  0.27301  0.30362     C
C       0.1085  0.47699  0.44638     C
C       0.1085  0.77301  0.80362     C
C       0.1085  0.97699  0.94638     C
O       0.1111  0.06537  0.47728     O
O       0.1111  0.18463  0.77272     O
H       0.1111   0.2539   0.9461     H
H       0.1111   0.4961   0.8039     H
O       0.1111  0.56537  0.97728     O
O       0.1111  0.68463  0.27272     O
H       0.1111   0.7539   0.4461     H
H       0.1111   0.9961   0.3039     H
C       0.1132  0.32145  0.30341     C
C       0.1132  0.42855  0.44659     C
C       0.1132  0.82145  0.80341     C
C       0.1132  0.92855  0.94659     C
C       0.1136   0.2785  0.48286     C
C       0.1136   0.4715  0.26714     C
C       0.1136   0.7785  0.98286     C
C       0.1136   0.9715  0.76714     C
H       0.1176   0.2649   0.7446     H
H       0.1176   0.4851   0.0054     H
H       0.1176   0.7649   0.2446     H
H       0.1176   0.9851   0.5054     H
C        0.119   0.3545  0.52071     C
C        0.119   0.3955  0.22929     C
C        0.119   0.8545  0.02071     C
C        0.119   0.8955  0.72929     C
Na       0.125    0.125  0.00534    Na
Na       0.125    0.125    0.125    Na
Na       0.125    0.125  0.24466    Na
Co       0.125    0.125  0.50691    Co
Na       0.125    0.125    0.625    Na
Co       0.125    0.125  0.74309    Co
Co       0.125    0.625  0.00691    Co
Na       0.125    0.625    0.125    Na
Co       0.125    0.625  0.24309    Co
Na       0.125    0.625  0.50534    Na
Na       0.125    0.625    0.625    Na
Na       0.125    0.625  0.74466    Na
C        0.131   0.3545  0.72929     C
C        0.131   0.3955  0.02071     C
C        0.131   0.8545  0.22929     C
C        0.131   0.8955  0.52071     C
H       0.1324   0.2649   0.5054     H
H       0.1324   0.4851   0.2446     H
H       0.1324   0.7649   0.0054     H
H       0.1324   0.9851   0.7446     H
C       0.1364   0.2785  0.76714     C
C       0.1364   0.4715  0.98286     C
C       0.1364   0.7785  0.26714     C
C       0.1364   0.9715  0.48286     C
C       0.1368  0.32145  0.94659     C
C       0.1368  0.42855  0.80341     C
C       0.1368  0.82145  0.44659     C
C       0.1368  0.92855  0.30341     C
O       0.1389  0.06537  0.77272     O
O       0.1389  0.18463  0.47728     O
H       0.1389   0.2539   0.3039     H
H       0.1389   0.4961   0.4461     H
O       0.1389  0.56537  0.27272     O
O       0.1389  0.68463  0.97728     O
H       0.1389   0.7539   0.8039     H
H       0.1389   0.9961   0.9461     H
C       0.1415  0.27301  0.94638     C
C       0.1415  0.47699  0.80362     C
C       0.1415  0.77301  0.44638     C
C       0.1415  0.97699  0.30362     C
C       0.1449   0.0512  0.45106     C
C       0.1449   0.1988  0.79894     C
C       0.1449   0.5512  0.95106     C
C       0.1449   0.6988  0.29894     C
H       0.1468   0.3352   0.3045     H
H       0.1468   0.4148   0.4455     H
H       0.1468   0.8352   0.8045     H
H       0.1468   0.9148   0.9455     H
C       0.1471  0.32693  0.76702     C
C       0.1471  0.42307  0.98298     C
C       0.1471  0.82693  0.26702     C
C       0.1471  0.92307  0.48298     C
C       0.1533  0.25066  0.80019     C
C       0.1533  0.49934  0.94981     C
C       0.1533  0.75066  0.30019     C
C       0.1533  0.99934  0.44981     C
O      0.15615  0.07427  0.29619     O
O      0.15615  0.17573  0.95381     O
O      0.15615  0.57427  0.79619     O
O      0.15615  0.67573  0.45381     O
O      0.16509  0.35454  0.53222     O
O      0.16509  0.39546  0.21778     O
O      0.16509  0.85454  0.03222     O
O      0.16509  0.89546  0.71778     O
O      0.16721  0.37327  0.03986     O
O      0.16721  0.37673  0.71014     O
O      0.16721  0.87327  0.53986     O
O      0.16721  0.87673  0.21014     O
O      0.16935  0.07669  0.42637     O
O      0.16935  0.17331  0.82363     O
O      0.16935  0.57669  0.92637     O
O      0.16935  0.67331  0.32363     O
C       0.1732  0.34768  0.80032     C
C       0.1732  0.40232  0.94968     C
C       0.1732  0.84768  0.30032     C
C       0.1732  0.90232  0.44968     C
O       0.1783    0.113   0.6825     O
O       0.1783    0.137   0.5675     O
O       0.1783    0.613   0.1825     O
O       0.1783    0.637   0.0675     O
C       0.1799    0.272  0.83354     C
C       0.1799    0.478  0.91646     C
C       0.1799    0.772  0.33354     C
C       0.1799    0.978  0.41646     C
C       0.1806  0.35018  0.94831     C
C       0.1806  0.39982  0.80169     C
C       0.1806  0.85018  0.44831     C
C       0.1806  0.89982  0.30169     C
O      0.18347  0.09996  0.17745     O
O      0.18347  0.15004  0.07255     O
O      0.18347  0.59996  0.67745     O
O      0.18347  0.65004  0.57255     O
C        0.189   0.3196  0.83345     C
C        0.189   0.4304  0.91655     C
C        0.189   0.8196  0.33345     C
C        0.189   0.9304  0.41655     C
C      0.19064  0.25249  0.94652     C
C      0.19064  0.49751  0.80348     C
C      0.19064  0.75249  0.44652     C
C      0.19064  0.99751  0.30348     C
H       0.1917   0.2535   0.8563     H
H       0.1917   0.4965   0.8937     H
H       0.1917   0.7535   0.3563     H
H       0.1917   0.9965   0.3937     H
H        0.192   0.2518   0.4086     H
H        0.192   0.4982   0.3414     H
H        0.192   0.7518   0.9086     H
H        0.192   0.9982   0.8414     H
C       0.1956  0.05019  0.30106     C
C       0.1956  0.19981  0.94894     C
C       0.1956  0.55019  0.80106     C
C       0.1956  0.69981  0.44894     C
H       0.1963    0.331   0.4222     H
H       0.1963    0.419   0.3278     H
H       0.1963    0.831   0.9222     H
H       0.1963    0.919   0.8278     H
H       0.2063   0.3335   0.8565     H
H       0.2063   0.4165   0.8935     H
H       0.2063   0.8335   0.3565     H
H       0.2063   0.9165   0.3935     H
O       0.2089    0.101   0.5176     O
O       0.2089    0.149   0.7324     O
O       0.2089    0.601   0.0176     O
O       0.2089    0.649   0.2324     O
C        0.209   0.2718   0.3892     C
C        0.209   0.4782   0.3608     C
C        0.209   0.7718   0.8892     C
C        0.209   0.9782   0.8608     C
C       0.2091   0.1092   0.5536     C
C       0.2091   0.1408   0.6964     C
C       0.2091   0.6092   0.0536     C
C       0.2091   0.6408   0.1964     C
C       0.2117    0.319   0.3975     C
C       0.2117    0.431   0.3525     C
C       0.2117    0.819   0.8975     C
C       0.2117    0.931   0.8525     C
O       0.2144  0.07626  0.87778     O
O       0.2144  0.17374  0.37222     O
O       0.2144  0.57626  0.37778     O
O       0.2144  0.67374  0.87222     O
O      0.21721  0.11422  0.01812     O
O      0.21721  0.13578  0.23188     O
O      0.21721  0.61422  0.51812     O
O      0.21721  0.63578  0.73188     O
C      0.22003  0.10719  0.20099     C
C      0.22003  0.14281  0.04901     C
C      0.22003  0.60719  0.70099     C
C      0.22003  0.64281  0.54901     C
C       0.2279  0.04901   0.9056     C
C       0.2279  0.20099   0.3444     C
C       0.2279  0.54901   0.4056     C
C       0.2279  0.70099   0.8444     C
C       0.2299  0.32948  0.94715     C
C       0.2299  0.42052  0.80285     C
C       0.2299  0.82948  0.44715     C
C       0.2299  0.92052  0.30285     C
C       0.2303  0.25289  0.35377     C
C       0.2303  0.49711  0.39623     C
C       0.2303  0.75289  0.85377     C
C       0.2303  0.99711  0.89623     C
H       0.2317   0.0173   0.1953     H
H       0.2317   0.2327   0.0547     H
H       0.2317   0.5173   0.6953     H
H       0.2317   0.7327   0.5547     H
H       0.2322    0.021   0.5502     H
H       0.2322    0.229   0.6998     H
H       0.2322    0.521   0.0502     H
H       0.2322    0.729   0.1998     H
C      0.23467  0.28107  0.94621     C
C      0.23467  0.46893  0.80379     C
C      0.23467  0.78107  0.44621     C
C      0.23467  0.96893  0.30379     C
C       0.2366  0.34931  0.37013     C
C       0.2366  0.40069  0.37987     C
C       0.2366  0.84931  0.87013     C
C       0.2366  0.90069  0.87987     C
O       0.2408  0.06005  0.94183     O
O       0.2408  0.18995  0.30817     O
O       0.2408  0.56005  0.44183     O
O       0.2408  0.68995  0.80817     O
C      0.24211   0.0811  0.58373     C
C      0.24211   0.1689  0.66627     C
C      0.24211   0.5811  0.08373     C
C      0.24211   0.6689  0.16627     C
O      0.24219  0.06591  0.30369     O
O      0.24219  0.18409  0.94631     O
O      0.24219  0.56591  0.80369     O
O      0.24219  0.68409  0.44631     O
Co     0.24267  0.37025   0.7155    Co
Co     0.24267  0.37975   0.0345    Co
Co     0.24267  0.87025   0.2155    Co
Co     0.24267  0.87975   0.5345    Co
C        0.246  0.03311  0.57553     C
C        0.246  0.21689  0.67447     C
C        0.246  0.53311  0.07553     C
C        0.246  0.71689  0.17447     C
C        0.254  0.28311  0.32553     C
C        0.254  0.46689  0.42447     C
C        0.254  0.78311  0.82553     C
C        0.254  0.96689  0.92447     C
Co     0.25733  0.12025   0.9655    Co
Co     0.25733  0.12975   0.2845    Co
Co     0.25733  0.62025   0.4655    Co
Co     0.25733  0.62975   0.7845    Co
O      0.25781  0.31591  0.05369     O
O      0.25781  0.43409  0.69631     O
O      0.25781  0.81591  0.55369     O
O      0.25781  0.93409  0.19631     O
C      0.25789   0.3311  0.33373     C
C      0.25789   0.4189  0.41627     C
C      0.25789   0.8311  0.83373     C
C      0.25789   0.9189  0.91627     C
O       0.2592  0.31005  0.69183     O
O       0.2592  0.43995  0.05817     O
O       0.2592  0.81005  0.19183     O
O       0.2592  0.93995  0.55817     O
C       0.2634  0.09931  0.62013     C
C       0.2634  0.15069  0.62987     C
C       0.2634  0.59931  0.12013     C
C       0.2634  0.65069  0.12987     C
C      0.26533  0.03107  0.19621     C
C      0.26533  0.21893  0.05379     C
C      0.26533  0.53107  0.69621     C
C      0.26533  0.71893  0.55379     C
H       0.2678    0.271   0.3002     H
H       0.2678    0.479   0.4498     H
H       0.2678    0.771   0.8002     H
H       0.2678    0.979   0.9498     H
H       0.2683   0.2673   0.9453     H
H       0.2683   0.4827   0.8047     H
H       0.2683   0.7673   0.4453     H
H       0.2683   0.9827   0.3047     H
C       0.2697  0.00289  0.60377     C
C       0.2697  0.24711  0.64623     C
C       0.2697  0.50289  0.10377     C
C       0.2697  0.74711  0.14623     C
C       0.2701  0.07948  0.19715     C
C       0.2701  0.17052  0.05285     C
C       0.2701  0.57948  0.69715     C
C       0.2701  0.67052  0.55285     C
C       0.2721  0.29901   0.6556     C
C       0.2721  0.45099   0.0944     C
C       0.2721  0.79901   0.1556     C
C       0.2721  0.95099   0.5944     C
C      0.27997  0.35719  0.95099     C
C      0.27997  0.39281  0.79901     C
C      0.27997  0.85719  0.45099     C
C      0.27997  0.89281  0.29901     C
O      0.28279  0.36422  0.76812     O
O      0.28279  0.38578  0.98188     O
O      0.28279  0.86422  0.26812     O
O      0.28279  0.88578  0.48188     O
O       0.2856  0.32626  0.62778     O
O       0.2856  0.42374  0.12222     O
O       0.2856  0.82626  0.12778     O
O       0.2856  0.92374  0.62222     O
C       0.2883    0.069   0.6475     C
C       0.2883    0.181   0.6025     C
C       0.2883    0.569   0.1475     C
C       0.2883    0.681   0.1025     C
C       0.2909   0.3592   0.3036     C
C       0.2909   0.3908   0.4464     C
C       0.2909   0.8592   0.8036     C
C       0.2909   0.8908   0.9464     C
C        0.291   0.0218   0.6392     C
C        0.291   0.2282   0.6108     C
C        0.291   0.5218   0.1392     C
C        0.291   0.7282   0.1108     C
O       0.2911    0.351   0.2676     O
O       0.2911    0.399   0.4824     O
O       0.2911    0.851   0.7676     O
O       0.2911    0.899   0.9824     O
H       0.2937   0.0835   0.1065     H
H       0.2937   0.1665   0.1435     H
H       0.2937   0.5835   0.6065     H
H       0.2937   0.6665   0.6435     H
H       0.3037    0.081   0.6722     H
H       0.3037    0.169   0.5778     H
H       0.3037    0.581   0.1722     H
H       0.3037    0.669   0.0778     H
C       0.3044  0.30019  0.05106     C
C       0.3044  0.44981  0.69894     C
C       0.3044  0.80019  0.55106     C
C       0.3044  0.94981  0.19894     C
H        0.308   0.0018   0.6586     H
H        0.308   0.2482   0.5914     H
H        0.308   0.5018   0.1586     H
H        0.308   0.7482   0.0914     H
H       0.3083   0.0035   0.1063     H
H       0.3083   0.2465   0.1437     H
H       0.3083   0.5035   0.6063     H
H       0.3083   0.7465   0.6437     H
C      0.30936  0.00249  0.19652     C
C      0.30936  0.24751  0.05348     C
C      0.30936  0.50249  0.69652     C
C      0.30936  0.74751  0.55348     C
C        0.311   0.0696  0.08345     C
C        0.311   0.1804  0.16655     C
C        0.311   0.5696  0.58345     C
C        0.311   0.6804  0.66655     C
O      0.31653  0.34996  0.92745     O
O      0.31653  0.40004  0.82255     O
O      0.31653  0.84996  0.42745     O
O      0.31653  0.90004  0.32255     O
C       0.3194  0.10018  0.19831     C
C       0.3194  0.14982  0.05169     C
C       0.3194  0.60018  0.69831     C
C       0.3194  0.64982  0.55169     C
C       0.3201    0.022  0.08354     C
C       0.3201    0.228  0.16646     C
C       0.3201    0.522  0.58354     C
C       0.3201    0.728  0.66646     C
O       0.3217    0.363   0.4325     O
O       0.3217    0.387   0.3175     O
O       0.3217    0.863   0.9325     O
O       0.3217    0.887   0.8175     O
C       0.3268  0.09768  0.05032     C
C       0.3268  0.15232  0.19968     C
C       0.3268  0.59768  0.55032     C
C       0.3268  0.65232  0.69968     C
O      0.33065  0.32669  0.17637     O
O      0.33065  0.42331  0.57363     O
O      0.33065  0.82669  0.67637     O
O      0.33065  0.92331  0.07363     O
O      0.33279  0.12327  0.28986     O
O      0.33279  0.12673  0.96014     O
O      0.33279  0.62327  0.78986     O
O      0.33279  0.62673  0.46014     O
O      0.33491  0.10454  0.78222     O
O      0.33491  0.14546  0.46778     O
O      0.33491  0.60454  0.28222     O
O      0.33491  0.64546  0.96778     O
O      0.34385  0.32427  0.04619     O
O      0.34385  0.42573  0.70381     O
O      0.34385  0.82427  0.54619     O
O      0.34385  0.92573  0.20381     O
C       0.3467  0.00066  0.05019     C
C       0.3467  0.24934  0.19981     C
C       0.3467  0.50066  0.55019     C
C       0.3467  0.74934  0.69981     C
C       0.3529  0.07693  0.01702     C
C       0.3529  0.17307  0.23298     C
C       0.3529  0.57693  0.51702     C
C       0.3529  0.67307  0.73298     C
H       0.3532   0.0852   0.5545     H
H       0.3532   0.1648   0.6955     H
H       0.3532   0.5852   0.0545     H
H       0.3532   0.6648   0.1955     H
C       0.3551   0.3012  0.20106     C
C       0.3551   0.4488  0.54894     C
C       0.3551   0.8012  0.70106     C
C       0.3551   0.9488  0.04894     C
C       0.3585  0.02301  0.19638     C
C       0.3585  0.22699  0.05362     C
C       0.3585  0.52301  0.69638     C
C       0.3585  0.72699  0.55362     C
H       0.3611   0.0039   0.5539     H
H       0.3611   0.2461   0.6961     H
O       0.3611  0.31537  0.52272     O
O       0.3611  0.43463  0.22728     O
H       0.3611   0.5039   0.0539     H
H       0.3611   0.7461   0.1961     H
O       0.3611  0.81537  0.02272     O
O       0.3611  0.93463  0.72728     O
C       0.3632  0.07145  0.19659     C
C       0.3632  0.17855  0.05341     C
C       0.3632  0.57145  0.69659     C
C       0.3632  0.67855  0.55341     C
C       0.3636   0.0285  0.01714     C
C       0.3636   0.2215  0.23286     C
C       0.3636   0.5285  0.51714     C
C       0.3636   0.7215  0.73286     C
H       0.3676   0.0149   0.7554     H
H       0.3676   0.2351   0.4946     H
H       0.3676   0.5149   0.2554     H
H       0.3676   0.7351   0.9946     H
C        0.369   0.1045  0.97929     C
C        0.369   0.1455  0.27071     C
C        0.369   0.6045  0.47929     C
C        0.369   0.6455  0.77071     C
Co       0.375    0.375  0.25691    Co
Na       0.375    0.375    0.375    Na
Co       0.375    0.375  0.49309    Co
Na       0.375    0.375  0.75534    Na
Na       0.375    0.375    0.875    Na
Na       0.375    0.375  0.99466    Na
Na       0.375    0.875  0.25534    Na
Na       0.375    0.875    0.375    Na
Na       0.375    0.875  0.49466    Na
Co       0.375    0.875  0.75691    Co
Na       0.375    0.875    0.875    Na
Co       0.375    0.875  0.99309    Co
C        0.381   0.1045  0.77071     C
C        0.381   0.1455  0.47929     C
C        0.381   0.6045  0.27071     C
C        0.381   0.6455  0.97929     C
H       0.3824   0.0149   0.9946     H
H       0.3824   0.2351   0.2554     H
H       0.3824   0.5149   0.4946     H
H       0.3824   0.7351   0.7554     H
C       0.3864   0.0285  0.73286     C
C       0.3864   0.2215  0.51714     C
C       0.3864   0.5285  0.23286     C
C       0.3864   0.7215  0.01714     C
C       0.3868  0.07145  0.55341     C
C       0.3868  0.17855  0.69659     C
C       0.3868  0.57145  0.05341     C
C       0.3868  0.67855  0.19659     C
H       0.3889   0.0039   0.1961     H
H       0.3889   0.2461   0.0539     H
O       0.3889  0.31537  0.22728     O
O       0.3889  0.43463  0.52272     O
H       0.3889   0.5039   0.6961     H
H       0.3889   0.7461   0.5539     H
O       0.3889  0.81537  0.72728     O
O       0.3889  0.93463  0.02272     O
C       0.3915  0.02301  0.55362     C
C       0.3915  0.22699  0.69638     C
C       0.3915  0.52301  0.05362     C
C       0.3915  0.72699  0.19638     C
C       0.3949   0.3012  0.54894     C
C       0.3949   0.4488  0.20106     C
C       0.3949   0.8012  0.04894     C
C       0.3949   0.9488  0.70106     C
H       0.3968   0.0852   0.1955     H
H       0.3968   0.1648   0.0545     H
H       0.3968   0.5852   0.6955     H
H       0.3968   0.6648   0.5545     H
C       0.3971  0.07693  0.73298     C
C       0.3971  0.17307  0.51702     C
C       0.3971  0.57693  0.23298     C
C       0.3971  0.67307  0.01702     C
C       0.4033  0.00066  0.69981     C
C       0.4033  0.24934  0.55019     C
C       0.4033  0.50066  0.19981     C
C       0.4033  0.74934  0.05019     C
O      0.40615  0.32427  0.70381     O
O      0.40615  0.42573  0.04619     O
O      0.40615  0.82427  0.20381     O
O      0.40615  0.92573  0.54619     O
O      0.41509  0.10454  0.96778     O
O      0.41509  0.14546  0.28222     O
O      0.41509  0.60454  0.46778     O
O      0.41509  0.64546  0.78222     O
O      0.41721  0.12327  0.46014     O
O      0.41721  0.12673  0.78986     O
O      0.41721  0.62327  0.96014     O
O      0.41721  0.62673  0.28986     O
O      0.41935  0.32669  0.57363     O
O      0.41935  0.42331  0.17637     O
O      0.41935  0.82669  0.07363     O
O      0.41935  0.92331  0.67637     O
C       0.4232  0.09768  0.69968     C
C       0.4232  0.15232  0.55032     C
C       0.4232  0.59768  0.19968     C
C       0.4232  0.65232  0.05032     C
O       0.4283    0.363   0.3175     O
O       0.4283    0.387   0.4325     O
O       0.4283    0.863   0.8175     O
O       0.4283    0.887   0.9325     O
C       0.4299    0.022  0.66646     C
C       0.4299    0.228  0.58354     C
C       0.4299    0.522  0.16646     C
C       0.4299    0.728  0.08354     C
C       0.4306  0.10018  0.55169     C
C       0.4306  0.14982  0.69831     C
C       0.4306  0.60018  0.05169     C
C       0.4306  0.64982  0.19831     C
O      0.43347  0.34996  0.82255     O
O      0.43347  0.40004  0.92745     O
O      0.43347  0.84996  0.32255     O
O      0.43347  0.90004  0.42745     O
C        0.439   0.0696  0.66655     C
C        0.439   0.1804  0.58345     C
C        0.439   0.5696  0.16655     C
C        0.439   0.6804  0.08345     C
C      0.44064  0.00249  0.55348     C
C      0.44064  0.24751  0.69652     C
C      0.44064  0.50249  0.05348     C
C      0.44064  0.74751  0.19652     C
H       0.4417   0.0035   0.6437     H
H       0.4417   0.2465   0.6063     H
H       0.4417   0.5035   0.1437     H
H       0.4417   0.7465   0.1063     H
H        0.442   0.0018   0.0914     H
H        0.442   0.2482   0.1586     H
H        0.442   0.5018   0.5914     H
H        0.442   0.7482   0.6586     H
C       0.4456  0.30019  0.69894     C
C       0.4456  0.44981  0.05106     C
C       0.4456  0.80019  0.19894     C
C       0.4456  0.94981  0.55106     C
H       0.4463    0.081   0.0778     H
H       0.4463    0.169   0.1722     H
H       0.4463    0.581   0.5778     H
H       0.4463    0.669   0.6722     H
H       0.4563   0.0835   0.6435     H
H       0.4563   0.1665   0.6065     H
H       0.4563   0.5835   0.1435     H
H       0.4563   0.6665   0.1065     H
O       0.4589    0.351   0.4824     O
O       0.4589    0.399   0.2676     O
O       0.4589    0.851   0.9824     O
O       0.4589    0.899   0.7676     O
C        0.459   0.0218   0.1108     C
C        0.459   0.2282   0.1392     C
C        0.459   0.5218   0.6108     C
C        0.459   0.7282   0.6392     C
C       0.4591   0.3592   0.4464     C
C       0.4591   0.3908   0.3036     C
C       0.4591   0.8592   0.9464     C
C       0.4591   0.8908   0.8036     C
C       0.4617    0.069   0.1025     C
C       0.4617    0.181   0.1475     C
C       0.4617    0.569   0.6025     C
C       0.4617    0.681   0.6475     C
O       0.4644  0.32626  0.12222     O
O       0.4644  0.42374  0.62778     O
O       0.4644  0.82626  0.62222     O
O       0.4644  0.92374  0.12778     O
O      0.46721  0.36422  0.98188     O
O      0.46721  0.38578  0.76812     O
O      0.46721  0.86422  0.48188     O
O      0.46721  0.88578  0.26812     O
C      0.47003  0.35719  0.79901     C
C      0.47003  0.39281  0.95099     C
C      0.47003  0.85719  0.29901     C
C      0.47003  0.89281  0.45099     C
C       0.4779  0.29901   0.0944     C
C       0.4779  0.45099   0.6556     C
C       0.4779  0.79901   0.5944     C
C       0.4779  0.95099   0.1556     C
C       0.4799  0.07948  0.55285     C
C       0.4799  0.17052  0.69715     C
C       0.4799  0.57948  0.05285     C
C       0.4799  0.67052  0.19715     C
C       0.4803  0.00289  0.14623     C
C       0.4803  0.24711  0.10377     C
C       0.4803  0.50289  0.64623     C
C       0.4803  0.74711  0.60377     C
H       0.4817   0.2673   0.8047     H
H       0.4817   0.4827   0.9453     H
H       0.4817   0.7673   0.3047     H
H       0.4817   0.9827   0.4453     H
H       0.4822    0.271   0.4498     H
H       0.4822    0.479   0.3002     H
H       0.4822    0.771   0.9498     H
H       0.4822    0.979   0.8002     H
C      0.48467  0.03107  0.55379     C
C      0.48467  0.21893  0.69621     C
C      0.48467  0.53107  0.05379     C
C      0.48467  0.71893  0.19621     C
C       0.4866  0.09931  0.12987     C
C       0.4866  0.15069  0.12013     C
C       0.4866  0.59931  0.62987     C
C       0.4866  0.65069  0.62013     C
O       0.4908  0.31005  0.05817     O
O       0.4908  0.43995  0.69183     O
O       0.4908  0.81005  0.55817     O
O       0.4908  0.93995  0.19183     O
C      0.49211   0.3311  0.41627     C
C      0.49211   0.4189  0.33373     C
C      0.49211   0.8311  0.91627     C
C      0.49211   0.9189  0.83373     C
O      0.49219  0.31591  0.69631     O
O      0.49219  0.43409  0.05369     O
O      0.49219  0.81591  0.19631     O
O      0.49219  0.93409  0.55369     O
Co     0.49267  0.12025   0.7845    Co
Co     0.49267  0.12975   0.4655    Co
Co     0.49267  0.62025   0.2845    Co
Co     0.49267  0.62975   0.9655    Co
C        0.496  0.28311  0.42447     C
C        0.496  0.46689  0.32553     C
C        0.496  0.78311  0.92447     C
C        0.496  0.96689  0.82553     C
C        0.504  0.03311  0.17447     C
C        0.504  0.21689  0.07553     C
C        0.504  0.53311  0.67447     C
C        0.504  0.71689  0.57553     C
Co     0.50733  0.37025   0.0345    Co
Co     0.50733  0.37975   0.7155    Co
Co     0.50733  0.87025   0.5345    Co
Co     0.50733  0.87975   0.2155    Co
O      0.50781  0.06591  0.44631     O
O      0.50781  0.18409  0.80369     O
O      0.50781  0.56591  0.94631     O
O      0.50781  0.68409  0.30369     O
C      0.50789   0.0811  0.16627     C
C      0.50789   0.1689  0.08373     C
C      0.50789   0.5811  0.66627     C
C      0.50789   0.6689  0.58373     C
O       0.5092  0.06005  0.80817     O
O       0.5092  0.18995  0.44183     O
O       0.5092  0.56005  0.30817     O
O       0.5092  0.68995  0.94183     O
C       0.5134  0.34931  0.37987     C
C       0.5134  0.40069  0.37013     C
C       0.5134  0.84931  0.87987     C
C       0.5134  0.90069  0.87013     C
C      0.51533  0.28107  0.80379     C
C      0.51533  0.46893  0.94621     C
C      0.51533  0.78107  0.30379     C
C      0.51533  0.96893  0.44621     C
H       0.5178    0.021   0.1998     H
H       0.5178    0.229   0.0502     H
H       0.5178    0.521   0.6998     H
H       0.5178    0.729   0.5502     H
H       0.5183   0.0173   0.5547     H
H       0.5183   0.2327   0.6953     H
H       0.5183   0.5173   0.0547     H
H       0.5183   0.7327   0.1953     H
C       0.5197  0.25289  0.39623     C
C       0.5197  0.49711  0.35377     C
C       0.5197  0.75289  0.89623     C
C       0.5197  0.99711  0.85377     C
C       0.5201  0.32948  0.80285     C
C       0.5201  0.42052  0.94715     C
C       0.5201  0.82948  0.30285     C
C       0.5201  0.92052  0.44715     C
C       0.5221  0.04901   0.8444     C
C       0.5221  0.20099   0.4056     C
C       0.5221  0.54901   0.3444     C
C       0.5221  0.70099   0.9056     C
C      0.52997  0.10719  0.54901     C
C      0.52997  0.14281  0.70099     C
C      0.52997  0.60719  0.04901     C
C      0.52997  0.64281  0.20099     C
O      0.53279  0.11422  0.73188     O
O      0.53279  0.13578  0.51812     O
O      0.53279  0.61422  0.23188     O
O      0.53279  0.63578  0.01812     O
O       0.5356  0.07626  0.87222     O
O       0.5356  0.17374  0.37778     O
O       0.5356  0.57626  0.37222     O
O       0.5356  0.67374  0.87778     O
C       0.5383    0.319   0.3525     C
C       0.5383    0.431   0.3975     C
C       0.5383    0.819   0.8525     C
C       0.5383    0.931   0.8975     C
C       0.5409   0.1092   0.1964     C
C       0.5409   0.1408   0.0536     C
C       0.5409   0.6092   0.6964     C
C       0.5409   0.6408   0.5536     C
C        0.541   0.2718   0.3608     C
C        0.541   0.4782   0.3892     C
C        0.541   0.7718   0.8608     C
C        0.541   0.9782   0.8892     C
O       0.5411    0.101   0.2324     O
O       0.5411    0.149   0.0176     O
O       0.5411    0.601   0.7324     O
O       0.5411    0.649   0.5176     O
H       0.5437   0.3335   0.8935     H
H       0.5437   0.4165   0.8565     H
H       0.5437   0.8335   0.3935     H
H       0.5437   0.9165   0.3565     H
H       0.5537    0.331   0.3278     H
H       0.5537    0.419   0.4222     H
H       0.5537    0.831   0.8278     H
H       0.5537    0.919   0.9222     H
C       0.5544  0.05019  0.44894     C
C       0.5544  0.19981  0.80106     C
C       0.5544  0.55019  0.94894     C
C       0.5544  0.69981  0.30106     C
H        0.558   0.2518   0.3414     H
H        0.558   0.4982   0.4086     H
H        0.558   0.7518   0.8414     H
H        0.558   0.9982   0.9086     H
H       0.5583   0.2535   0.8937     H
H       0.5583   0.4965   0.8563     H
H       0.5583   0.7535   0.3937     H
H       0.5583   0.9965   0.3563     H
C      0.55936  0.25249  0.80348     C
C      0.55936  0.49751  0.94652     C
C      0.55936  0.75249  0.30348     C
C      0.55936  0.99751  0.44652     C
C        0.561   0.3196  0.91655     C
C        0.561   0.4304  0.83345     C
C        0.561   0.8196  0.41655     C
C        0.561   0.9304  0.33345     C
O      0.56653  0.09996  0.57255     O
O      0.56653  0.15004  0.67745     O
O      0.56653  0.59996  0.07255     O
O      0.56653  0.65004  0.17745     O
C       0.5694  0.35018  0.80169     C
C       0.5694  0.39982  0.94831     C
C       0.5694  0.85018  0.30169     C
C       0.5694  0.89982  0.44831     C
C       0.5701    0.272  0.91646     C
C       0.5701    0.478  0.83354     C
C       0.5701    0.772  0.41646     C
C       0.5701    0.978  0.33354     C
O       0.5717    0.113   0.0675     O
O       0.5717    0.137   0.1825     O
O       0.5717    0.613   0.5675     O
O       0.5717    0.637   0.6825     O
C       0.5768  0.34768  0.94968     C
C       0.5768  0.40232  0.80032     C
C       0.5768  0.84768  0.44968     C
C       0.5768  0.90232  0.30032     C
O      0.58065  0.07669  0.32363     O
O      0.58065  0.17331  0.92637     O
O      0.58065  0.57669  0.82363     O
O      0.58065  0.67331  0.42637     O
O      0.58279  0.37327  0.71014     O
O      0.58279  0.37673  0.03986     O
O      0.58279  0.87327  0.21014     O
O      0.58279  0.87673  0.53986     O
O      0.58491  0.35454  0.21778     O
O      0.58491  0.39546  0.53222     O
O      0.58491  0.85454  0.71778     O
O      0.58491  0.89546  0.03222     O
O      0.59385  0.07427  0.45381     O
O      0.59385  0.17573  0.79619     O
O      0.59385  0.57427  0.95381     O
O      0.59385  0.67573  0.29619     O
C       0.5967  0.25066  0.94981     C
C       0.5967  0.49934  0.80019     C
C       0.5967  0.75066  0.44981     C
C       0.5967  0.99934  0.30019     C
C       0.6029  0.32693  0.98298     C
C       0.6029  0.42307  0.76702     C
C       0.6029  0.82693  0.48298     C
C       0.6029  0.92307  0.26702     C
H       0.6032   0.3352   0.4455     H
H       0.6032   0.4148   0.3045     H
H       0.6032   0.8352   0.9455     H
H       0.6032   0.9148   0.8045     H
C       0.6051   0.0512  0.29894     C
C       0.6051   0.1988  0.95106     C
C       0.6051   0.5512  0.79894     C
C       0.6051   0.6988  0.45106     C
C       0.6085  0.27301  0.80362     C
C       0.6085  0.47699  0.94638     C
C       0.6085  0.77301  0.30362     C
C       0.6085  0.97699  0.44638     C
O       0.6111  0.06537  0.97728     O
O       0.6111  0.18463  0.27272     O
H       0.6111   0.2539   0.4461     H
H       0.6111   0.4961   0.3039     H
O       0.6111  0.56537  0.47728     O
O       0.6111  0.68463  0.77272     O
H       0.6111   0.7539   0.9461     H
H       0.6111   0.9961   0.8039     H
C       0.6132  0.32145  0.80341     C
C       0.6132  0.42855  0.94659     C
C       0.6132  0.82145  0.30341     C
C       0.6132  0.92855  0.44659     C
C       0.6136   0.2785  0.98286     C
C       0.6136   0.4715  0.76714     C
C       0.6136   0.7785  0.48286     C
C       0.6136   0.9715  0.26714     C
H       0.6176   0.2649   0.2446     H
H       0.6176   0.4851   0.5054     H
H       0.6176   0.7649   0.7446     H
H       0.6176   0.9851   0.0054     H
C        0.619   0.3545  0.02071     C
C        0.619   0.3955  0.72929     C
C        0.619   0.8545  0.52071     C
C        0.619   0.8955  0.22929     C
Co       0.625    0.125  0.00691    Co
Na       0.625    0.125    0.125    Na
Co       0.625    0.125  0.24309    Co
Na       0.625    0.125  0.50534    Na
Na       0.625    0.125    0.625    Na
Na       0.625    0.125  0.74466    Na
Na       0.625    0.625  0.00534    Na
Na       0.625    0.625    0.125    Na
Na       0.625    0.625  0.24466    Na
Co       0.625    0.625  0.50691    Co
Na       0.625    0.625    0.625    Na
Co       0.625    0.625  0.74309    Co
C        0.631   0.3545  0.22929     C
C        0.631   0.3955  0.52071     C
C        0.631   0.8545  0.72929     C
C        0.631   0.8955  0.02071     C
H       0.6324   0.2649   0.0054     H
H       0.6324   0.4851   0.7446     H
H       0.6324   0.7649   0.5054     H
H       0.6324   0.9851   0.2446     H
C       0.6364   0.2785  0.26714     C
C       0.6364   0.4715  0.48286     C
C       0.6364   0.7785  0.76714     C
C       0.6364   0.9715  0.98286     C
C       0.6368  0.32145  0.44659     C
C       0.6368  0.42855  0.30341     C
C       0.6368  0.82145  0.94659     C
C       0.6368  0.92855  0.80341     C
O       0.6389  0.06537  0.27272     O
O       0.6389  0.18463  0.97728     O
H       0.6389   0.2539   0.8039     H
H       0.6389   0.4961   0.9461     H
O       0.6389  0.56537  0.77272     O
O       0.6389  0.68463  0.47728     O
H       0.6389   0.7539   0.3039     H
H       0.6389   0.9961   0.4461     H
C       0.6415  0.27301  0.44638     C
C       0.6415  0.47699  0.30362     C
C       0.6415  0.77301  0.94638     C
C       0.6415  0.97699  0.80362     C
C       0.6449   0.0512  0.95106     C
C       0.6449   0.1988  0.29894     C
C       0.6449   0.5512  0.45106     C
C       0.6449   0.6988  0.79894     C
H       0.6468   0.3352   0.8045     H
H       0.6468   0.4148   0.9455     H
H       0.6468   0.8352   0.3045     H
H       0.6468   0.9148   0.4455     H
C       0.6471  0.32693  0.26702     C
C       0.6471  0.42307  0.48298     C
C       0.6471  0.82693  0.76702     C
C       0.6471  0.92307  0.98298     C
C       0.6533  0.25066  0.30019     C
C       0.6533  0.49934  0.44981     C
C       0.6533  0.75066  0.80019     C
C       0.6533  0.99934  0.94981     C
O      0.65615  0.07427  0.79619     O
O      0.65615  0.17573  0.45381     O
O      0.65615  0.57427  0.29619     O
O      0.65615  0.67573  0.95381     O
O      0.66509  0.35454  0.03222     O
O      0.66509  0.39546  0.71778     O
O      0.66509  0.85454  0.53222     O
O      0.66509  0.89546  0.21778     O
O      0.66721  0.37327  0.53986     O
O      0.66721  0.37673  0.21014     O
O      0.66721  0.87327  0.03986     O
O      0.66721  0.87673  0.71014     O
O      0.66935  0.07669  0.92637     O
O      0.66935  0.17331  0.32363     O
O      0.66935  0.57669  0.42637     O
O      0.66935  0.67331  0.82363     O
C       0.6732  0.34768  0.30032     C
C       0.6732  0.40232  0.44968     C
C       0.6732  0.84768  0.80032     C
C       0.6732  0.90232  0.94968     C
O       0.6783    0.113   0.1825     O
O       0.6783    0.137   0.0675     O
O       0.6783    0.613   0.6825     O
O       0.6783    0.637   0.5675     O
C       0.6799    0.272  0.33354     C
C       0.6799    0.478  0.41646     C
C       0.6799    0.772  0.83354     C
C       0.6799    0.978  0.91646     C
C       0.6806  0.35018  0.44831     C
C       0.6806  0.39982  0.30169     C
C       0.6806  0.85018  0.94831     C
C       0.6806  0.89982  0.80169     C
O      0.68347  0.09996  0.67745     O
O      0.68347  0.15004  0.57255     O
O      0.68347  0.59996  0.17745     O
O      0.68347  0.65004  0.07255     O
C        0.689   0.3196  0.33345     C
C        0.689   0.4304  0.41655     C
C        0.689   0.8196  0.83345     C
C        0.689   0.9304  0.91655     C
C      0.69064  0.25249  0.44652     C
C      0.69064  0.49751  0.30348     C
C      0.69064  0.75249  0.94652     C
C      0.69064  0.99751  0.80348     C
H       0.6917   0.2535   0.3563     H
H       0.6917   0.4965   0.3937     H
H       0.6917   0.7535   0.8563     H
H       0.6917   0.9965   0.8937     H
H        0.692   0.2518   0.9086     H
H        0.692   0.4982   0.8414     H
H        0.692   0.7518   0.4086     H
H        0.692   0.9982   0.3414     H
C       0.6956  0.05019  0.80106     C
C       0.6956  0.19981  0.44894     C
C       0.6956  0.55019  0.30106     C
C       0.6956  0.69981  0.94894     C
H       0.6963    0.331   0.9222     H
H       0.6963    0.419   0.8278     H
H       0.6963    0.831   0.4222     H
H       0.6963    0.919   0.3278     H
H       0.7063   0.3335   0.3565     H
H       0.7063   0.4165   0.3935     H
H       0.7063   0.8335   0.8565     H
H       0.7063   0.9165   0.8935     H
O       0.7089    0.101   0.0176     O
O       0.7089    0.149   0.2324     O
O       0.7089    0.601   0.5176     O
O       0.7089    0.649   0.7324     O
C        0.709   0.2718   0.8892     C
C        0.709   0.4782   0.8608     C
C        0.709   0.7718   0.3892     C
C        0.709   0.9782   0.3608     C
C       0.7091   0.1092   0.0536     C
C       0.7091   0.1408   0.1964     C
C       0.7091   0.6092   0.5536     C
C       0.7091   0.6408   0.6964     C
C       0.7117    0.319   0.8975     C
C       0.7117    0.431   0.8525     C
C       0.7117    0.819   0.3975     C
C       0.7117    0.931   0.3525     C
O       0.7144  0.07626  0.37778     O
O       0.7144  0.17374  0.87222     O
O       0.7144  0.57626  0.87778     O
O       0.7144  0.67374  0.37222     O
O      0.71721  0.11422  0.51812     O
O      0.71721  0.13578  0.73188     O
O      0.71721  0.61422  0.01812     O
O      0.71721  0.63578  0.23188     O
C      0.72003  0.10719  0.70099     C
C      0.72003  0.14281  0.54901     C
C      0.72003  0.60719  0.20099     C
C      0.72003  0.64281  0.04901     C
C       0.7279  0.04901   0.4056     C
C       0.7279  0.20099   0.8444     C
C       0.7279  0.54901   0.9056     C
C       0.7279  0.70099   0.3444     C
C       0.7299  0.32948  0.44715     C
C       0.7299  0.42052  0.30285     C
C       0.7299  0.82948  0.94715     C
C       0.7299  0.92052  0.80285     C
C       0.7303  0.25289  0.85377     C
C       0.7303  0.49711  0.89623     C
C       0.7303  0.75289  0.35377     C
C       0.7303  0.99711  0.39623     C
H       0.7317   0.0173   0.6953     H
H       0.7317   0.2327   0.5547     H
H       0.7317   0.5173   0.1953     H
H       0.7317   0.7327   0.0547     H
H       0.7322    0.021   0.0502     H
H       0.7322    0.229   0.1998     H
H       0.7322    0.521   0.5502     H
H       0.7322    0.729   0.6998     H
C      0.73467  0.28107  0.44621     C
C      0.73467  0.46893  0.30379     C
C      0.73467  0.78107  0.94621     C
C      0.73467  0.96893  0.80379     C
C       0.7366  0.34931  0.87013     C
C       0.7366  0.40069  0.87987     C
C       0.7366  0.84931  0.37013     C
C       0.7366  0.90069  0.37987     C
O       0.7408  0.06005  0.44183     O
O       0.7408  0.18995  0.80817     O
O       0.7408  0.56005  0.94183     O
O       0.7408  0.68995  0.30817     O
C      0.74211   0.0811  0.08373     C
C      0.74211   0.1689  0.16627     C
C      0.74211   0.5811  0.58373     C
C      0.74211   0.6689  0.66627     C
O      0.74219  0.06591  0.80369     O
O      0.74219  0.18409  0.44631     O
O      0.74219  0.56591  0.30369     O
O      0.74219  0.68409  0.94631     O
Co     0.74267  0.37025   0.2155    Co
Co     0.74267  0.37975   0.5345    Co
Co     0.74267  0.87025   0.7155    Co
Co     0.74267  0.87975   0.0345    Co
C        0.746  0.03311  0.07553     C
C        0.746  0.21689  0.17447     C
C        0.746  0.53311  0.57553     C
C        0.746  0.71689  0.67447     C
C        0.754  0.28311  0.82553     C
C        0.754  0.46689  0.92447     C
C        0.754  0.78311  0.32553     C
C        0.754  0.96689  0.42447     C
Co     0.75733  0.12025   0.4655    Co
Co     0.75733  0.12975   0.7845    Co
Co     0.75733  0.62025   0.9655    Co
Co     0.75733  0.62975   0.2845    Co
O      0.75781  0.31591  0.55369     O
O      0.75781  0.43409  0.19631     O
O      0.75781  0.81591  0.05369     O
O      0.75781  0.93409  0.69631     O
C      0.75789   0.3311  0.83373     C
C      0.75789   0.4189  0.91627     C
C      0.75789   0.8311  0.33373     C
C      0.75789   0.9189  0.41627     C
O       0.7592  0.31005  0.19183     O
O       0.7592  0.43995  0.55817     O
O       0.7592  0.81005  0.69183     O
O       0.7592  0.93995  0.05817     O
C       0.7634  0.09931  0.12013     C
C       0.7634  0.15069  0.12987     C
C       0.7634  0.59931  0.62013     C
C       0.7634  0.65069  0.62987     C
C      0.76533  0.03107  0.69621     C
C      0.76533  0.21893  0.55379     C
C      0.76533  0.53107  0.19621     C
C      0.76533  0.71893  0.05379     C
H       0.7678    0.271   0.8002     H
H       0.7678    0.479   0.9498     H
H       0.7678    0.771   0.3002     H
H       0.7678    0.979   0.4498     H
H       0.7683   0.2673   0.4453     H
H       0.7683   0.4827   0.3047     H
H       0.7683   0.7673   0.9453     H
H       0.7683   0.9827   0.8047     H
C       0.7697  0.00289  0.10377     C
C       0.7697  0.24711  0.14623     C
C       0.7697  0.50289  0.60377     C
C       0.7697  0.74711  0.64623     C
C       0.7701  0.07948  0.69715     C
C       0.7701  0.17052  0.55285     C
C       0.7701  0.57948  0.19715     C
C       0.7701  0.67052  0.05285     C
C       0.7721  0.29901   0.1556     C
C       0.7721  0.45099   0.5944     C
C       0.7721  0.79901   0.6556     C
C       0.7721  0.95099   0.0944     C
C      0.77997  0.35719  0.45099     C
C      0.77997  0.39281  0.29901     C
C      0.77997  0.85719  0.95099     C
C      0.77997  0.89281  0.79901     C
O      0.78279  0.36422  0.26812     O
O      0.78279  0.38578  0.48188     O
O      0.78279  0.86422  0.76812     O
O      0.78279  0.88578  0.98188     O
O       0.7856  0.32626  0.12778     O
O       0.7856  0.42374  0.62222     O
O       0.7856  0.82626  0.62778     O
O       0.7856  0.92374  0.12222     O
C       0.7883    0.069   0.1475     C
C       0.7883    0.181   0.1025     C
C       0.7883    0.569   0.6475     C
C       0.7883    0.681   0.6025     C
C       0.7909   0.3592   0.8036     C
C       0.7909   0.3908   0.9464     C
C       0.7909   0.8592   0.3036     C
C       0.7909   0.8908   0.4464     C
C        0.791   0.0218   0.1392     C
C        0.791   0.2282   0.1108     C
C        0.791   0.5218   0.6392     C
C        0.791   0.7282   0.6108     C
O       0.7911    0.351   0.7676     O
O       0.7911    0.399   0.9824     O
O       0.7911    0.851   0.2676     O
O       0.7911    0.899   0.4824     O
H       0.7937   0.0835   0.6065     H
H       0.7937   0.1665   0.6435     H
H       0.7937   0.5835   0.1065     H
H       0.7937   0.6665   0.1435     H
H       0.8037    0.081   0.1722     H
H       0.8037    0.169   0.0778     H
H       0.8037    0.581   0.6722     H
H       0.8037    0.669   0.5778     H
C       0.8044  0.30019  0.55106     C
C       0.8044  0.44981  0.19894     C
C       0.8044  0.80019  0.05106     C
C       0.8044  0.94981  0.69894     C
H        0.808   0.0018   0.1586     H
H        0.808   0.2482   0.0914     H
H        0.808   0.5018   0.6586     H
H        0.808   0.7482   0.5914     H
H       0.8083   0.0035   0.6063     H
H       0.8083   0.2465   0.6437     H
H       0.8083   0.5035   0.1063     H
H       0.8083   0.7465   0.1437     H
C      0.80936  0.00249  0.69652     C
C      0.80936  0.24751  0.55348     C
C      0.80936  0.50249  0.19652     C
C      0.80936  0.74751  0.05348     C
C        0.811   0.0696  0.58345     C
C        0.811   0.1804  0.66655     C
C        0.811   0.5696  0.08345     C
C        0.811   0.6804  0.16655     C
O      0.81653  0.34996  0.42745     O
O      0.81653  0.40004  0.32255     O
O      0.81653  0.84996  0.92745     O
O      0.81653  0.90004  0.82255     O
C       0.8194  0.10018  0.69831     C
C       0.8194  0.14982  0.55169     C
C       0.8194  0.60018  0.19831     C
C       0.8194  0.64982  0.05169     C
C       0.8201    0.022  0.58354     C
C       0.8201    0.228  0.66646     C
C       0.8201    0.522  0.08354     C
C       0.8201    0.728  0.16646     C
O       0.8217    0.363   0.9325     O
O       0.8217    0.387   0.8175     O
O       0.8217    0.863   0.4325     O
O       0.8217    0.887   0.3175     O
C       0.8268  0.09768  0.55032     C
C       0.8268  0.15232  0.69968     C
C       0.8268  0.59768  0.05032     C
C       0.8268  0.65232  0.19968     C
O      0.83065  0.32669  0.67637     O
O      0.83065  0.42331  0.07363     O
O      0.83065  0.82669  0.17637     O
O      0.83065  0.92331  0.57363     O
O      0.83279  0.12327  0.78986     O
O      0.83279  0.12673  0.46014     O
O      0.83279  0.62327  0.28986     O
O      0.83279  0.62673  0.96014     O
O      0.83491  0.10454  0.28222     O
O      0.83491  0.14546  0.96778     O
O      0.83491  0.60454  0.78222     O
O      0.83491  0.64546  0.46778     O
O      0.84385  0.32427  0.54619     O
O      0.84385  0.42573  0.20381     O
O      0.84385  0.82427  0.04619     O
O      0.84385  0.92573  0.70381     O
C       0.8467  0.00066  0.55019     C
C       0.8467  0.24934  0.69981     C
C       0.8467  0.50066  0.05019     C
C       0.8467  0.74934  0.19981     C
C       0.8529  0.07693  0.51702     C
C       0.8529  0.17307  0.73298     C
C       0.8529  0.57693  0.01702     C
C       0.8529  0.67307  0.23298     C
H       0.8532   0.0852   0.0545     H
H       0.8532   0.1648   0.1955     H
H       0.8532   0.5852   0.5545     H
H       0.8532   0.6648   0.6955     H
C       0.8551   0.3012  0.70106     C
C       0.8551   0.4488  0.04894     C
C       0.8551   0.8012  0.20106     C
C       0.8551   0.9488  0.54894     C
C       0.8585  0.02301  0.69638     C
C       0.8585  0.22699  0.55362     C
C       0.8585  0.52301  0.19638     C
C       0.8585  0.72699  0.05362     C
H       0.8611   0.0039   0.0539     H
H       0.8611   0.2461   0.1961     H
O       0.8611  0.31537  0.02272     O
O       0.8611  0.43463  0.72728     O
H       0.8611   0.5039   0.5539     H
H       0.8611   0.7461   0.6961     H
O       0.8611  0.81537  0.52272     O
O       0.8611  0.93463  0.22728     O
C       0.8632  0.07145  0.69659     C
C       0.8632  0.17855  0.55341     C
C       0.8632  0.57145  0.19659     C
C       0.8632  0.67855  0.05341     C
C       0.8636   0.0285  0.51714     C
C       0.8636   0.2215  0.73286     C
C       0.8636   0.5285  0.01714     C
C       0.8636   0.7215  0.23286     C
H       0.8676   0.0149   0.2554     H
H       0.8676   0.2351   0.9946     H
H       0.8676   0.5149   0.7554     H
H       0.8676   0.7351   0.4946     H
C        0.869   0.1045  0.47929     C
C        0.869   0.1455  0.77071     C
C        0.869   0.6045  0.97929     C
C        0.869   0.6455  0.27071     C
Na       0.875    0.375  0.25534    Na
Na       0.875    0.375    0.375    Na
Na       0.875    0.375  0.49466    Na
Co       0.875    0.375  0.75691    Co
Na       0.875    0.375    0.875    Na
Co       0.875    0.375  0.99309    Co
Co       0.875    0.875  0.25691    Co
Na       0.875    0.875    0.375    Na
Co       0.875    0.875  0.49309    Co
Na       0.875    0.875  0.75534    Na
Na       0.875    0.875    0.875    Na
Na       0.875    0.875  0.99466    Na
C        0.881   0.1045  0.27071     C
C        0.881   0.1455  0.97929     C
C        0.881   0.6045  0.77071     C
C        0.881   0.6455  0.47929     C
H       0.8824   0.0149   0.4946     H
H       0.8824   0.2351   0.7554     H
H       0.8824   0.5149   0.9946     H
H       0.8824   0.7351   0.2554     H
C       0.8864   0.0285  0.23286     C
C       0.8864   0.2215  0.01714     C
C       0.8864   0.5285  0.73286     C
C       0.8864   0.7215  0.51714     C
C       0.8868  0.07145  0.05341     C
C       0.8868  0.17855  0.19659     C
C       0.8868  0.57145  0.55341     C
C       0.8868  0.67855  0.69659     C
H       0.8889   0.0039   0.6961     H
H       0.8889   0.2461   0.5539     H
O       0.8889  0.31537  0.72728     O
O       0.8889  0.43463  0.02272     O
H       0.8889   0.5039   0.1961     H
H       0.8889   0.7461   0.0539     H
O       0.8889  0.81537  0.22728     O
O       0.8889  0.93463  0.52272     O
C       0.8915  0.02301  0.05362     C
C       0.8915  0.22699  0.19638     C
C       0.8915  0.52301  0.55362     C
C       0.8915  0.72699  0.69638     C
C       0.8949   0.3012  0.04894     C
C       0.8949   0.4488  0.70106     C
C       0.8949   0.8012  0.54894     C
C       0.8949   0.9488  0.20106     C
H       0.8968   0.0852   0.6955     H
H       0.8968   0.1648   0.5545     H
H       0.8968   0.5852   0.1955     H
H       0.8968   0.6648   0.0545     H
C       0.8971  0.07693  0.23298     C
C       0.8971  0.17307  0.01702     C
C       0.8971  0.57693  0.73298     C
C       0.8971  0.67307  0.51702     C
C       0.9033  0.00066  0.19981     C
C       0.9033  0.24934  0.05019     C
C       0.9033  0.50066  0.69981     C
C       0.9033  0.74934  0.55019     C
O      0.90615  0.32427  0.20381     O
O      0.90615  0.42573  0.54619     O
O      0.90615  0.82427  0.70381     O
O      0.90615  0.92573  0.04619     O
O      0.91509  0.10454  0.46778     O
O      0.91509  0.14546  0.78222     O
O      0.91509  0.60454  0.96778     O
O      0.91509  0.64546  0.28222     O
O      0.91721  0.12327  0.96014     O
O      0.91721  0.12673  0.28986     O
O      0.91721  0.62327  0.46014     O
O      0.91721  0.62673  0.78986     O
O      0.91935  0.32669  0.07363     O
O      0.91935  0.42331  0.67637     O
O      0.91935  0.82669  0.57363     O
O      0.91935  0.92331  0.17637     O
C       0.9232  0.09768  0.19968     C
C       0.9232  0.15232  0.05032     C
C       0.9232  0.59768  0.69968     C
C       0.9232  0.65232  0.55032     C
O       0.9283    0.363   0.8175     O
O       0.9283    0.387   0.9325     O
O       0.9283    0.863   0.3175     O
O       0.9283    0.887   0.4325     O
C       0.9299    0.022  0.16646     C
C       0.9299    0.228  0.08354     C
C       0.9299    0.522  0.66646     C
C       0.9299    0.728  0.58354     C
C       0.9306  0.10018  0.05169     C
C       0.9306  0.14982  0.19831     C
C       0.9306  0.60018  0.55169     C
C       0.9306  0.64982  0.69831     C
O      0.93347  0.34996  0.32255     O
O      0.93347  0.40004  0.42745     O
O      0.93347  0.84996  0.82255     O
O      0.93347  0.90004  0.92745     O
C        0.939   0.0696  0.16655     C
C        0.939   0.1804  0.08345     C
C        0.939   0.5696  0.66655     C
C        0.939   0.6804  0.58345     C
C      0.94064  0.00249  0.05348     C
C      0.94064  0.24751  0.19652     C
C      0.94064  0.50249  0.55348     C
C      0.94064  0.74751  0.69652     C
H       0.9417   0.0035   0.1437     H
H       0.9417   0.2465   0.1063     H
H       0.9417   0.5035   0.6437     H
H       0.9417   0.7465   0.6063     H
H        0.942   0.0018   0.5914     H
H        0.942   0.2482   0.6586     H
H        0.942   0.5018   0.0914     H
H        0.942   0.7482   0.1586     H
C       0.9456  0.30019  0.19894     C
C       0.9456  0.44981  0.55106     C
C       0.9456  0.80019  0.69894     C
C       0.9456  0.94981  0.05106     C
H       0.9463    0.081   0.5778     H
H       0.9463    0.169   0.6722     H
H       0.9463    0.581   0.0778     H
H       0.9463    0.669   0.1722     H
H       0.9563   0.0835   0.1435     H
H       0.9563   0.1665   0.1065     H
H       0.9563   0.5835   0.6435     H
H       0.9563   0.6665   0.6065     H
O       0.9589    0.351   0.9824     O
O       0.9589    0.399   0.7676     O
O       0.9589    0.851   0.4824     O
O       0.9589    0.899   0.2676     O
C        0.959   0.0218   0.6108     C
C        0.959   0.2282   0.6392     C
C        0.959   0.5218   0.1108     C
C        0.959   0.7282   0.1392     C
C       0.9591   0.3592   0.9464     C
C       0.9591   0.3908   0.8036     C
C       0.9591   0.8592   0.4464     C
C       0.9591   0.8908   0.3036     C
C       0.9617    0.069   0.6025     C
C       0.9617    0.181   0.6475     C
C       0.9617    0.569   0.1025     C
C       0.9617    0.681   0.1475     C
O       0.9644  0.32626  0.62222     O
O       0.9644  0.42374  0.12778     O
O       0.9644  0.82626  0.12222     O
O       0.9644  0.92374  0.62778     O
O      0.96721  0.36422  0.48188     O
O      0.96721  0.38578  0.26812     O
O      0.96721  0.86422  0.98188     O
O      0.96721  0.88578  0.76812     O
C      0.97003  0.35719  0.29901     C
C      0.97003  0.39281  0.45099     C
C      0.97003  0.85719  0.79901     C
C      0.97003  0.89281  0.95099     C
C       0.9779  0.29901   0.5944     C
C       0.9779  0.45099   0.1556     C
C       0.9779  0.79901   0.0944     C
C       0.9779  0.95099   0.6556     C
C       0.9799  0.07948  0.05285     C
C       0.9799  0.17052  0.19715     C
C       0.9799  0.57948  0.55285     C
C       0.9799  0.67052  0.69715     C
C       0.9803  0.00289  0.64623     C
C       0.9803  0.24711  0.60377     C
C       0.9803  0.50289  0.14623     C
C       0.9803  0.74711  0.10377     C
H       0.9817   0.2673   0.3047     H
H       0.9817   0.4827   0.4453     H
H       0.9817   0.7673   0.8047     H
H       0.9817   0.9827   0.9453     H
H       0.9822    0.271   0.9498     H
H       0.9822    0.479   0.8002     H
H       0.9822    0.771   0.4498     H
H       0.9822    0.979   0.3002     H
C      0.98467  0.03107  0.05379     C
C      0.98467  0.21893  0.19621     C
C      0.98467  0.53107  0.55379     C
C      0.98467  0.71893  0.69621     C
C       0.9866  0.09931  0.62987     C
C       0.9866  0.15069  0.62013     C
C       0.9866  0.59931  0.12987     C
C       0.9866  0.65069  0.12013     C
O       0.9908  0.31005  0.55817     O
O       0.9908  0.43995  0.19183     O
O       0.9908  0.81005  0.05817     O
O       0.9908  0.93995  0.69183     O
C      0.99211   0.3311  0.91627     C
C      0.99211   0.4189  0.83373     C
C      0.99211   0.8311  0.41627     C
C      0.99211   0.9189  0.33373     C
O      0.99219  0.31591  0.19631     O
O      0.99219  0.43409  0.55369     O
O      0.99219  0.81591  0.69631     O
O      0.99219  0.93409  0.05369     O
Co     0.99267  0.12025   0.2845    Co
Co     0.99267  0.12975   0.9655    Co
Co     0.99267  0.62025   0.7845    Co
Co     0.99267  0.62975   0.4655    Co
C        0.996  0.28311  0.92447     C
C        0.996  0.46689  0.82553     C
C        0.996  0.78311  0.42447     C
C        0.996  0.96689  0.32553     C
