data_I
_chemical_name_common  '/home/zhangsd/repos/MofS-CGCNN/ML/data/SSD/clean_cifs/DUDKUK_clean'
_cell_length_a 14.42250
_cell_length_b 14.26010
_cell_length_c 22.51060
_cell_angle_alpha 90.00000
_cell_angle_beta  100.15400
_cell_angle_gamma 90.00000
_space_group_name_H-M_alt      'P 1'


loop_
_space_group_symop_operation_xyz
  'x, y, z' 

loop_
_atom_site_label
_atom_site_fract_x
_atom_site_fract_y
_atom_site_fract_z
_atom_site_type_symbol
C       0.0243   0.5205   0.9265     C
C       0.0243   0.9795   0.4265     C
C       0.0252     0.52   0.8034     C
C       0.0252     0.98   0.3034     C
H        0.026   0.5198   0.7622     H
H        0.026   0.9802   0.2622     H
N       0.0279   0.5265   0.9903     N
N       0.0279   0.9735   0.4903     N
C       0.0322   0.5426   0.1727     C
C       0.0322   0.5428   0.1111     C
C       0.0322   0.9572   0.6111     C
C       0.0322   0.9574   0.6727     C
H         0.07   0.5851   0.0948     H
H         0.07   0.9149   0.5948     H
C       0.0807    0.583   0.9025     C
C       0.0807    0.917   0.4025     C
C       0.0814   0.5828   0.8407     C
C       0.0814   0.9172   0.3407     C
O       0.0976   0.6033    0.268     O
C       0.0976   0.6087   0.2127     C
C       0.0976   0.8913   0.7127     C
O       0.0976   0.8967    0.768     O
H       0.1182   0.6252   0.9275     H
H       0.1182   0.8748   0.4275     H
C       0.1418   0.6532   0.8158     C
C       0.1418   0.8468   0.3158     C
O       0.1462   0.6623   0.1876     O
O       0.1462   0.8377   0.6876     O
O       0.1524   0.6421   0.7621     O
O       0.1524   0.8579   0.2621     O
O       0.1785   0.7168   0.8495     O
O       0.1785   0.7832   0.3495     O
Cd     0.18455  0.62409  0.36043    Cd
Cd     0.18455  0.87591  0.86043    Cd
Cd     0.25605  0.74887  0.74017    Cd
Cd     0.25605  0.75113  0.24017    Cd
O       0.3061   0.6786   0.6609     O
O       0.3061   0.8214   0.1609     O
O       0.3155   0.6525   0.3169     O
O       0.3155   0.8475   0.8169     O
C       0.3703    0.634   0.6945     C
C       0.3703    0.866   0.1945     C
C       0.3727   0.6053   0.2898     C
C       0.3727   0.8947   0.7898     C
O       0.3755   0.6182   0.2363     O
O       0.3755   0.8818   0.7363     O
H       0.3829   0.6127   0.5798     H
H       0.3829   0.8873   0.0798     H
O       0.3831   0.6394   0.7513     O
O       0.3831   0.8606   0.2513     O
H       0.4042   0.5724   0.4081     H
H       0.4042   0.9276   0.9081     H
C       0.4277   0.5749   0.6033     C
C       0.4277   0.9251   0.1033     C
C       0.4345   0.5727   0.6661     C
C       0.4345   0.9273   0.1661     C
C       0.4394   0.5398   0.3275     C
C       0.4394   0.9602   0.8275     C
C       0.4449   0.5367   0.3895     C
C       0.4449   0.9633   0.8895     C
N       0.4765    0.529    0.512     N
N       0.4765    0.971    0.012     N
C        0.488   0.5205   0.5764     C
C        0.488   0.9795   0.0764     C
H       0.4942   0.0146    0.758     H
H       0.4942   0.4854    0.258     H
C       0.4991   0.0159   0.7997     C
C       0.4991   0.4841   0.2997     C
C       0.5009   0.5159   0.7003     C
C       0.5009   0.9841   0.2003     C
H       0.5058   0.5146    0.742     H
H       0.5058   0.9854    0.242     H
C        0.512   0.0205   0.9236     C
C        0.512   0.4795   0.4236     C
N       0.5235    0.029    0.988     N
N       0.5235    0.471    0.488     N
C       0.5551   0.0367   0.1105     C
C       0.5551   0.4633   0.6105     C
C       0.5606   0.0398   0.1725     C
C       0.5606   0.4602   0.6725     C
C       0.5655   0.0727   0.8339     C
C       0.5655   0.4273   0.3339     C
C       0.5723   0.0749   0.8967     C
C       0.5723   0.4251   0.3967     C
H       0.5958   0.0724   0.0919     H
H       0.5958   0.4276   0.5919     H
O       0.6169   0.1394   0.7487     O
O       0.6169   0.3606   0.2487     O
H       0.6171   0.1127   0.9202     H
H       0.6171   0.3873   0.4202     H
O       0.6245   0.1182   0.2637     O
O       0.6245   0.3818   0.7637     O
C       0.6273   0.1053   0.2102     C
C       0.6273   0.3947   0.7102     C
C       0.6297    0.134   0.8055     C
C       0.6297    0.366   0.3055     C
O       0.6845   0.1525   0.1831     O
O       0.6845   0.3475   0.6831     O
O       0.6939   0.1786   0.8391     O
O       0.6939   0.3214   0.3391     O
Cd     0.74395  0.24887  0.75983    Cd
Cd     0.74395  0.25113  0.25983    Cd
Cd     0.81545  0.12409  0.13957    Cd
Cd     0.81545  0.37591  0.63957    Cd
O       0.8215   0.2168   0.6505     O
O       0.8215   0.2832   0.1505     O
O       0.8476   0.1421   0.7379     O
O       0.8476   0.3579   0.2379     O
O       0.8538   0.1623   0.3124     O
O       0.8538   0.3377   0.8124     O
C       0.8582   0.1532   0.6842     C
C       0.8582   0.3468   0.1842     C
H       0.8818   0.1252   0.5725     H
H       0.8818   0.3748   0.0725     H
O       0.9024   0.1033    0.232     O
C       0.9024   0.1087   0.2873     C
C       0.9024   0.3913   0.7873     C
O       0.9024   0.3967    0.732     O
C       0.9186   0.0828   0.6593     C
C       0.9186   0.4172   0.1593     C
C       0.9193    0.083   0.5975     C
C       0.9193    0.417   0.0975     C
H         0.93   0.0851   0.4052     H
H         0.93   0.4149   0.9052     H
C       0.9678   0.0426   0.3273     C
C       0.9678   0.0428   0.3889     C
C       0.9678   0.4572   0.8889     C
C       0.9678   0.4574   0.8273     C
N       0.9721   0.0265   0.5097     N
N       0.9721   0.4735   0.0097     N
H        0.974   0.0198   0.7378     H
H        0.974   0.4802   0.2378     H
C       0.9748     0.02   0.6966     C
C       0.9748     0.48   0.1966     C
C       0.9757   0.0205   0.5735     C
C       0.9757   0.4795   0.0735     C
