data_I
_chemical_name_common  '/home/zhangsd/repos/MofS-CGCNN/ML/data/SSD/clean_cifs/DUFZUA_clean'
_cell_length_a 15.29100
_cell_length_b 15.29100
_cell_length_c 15.57300
_cell_angle_alpha 90.00000
_cell_angle_beta  90.00000
_cell_angle_gamma 120.00000
_space_group_name_H-M_alt      'P 1'


loop_
_space_group_symop_operation_xyz
  'x, y, z' 

loop_
_atom_site_label
_atom_site_fract_x
_atom_site_fract_y
_atom_site_fract_z
_atom_site_type_symbol
Fe         0.0      0.5      0.5    Fe
Fe         0.0      0.5      1.0    Fe
H       0.0528   0.2869   0.3419     H
H       0.0528   0.2869   0.6581     H
H       0.0528   0.7659   0.1581     H
H       0.0528   0.7659   0.8419     H
O       0.0624   0.4471   0.4079     O
O       0.0624   0.4471   0.5921     O
O       0.0624   0.6153   0.0921     O
O       0.0624   0.6153   0.9079     O
H      0.10005   0.2001     0.25     H
H      0.10005   0.2001     0.75     H
H      0.10005  0.89995     0.25     H
H      0.10005  0.89995     0.75     H
C       0.1073   0.3215   0.3048     C
C       0.1073   0.3215   0.6952     C
C       0.1073   0.7858   0.1952     C
C       0.1073   0.7858   0.8048     C
C      0.13515   0.2703     0.25     C
C      0.13515   0.2703     0.75     C
C      0.13515  0.86485     0.25     C
C      0.13515  0.86485     0.75     C
C       0.1389   0.4916   0.3615     C
C       0.1389   0.4916   0.6385     C
C       0.1389   0.6473   0.1385     C
C       0.1389   0.6473   0.8615     C
C       0.1617    0.426   0.3041     C
C       0.1617    0.426   0.6959     C
C       0.1617   0.7357   0.1959     C
C       0.1617   0.7357   0.8041     C
O       0.1993   0.5862   0.3567     O
O       0.1993   0.5862   0.6433     O
O       0.1993   0.6131   0.1433     O
O       0.1993   0.6131   0.8567     O
H       0.2001  0.10005     0.25     H
H       0.2001  0.10005     0.75     H
C       0.2142   0.3215   0.1952     C
C       0.2142   0.3215   0.8048     C
C       0.2142   0.8927   0.3048     C
C       0.2142   0.8927   0.6952     C
H       0.2341   0.2869   0.1581     H
H       0.2341   0.2869   0.8419     H
H       0.2341   0.9472   0.3419     H
H       0.2341   0.9472   0.6581     H
N      0.23885   0.4777     0.25     N
N      0.23885   0.4777     0.75     N
N      0.23885  0.76115     0.25     N
N      0.23885  0.76115     0.75     N
C       0.2643    0.426   0.1959     C
C       0.2643    0.426   0.8041     C
C       0.2643   0.8383   0.3041     C
C       0.2643   0.8383   0.6959     C
C       0.2703  0.13515     0.25     C
C       0.2703  0.13515     0.75     C
H       0.2869   0.0528   0.1581     H
H       0.2869   0.0528   0.8419     H
H       0.2869   0.2341   0.3419     H
H       0.2869   0.2341   0.6581     H
C       0.3215   0.1073   0.1952     C
C       0.3215   0.1073   0.8048     C
C       0.3215   0.2142   0.3048     C
C       0.3215   0.2142   0.6952     C
Gd     0.33333  0.66666     0.25    Gd
Gd     0.33333  0.66666     0.75    Gd
C       0.3527   0.4916   0.1385     C
C       0.3527   0.4916   0.8615     C
C       0.3527   0.8611   0.3615     C
C       0.3527   0.8611   0.6385     C
O       0.3847   0.4471   0.0921     O
O       0.3847   0.4471   0.9079     O
O       0.3847   0.9376   0.4079     O
O       0.3847   0.9376   0.5921     O
O       0.3869   0.5862   0.1433     O
O       0.3869   0.5862   0.8567     O
O       0.3869   0.8007   0.3567     O
O       0.3869   0.8007   0.6433     O
O       0.4138   0.6131   0.3567     O
O       0.4138   0.6131   0.6433     O
O       0.4138   0.8007   0.1433     O
O       0.4138   0.8007   0.8567     O
C        0.426   0.1617   0.1959     C
C        0.426   0.1617   0.8041     C
C        0.426   0.2643   0.3041     C
C        0.426   0.2643   0.6959     C
O       0.4471   0.0624   0.0921     O
O       0.4471   0.0624   0.9079     O
O       0.4471   0.3847   0.4079     O
O       0.4471   0.3847   0.5921     O
N       0.4777  0.23885     0.25     N
N       0.4777  0.23885     0.75     N
C       0.4916   0.1389   0.1385     C
C       0.4916   0.1389   0.8615     C
C       0.4916   0.3527   0.3615     C
C       0.4916   0.3527   0.6385     C
Fe         0.5      0.0      0.0    Fe
Fe         0.5      0.0      0.5    Fe
Fe         0.5      0.5      0.0    Fe
Fe         0.5      0.5      0.5    Fe
C       0.5084   0.6473   0.3615     C
C       0.5084   0.6473   0.6385     C
C       0.5084   0.8611   0.1385     C
C       0.5084   0.8611   0.8615     C
N       0.5223  0.76115     0.25     N
N       0.5223  0.76115     0.75     N
O       0.5529   0.6153   0.4079     O
O       0.5529   0.6153   0.5921     O
O       0.5529   0.9376   0.0921     O
O       0.5529   0.9376   0.9079     O
C        0.574   0.7357   0.3041     C
C        0.574   0.7357   0.6959     C
C        0.574   0.8383   0.1959     C
C        0.574   0.8383   0.8041     C
O       0.5862   0.1993   0.1433     O
O       0.5862   0.1993   0.8567     O
O       0.5862   0.3869   0.3567     O
O       0.5862   0.3869   0.6433     O
O       0.6131   0.1993   0.3567     O
O       0.6131   0.1993   0.6433     O
O       0.6131   0.4138   0.1433     O
O       0.6131   0.4138   0.8567     O
O       0.6153   0.0624   0.4079     O
O       0.6153   0.0624   0.5921     O
O       0.6153   0.5529   0.0921     O
O       0.6153   0.5529   0.9079     O
C       0.6473   0.1389   0.3615     C
C       0.6473   0.1389   0.6385     C
C       0.6473   0.5084   0.1385     C
C       0.6473   0.5084   0.8615     C
Gd     0.66667  0.33334     0.25    Gd
Gd     0.66667  0.33334     0.75    Gd
C       0.6785   0.7858   0.3048     C
C       0.6785   0.7858   0.6952     C
C       0.6785   0.8927   0.1952     C
C       0.6785   0.8927   0.8048     C
H       0.7131   0.7659   0.3419     H
H       0.7131   0.7659   0.6581     H
H       0.7131   0.9472   0.1581     H
H       0.7131   0.9472   0.8419     H
C       0.7297  0.86485     0.25     C
C       0.7297  0.86485     0.75     C
C       0.7357   0.1617   0.3041     C
C       0.7357   0.1617   0.6959     C
C       0.7357    0.574   0.1959     C
C       0.7357    0.574   0.8041     C
N      0.76115  0.23885     0.25     N
N      0.76115  0.23885     0.75     N
N      0.76115   0.5223     0.25     N
N      0.76115   0.5223     0.75     N
H       0.7659   0.0528   0.3419     H
H       0.7659   0.0528   0.6581     H
H       0.7659   0.7131   0.1581     H
H       0.7659   0.7131   0.8419     H
C       0.7858   0.1073   0.3048     C
C       0.7858   0.1073   0.6952     C
C       0.7858   0.6785   0.1952     C
C       0.7858   0.6785   0.8048     C
H       0.7999  0.89995     0.25     H
H       0.7999  0.89995     0.75     H
O       0.8007   0.3869   0.1433     O
O       0.8007   0.3869   0.8567     O
O       0.8007   0.4138   0.3567     O
O       0.8007   0.4138   0.6433     O
C       0.8383   0.2643   0.1959     C
C       0.8383   0.2643   0.8041     C
C       0.8383    0.574   0.3041     C
C       0.8383    0.574   0.6959     C
C       0.8611   0.3527   0.1385     C
C       0.8611   0.3527   0.8615     C
C       0.8611   0.5084   0.3615     C
C       0.8611   0.5084   0.6385     C
C      0.86485  0.13515     0.25     C
C      0.86485  0.13515     0.75     C
C      0.86485   0.7297     0.25     C
C      0.86485   0.7297     0.75     C
C       0.8927   0.2142   0.1952     C
C       0.8927   0.2142   0.8048     C
C       0.8927   0.6785   0.3048     C
C       0.8927   0.6785   0.6952     C
H      0.89995  0.10005     0.25     H
H      0.89995  0.10005     0.75     H
H      0.89995   0.7999     0.25     H
H      0.89995   0.7999     0.75     H
O       0.9376   0.3847   0.0921     O
O       0.9376   0.3847   0.9079     O
O       0.9376   0.5529   0.4079     O
O       0.9376   0.5529   0.5921     O
H       0.9472   0.2341   0.1581     H
H       0.9472   0.2341   0.8419     H
H       0.9472   0.7131   0.3419     H
H       0.9472   0.7131   0.6581     H
