data_I
_chemical_name_common  '/home/zhangsd/repos/MofS-CGCNN/ML/data/SSD/clean_cifs/DUFZOU_clean'
_cell_length_a 15.23800
_cell_length_b 15.23800
_cell_length_c 15.66300
_cell_angle_alpha 90.00000
_cell_angle_beta  90.00000
_cell_angle_gamma 120.00000
_space_group_name_H-M_alt      'P 1'


loop_
_space_group_symop_operation_xyz
  'x, y, z' 

loop_
_atom_site_label
_atom_site_fract_x
_atom_site_fract_y
_atom_site_fract_z
_atom_site_type_symbol
Fe         0.0      0.5      0.0    Fe
Fe         0.0      0.5      0.5    Fe
H       0.0562   0.2873   0.3453     H
H       0.0562   0.2873   0.6547     H
H       0.0562   0.7689   0.1547     H
H       0.0562   0.7689   0.8453     H
O       0.0632   0.4475   0.4085     O
O       0.0632   0.4475   0.5915     O
O       0.0632   0.6157   0.0915     O
O       0.0632   0.6157   0.9085     O
H      0.09975   0.1995     0.25     H
H      0.09975   0.1995     0.75     H
H      0.09975  0.90025     0.25     H
H      0.09975  0.90025     0.75     H
C       0.1085   0.3217   0.3064     C
C       0.1085   0.3217   0.6936     C
C       0.1085   0.7868   0.1936     C
C       0.1085   0.7868   0.8064     C
C        0.135     0.27     0.25     C
C        0.135     0.27     0.75     C
C        0.135    0.865     0.25     C
C        0.135    0.865     0.75     C
C       0.1391   0.4916   0.3613     C
C       0.1391   0.4916   0.6387     C
C       0.1391   0.6475   0.1387     C
C       0.1391   0.6475   0.8613     C
C       0.1617    0.426   0.3039     C
C       0.1617    0.426   0.6961     C
C       0.1617   0.7357   0.1961     C
C       0.1617   0.7357   0.8039     C
O       0.1987   0.5867  0.35649     O
O       0.1987   0.5867  0.64351     O
O       0.1987    0.612  0.14351     O
O       0.1987    0.612  0.85649     O
H       0.1995  0.09975     0.25     H
H       0.1995  0.09975     0.75     H
C       0.2132   0.3217   0.1936     C
C       0.2132   0.3217   0.8064     C
C       0.2132   0.8915   0.3064     C
C       0.2132   0.8915   0.6936     C
H       0.2311   0.2873   0.1547     H
H       0.2311   0.2873   0.8453     H
H       0.2311   0.9438   0.3453     H
H       0.2311   0.9438   0.6547     H
N      0.23865   0.4773     0.25     N
N      0.23865   0.4773     0.75     N
N      0.23865  0.76135     0.25     N
N      0.23865  0.76135     0.75     N
C       0.2643    0.426   0.1961     C
C       0.2643    0.426   0.8039     C
C       0.2643   0.8383   0.3039     C
C       0.2643   0.8383   0.6961     C
C         0.27    0.135     0.25     C
C         0.27    0.135     0.75     C
H       0.2873   0.0562   0.1547     H
H       0.2873   0.0562   0.8453     H
H       0.2873   0.2311   0.3453     H
H       0.2873   0.2311   0.6547     H
C       0.3217   0.1085   0.1936     C
C       0.3217   0.1085   0.8064     C
C       0.3217   0.2132   0.3064     C
C       0.3217   0.2132   0.6936     C
Eu     0.33333  0.66666     0.25    Eu
Eu     0.33333  0.66666     0.75    Eu
C       0.3525   0.4916   0.1387     C
C       0.3525   0.4916   0.8613     C
C       0.3525   0.8609   0.3613     C
C       0.3525   0.8609   0.6387     C
O       0.3843   0.4475   0.0915     O
O       0.3843   0.4475   0.9085     O
O       0.3843   0.9368   0.4085     O
O       0.3843   0.9368   0.5915     O
O        0.388   0.5867  0.14351     O
O        0.388   0.5867  0.85649     O
O        0.388   0.8013  0.35649     O
O        0.388   0.8013  0.64351     O
O       0.4133    0.612  0.35649     O
O       0.4133    0.612  0.64351     O
O       0.4133   0.8013  0.14351     O
O       0.4133   0.8013  0.85649     O
C        0.426   0.1617   0.1961     C
C        0.426   0.1617   0.8039     C
C        0.426   0.2643   0.3039     C
C        0.426   0.2643   0.6961     C
O       0.4475   0.0632   0.0915     O
O       0.4475   0.0632   0.9085     O
O       0.4475   0.3843   0.4085     O
O       0.4475   0.3843   0.5915     O
N       0.4773  0.23865     0.25     N
N       0.4773  0.23865     0.75     N
C       0.4916   0.1391   0.1387     C
C       0.4916   0.1391   0.8613     C
C       0.4916   0.3525   0.3613     C
C       0.4916   0.3525   0.6387     C
Fe         0.5      0.0      0.0    Fe
Fe         0.5      0.0      0.5    Fe
Fe         0.5      0.5      0.0    Fe
Fe         0.5      0.5      0.5    Fe
C       0.5084   0.6475   0.3613     C
C       0.5084   0.6475   0.6387     C
C       0.5084   0.8609   0.1387     C
C       0.5084   0.8609   0.8613     C
N       0.5227  0.76135     0.25     N
N       0.5227  0.76135     0.75     N
O       0.5525   0.6157   0.4085     O
O       0.5525   0.6157   0.5915     O
O       0.5525   0.9368   0.0915     O
O       0.5525   0.9368   0.9085     O
C        0.574   0.7357   0.3039     C
C        0.574   0.7357   0.6961     C
C        0.574   0.8383   0.1961     C
C        0.574   0.8383   0.8039     C
O       0.5867   0.1987  0.14351     O
O       0.5867   0.1987  0.85649     O
O       0.5867    0.388  0.35649     O
O       0.5867    0.388  0.64351     O
O        0.612   0.1987  0.35649     O
O        0.612   0.1987  0.64351     O
O        0.612   0.4133  0.14351     O
O        0.612   0.4133  0.85649     O
O       0.6157   0.0632   0.4085     O
O       0.6157   0.0632   0.5915     O
O       0.6157   0.5525   0.0915     O
O       0.6157   0.5525   0.9085     O
C       0.6475   0.1391   0.3613     C
C       0.6475   0.1391   0.6387     C
C       0.6475   0.5084   0.1387     C
C       0.6475   0.5084   0.8613     C
Eu     0.66667  0.33334     0.25    Eu
Eu     0.66667  0.33334     0.75    Eu
C       0.6783   0.7868   0.3064     C
C       0.6783   0.7868   0.6936     C
C       0.6783   0.8915   0.1936     C
C       0.6783   0.8915   0.8064     C
H       0.7127   0.7689   0.3453     H
H       0.7127   0.7689   0.6547     H
H       0.7127   0.9438   0.1547     H
H       0.7127   0.9438   0.8453     H
C         0.73    0.865     0.25     C
C         0.73    0.865     0.75     C
C       0.7357   0.1617   0.3039     C
C       0.7357   0.1617   0.6961     C
C       0.7357    0.574   0.1961     C
C       0.7357    0.574   0.8039     C
N      0.76135  0.23865     0.25     N
N      0.76135  0.23865     0.75     N
N      0.76135   0.5227     0.25     N
N      0.76135   0.5227     0.75     N
H       0.7689   0.0562   0.3453     H
H       0.7689   0.0562   0.6547     H
H       0.7689   0.7127   0.1547     H
H       0.7689   0.7127   0.8453     H
C       0.7868   0.1085   0.3064     C
C       0.7868   0.1085   0.6936     C
C       0.7868   0.6783   0.1936     C
C       0.7868   0.6783   0.8064     C
H       0.8005  0.90025     0.25     H
H       0.8005  0.90025     0.75     H
O       0.8013    0.388  0.14351     O
O       0.8013    0.388  0.85649     O
O       0.8013   0.4133  0.35649     O
O       0.8013   0.4133  0.64351     O
C       0.8383   0.2643   0.1961     C
C       0.8383   0.2643   0.8039     C
C       0.8383    0.574   0.3039     C
C       0.8383    0.574   0.6961     C
C       0.8609   0.3525   0.1387     C
C       0.8609   0.3525   0.8613     C
C       0.8609   0.5084   0.3613     C
C       0.8609   0.5084   0.6387     C
C        0.865    0.135     0.25     C
C        0.865    0.135     0.75     C
C        0.865     0.73     0.25     C
C        0.865     0.73     0.75     C
C       0.8915   0.2132   0.1936     C
C       0.8915   0.2132   0.8064     C
C       0.8915   0.6783   0.3064     C
C       0.8915   0.6783   0.6936     C
H      0.90025  0.09975     0.25     H
H      0.90025  0.09975     0.75     H
H      0.90025   0.8005     0.25     H
H      0.90025   0.8005     0.75     H
O       0.9368   0.3843   0.0915     O
O       0.9368   0.3843   0.9085     O
O       0.9368   0.5525   0.4085     O
O       0.9368   0.5525   0.5915     O
H       0.9438   0.2311   0.1547     H
H       0.9438   0.2311   0.8453     H
H       0.9438   0.7127   0.3453     H
H       0.9438   0.7127   0.6547     H
