data_I
_chemical_name_common  '/home/zhangsd/repos/MofS-CGCNN/ML/data/SSD/clean_cifs/DUNJON_clean'
_cell_length_a 29.32500
_cell_length_b 13.41300
_cell_length_c 36.01600
_cell_angle_alpha 90.00000
_cell_angle_beta  90.00000
_cell_angle_gamma 90.00000
_space_group_name_H-M_alt      'P 1'


loop_
_space_group_symop_operation_xyz
  'x, y, z' 

loop_
_atom_site_label
_atom_site_fract_x
_atom_site_fract_y
_atom_site_fract_z
_atom_site_type_symbol
H        0.003   0.1057   0.8374     H
H        0.003   0.3943   0.3374     H
O       0.0041    0.559   0.1629     O
O       0.0041    0.941   0.6629     O
O       0.0054   0.0692   0.5947     O
O       0.0054   0.4308   0.0947     O
W      0.00544  0.57798  0.83584     W
W      0.00544  0.92202  0.33584     W
O       0.0055   0.7289   0.9583     O
O       0.0055   0.7711   0.4583     O
W      0.00588  0.74767  0.90879     W
W      0.00588  0.75233  0.40879     W
O        0.007    0.708   0.8559     O
O        0.007    0.792   0.3559     O
O       0.0097   0.2244    0.373     O
O       0.0097   0.2756    0.873     O
O       0.0193   0.6011   0.7898     O
O       0.0193   0.8989   0.2898     O
Co     0.02105  0.61394  0.99294    Co
Co     0.02105  0.88606  0.49294    Co
O       0.0212    0.716   0.5644     O
O       0.0212    0.784   0.0644     O
N       0.0248   0.0974    0.786     N
N       0.0248   0.4026    0.286     N
C       0.0289   0.0937   0.8232     C
C       0.0289   0.4063   0.3232     C
O       0.0301   0.1501   0.4708     O
O       0.0301   0.3499   0.9708     O
Co     0.03013  0.67661  0.73851    Co
Co     0.03013  0.82339  0.23851    Co
W      0.03058  0.20293  0.42397     W
W      0.03058  0.29707  0.92397     W
O       0.0339   0.0199   0.5314     O
O       0.0339   0.4801   0.0314     O
O       0.0366   0.6021   0.0856     O
O       0.0366   0.8979   0.5856     O
P      0.04103   0.0083  0.57352     P
P      0.04103   0.4917  0.07352     P
W      0.04314  0.67341   0.1495     W
W      0.04314  0.82659   0.6495     W
O       0.0442    0.745   0.1895     O
O       0.0442    0.755   0.6895     O
H       0.0508   0.7178   0.3106     H
H       0.0508   0.7822   0.8106     H
O       0.0594   0.2466   0.0941     O
O       0.0594   0.2534   0.5941     O
H       0.0595   0.0736   0.7407     H
O       0.0595   0.0924   0.6649     O
O       0.0595   0.4076   0.1649     O
H       0.0595   0.4264   0.2407     H
C       0.0618   0.0753   0.7664     C
O       0.0618   0.0909   0.4057     O
O       0.0618   0.4091   0.9057     O
C       0.0618   0.4247   0.2664     C
O       0.0628   0.5518   0.8575     O
O       0.0628   0.9482   0.3575     O
O        0.066   0.5396   0.9601     O
O        0.066   0.9604   0.4601     O
O       0.0672   0.6858   0.9085     O
O       0.0672   0.8142   0.4085     O
C       0.0701   0.0724    0.842     C
C       0.0701   0.4276    0.342     C
H       0.0716   0.0679   0.8677     H
H       0.0716   0.4321   0.3677     H
O       0.0719   0.6856   0.0186     O
O       0.0719   0.8144   0.5186     O
H       0.0725   0.1536   0.3361     H
H       0.0725   0.3464   0.8361     H
W      0.07824  0.54914  0.91028     W
W      0.07824  0.95086  0.41028     W
O       0.0793   0.7498   0.6181     O
O       0.0793   0.7502   0.1181     O
C       0.0796   0.7178   0.2999     C
C       0.0796   0.7822   0.7999     C
N       0.0829   0.7393   0.2637     N
N       0.0829   0.7607   0.7637     N
W      0.08437  0.73592  0.06265     W
W      0.08437  0.76408  0.56265     W
Co     0.08652   0.0759  0.49528    Co
Co     0.08652   0.4241  0.99528    Co
O        0.089   0.0452   0.5852     O
O        0.089   0.4548   0.0852     O
N       0.0922   0.1891   0.2865     N
N       0.0922   0.3109   0.7865     N
O       0.0929   0.5837    0.155     O
O       0.0929   0.9163    0.655     O
C        0.098   0.1712   0.3222     C
C        0.098   0.3288   0.8222     C
O       0.0981   0.1939   0.5302     O
O       0.0981   0.3061   0.0302     O
C       0.1049   0.0541   0.7828     C
C       0.1049   0.4459   0.2828     C
C       0.1075   0.0591   0.8203     C
C       0.1075   0.4409   0.3203     C
H        0.112   0.6814   0.3467     H
H        0.112   0.8186   0.8467     H
C       0.1158   0.6962   0.3216     C
C       0.1158   0.8038   0.8216     C
W      0.11776  0.21223   0.5764     W
W      0.11776  0.28777   0.0764     W
H       0.1188   0.5554    0.812     H
H       0.1188   0.9446    0.312     H
W      0.11918  0.04813  0.65186     W
W      0.11918  0.45187  0.15186     W
C       0.1248   0.7309   0.2477     C
C       0.1248   0.7691   0.7477     C
H       0.1276   0.2213   0.2413     H
H       0.1276   0.2787   0.7413     H
H       0.1276   0.7403   0.2222     H
H       0.1276   0.7597   0.7222     H
O       0.1287   0.1736   0.6302     O
O       0.1287   0.3264   0.1302     O
H       0.1302   0.0376   0.7684     H
H       0.1302   0.4624   0.2684     H
C       0.1307   0.2085   0.2666     C
C       0.1307   0.2915   0.7666     C
O       0.1328   0.6477   0.0735     O
O       0.1328   0.8523   0.5735     O
H       0.1353   0.0863   0.9407     H
H       0.1353   0.4137   0.4407     H
O       0.1368   0.5067   0.0205     O
O       0.1368   0.9933   0.5205     O
C       0.1393   0.1771   0.3405     C
C       0.1393   0.3229   0.8405     C
H       0.1414     0.17   0.3661     H
H       0.1414     0.33   0.8661     H
H       0.1437   0.1141   0.0037     H
H       0.1437   0.3859   0.5037     H
C       0.1476   0.5519   0.8013     C
C       0.1476   0.9481   0.3013     C
O       0.1488   0.1761   0.0745     O
O       0.1488   0.3239   0.5745     O
H       0.1496   0.7095   0.4906     H
H       0.1496   0.7905   0.9906     H
N       0.1515   0.5429   0.7635     N
N       0.1515   0.9571   0.2635     N
C       0.1542    0.058   0.8385     C
C       0.1542    0.442   0.3385     C
N       0.1559   0.0665   0.8751     N
N       0.1559   0.4335   0.3751     N
H        0.156   0.7137   0.4282     H
H        0.156   0.7863   0.9282     H
C       0.1593   0.6965   0.3055     C
C       0.1593   0.8035   0.8055     C
W      0.16096   0.5204  0.06495     W
W      0.16096   0.9796  0.56495     W
C       0.1632   0.7089    0.268     C
C       0.1632   0.7911    0.768     C
O       0.1636   0.5085   0.1208     O
O       0.1636   0.9915   0.6208     O
C       0.1642   0.0921   0.9511     C
C       0.1642   0.4079   0.4511     C
O       0.1683   0.1239   0.5687     O
O       0.1683   0.3761   0.0687     O
C       0.1698   0.1066   0.9893     C
C       0.1698   0.3934   0.4893     C
C       0.1735   0.2103   0.2815     C
C       0.1735   0.2897   0.7815     C
C       0.1775   0.1939   0.3189     C
C       0.1775   0.3061   0.8189     C
C       0.1775   0.6923   0.4801     C
C       0.1775   0.8077   0.9801     C
C       0.1809   0.6967   0.4428     C
C       0.1809   0.8033   0.9428     C
H       0.1816    0.563    0.849     H
H       0.1816    0.937    0.349     H
C       0.1851   0.5557   0.8235     C
C       0.1851   0.9443   0.3235     C
N         0.19   0.0483   0.8158     N
N         0.19   0.4517   0.3158     N
H       0.1914   0.7025   0.2564     H
H       0.1914   0.7975   0.7564     H
N       0.1933   0.6815   0.3653     N
N       0.1933   0.8185   0.8653     N
C       0.1944    0.535   0.7496     C
C       0.1944    0.965   0.2496     C
C       0.1974   0.0726   0.8884     C
C       0.1974   0.4274   0.3884     C
H       0.1976   0.5269   0.7241     H
H       0.1976   0.9731   0.2241     H
H        0.199   0.2222   0.2668     H
H        0.199   0.2778   0.7668     H
C       0.2007   0.6891   0.3289     C
C       0.2007   0.8109   0.8289     C
C       0.2023   0.0867   0.9293     C
C       0.2023   0.4133   0.4293     C
N       0.2094   0.1104   0.0061     N
N       0.2094   0.3896   0.5061     N
N       0.2107   0.6654    0.503     N
N       0.2107   0.8346    0.003     N
H       0.2147   0.1293   0.4405     H
H       0.2147   0.3707   0.9405     H
Co     0.21568  0.10965  0.06523    Co
Co     0.21568  0.39035  0.56523    Co
O       0.2177   0.5549   0.0579     O
O       0.2177   0.9451   0.5579     O
C       0.2225   0.6753   0.4272     C
C       0.2225   0.8247   0.9272     C
C       0.2242   0.1888   0.3369     C
C       0.2242   0.3112   0.8369     C
H       0.2254   0.6158   0.9944     H
H       0.2254   0.8842   0.4944     H
H       0.2264   0.1235   0.5024     H
H       0.2264   0.3765   0.0024     H
N       0.2274    0.185   0.3735     N
N       0.2274    0.315   0.8735     N
C       0.2287   0.5488   0.8082     C
C       0.2287   0.9512   0.3082     C
H       0.2292   0.5885   0.9323     H
H       0.2292   0.9115   0.4323     H
C       0.2296   0.0551   0.8325     C
C       0.2296   0.4449   0.3325     C
C       0.2298   0.6799   0.3861     C
C       0.2298   0.8201   0.8861     C
C       0.2328   0.5381   0.7704     C
C       0.2328   0.9619   0.2704     C
N        0.236   0.0666   0.8685     N
N        0.236   0.4334   0.3685     N
H       0.2387   0.0331   0.7593     H
H       0.2387   0.4669   0.2593     H
N       0.2411   0.6941   0.3135     N
N       0.2411   0.8059   0.8135     N
C        0.243   0.1464   0.4502     C
C        0.243   0.3536   0.9502     C
C       0.2442   0.0934   0.9462     C
C       0.2442   0.4066   0.4462     C
C        0.246   0.1076   0.9837     C
C        0.246   0.3924   0.4837     C
C       0.2496    0.643   0.4872     C
C       0.2496    0.857   0.9872     C
C       0.2504    0.143   0.4872     C
C       0.2504    0.357   0.9872     C
C        0.254   0.6076   0.9837     C
C        0.254   0.8924   0.4837     C
C       0.2558   0.5934   0.9462     C
C       0.2558   0.9066   0.4462     C
C        0.257   0.6464   0.4502     C
C        0.257   0.8536   0.9502     C
N       0.2589   0.1941   0.3135     N
N       0.2589   0.3059   0.8135     N
H       0.2613   0.5331   0.7593     H
H       0.2613   0.9669   0.2593     H
N        0.264   0.5666   0.8685     N
N        0.264   0.9334   0.3685     N
C       0.2672   0.0381   0.7704     C
C       0.2672   0.4619   0.2704     C
C       0.2702   0.1799   0.3861     C
C       0.2702   0.3201   0.8861     C
C       0.2704   0.5551   0.8325     C
C       0.2704   0.9449   0.3325     C
H       0.2708   0.0885   0.9323     H
H       0.2708   0.4115   0.4323     H
C       0.2713   0.0488   0.8082     C
C       0.2713   0.4512   0.3082     C
N       0.2726    0.685   0.3735     N
N       0.2726    0.815   0.8735     N
H       0.2736   0.6235   0.5024     H
H       0.2736   0.8765   0.0024     H
H       0.2746   0.1158   0.9944     H
H       0.2746   0.3842   0.4944     H
C       0.2758   0.6888   0.3369     C
C       0.2758   0.8112   0.8369     C
C       0.2775   0.1753   0.4272     C
C       0.2775   0.3247   0.9272     C
O       0.2823   0.0549   0.0579     O
O       0.2823   0.4451   0.5579     O
Co     0.28432  0.60965  0.06523    Co
Co     0.28432  0.89035  0.56523    Co
H       0.2853   0.6293   0.4405     H
H       0.2853   0.8707   0.9405     H
N       0.2893   0.1654    0.503     N
N       0.2893   0.3346    0.003     N
N       0.2906   0.6104   0.0061     N
N       0.2906   0.8896   0.5061     N
C       0.2977   0.5867   0.9293     C
C       0.2977   0.9133   0.4293     C
C       0.2993   0.1891   0.3289     C
C       0.2993   0.3109   0.8289     C
H        0.301   0.7222   0.2668     H
H        0.301   0.7778   0.7668     H
H       0.3024   0.0269   0.7241     H
H       0.3024   0.4731   0.2241     H
C       0.3026   0.5726   0.8884     C
C       0.3026   0.9274   0.3884     C
C       0.3056    0.035   0.7496     C
C       0.3056    0.465   0.2496     C
N       0.3067   0.1815   0.3653     N
N       0.3067   0.3185   0.8653     N
H       0.3086   0.2025   0.2564     H
H       0.3086   0.2975   0.7564     H
N         0.31   0.5483   0.8158     N
N         0.31   0.9517   0.3158     N
C       0.3149   0.0557   0.8235     C
C       0.3149   0.4443   0.3235     C
H       0.3184    0.063    0.849     H
H       0.3184    0.437    0.349     H
C       0.3191   0.1967   0.4428     C
C       0.3191   0.3033   0.9428     C
C       0.3225   0.1923   0.4801     C
C       0.3225   0.3077   0.9801     C
C       0.3225   0.6939   0.3189     C
C       0.3225   0.8061   0.8189     C
C       0.3265   0.7103   0.2815     C
C       0.3265   0.7897   0.7815     C
C       0.3302   0.6066   0.9893     C
C       0.3302   0.8934   0.4893     C
O       0.3317   0.6239   0.5687     O
O       0.3317   0.8761   0.0687     O
C       0.3358   0.5921   0.9511     C
C       0.3358   0.9079   0.4511     C
O       0.3364   0.0085   0.1208     O
O       0.3364   0.4915   0.6208     O
C       0.3368   0.2089    0.268     C
C       0.3368   0.2911    0.768     C
W      0.33904   0.0204  0.06495     W
W      0.33904   0.4796  0.56495     W
C       0.3407   0.1965   0.3055     C
C       0.3407   0.3035   0.8055     C
H        0.344   0.2137   0.4282     H
H        0.344   0.2863   0.9282     H
N       0.3441   0.5665   0.8751     N
N       0.3441   0.9335   0.3751     N
C       0.3458    0.558   0.8385     C
C       0.3458    0.942   0.3385     C
N       0.3485   0.0429   0.7635     N
N       0.3485   0.4571   0.2635     N
H       0.3504   0.2095   0.4906     H
H       0.3504   0.2905   0.9906     H
O       0.3512   0.6761   0.0745     O
O       0.3512   0.8239   0.5745     O
C       0.3524   0.0519   0.8013     C
C       0.3524   0.4481   0.3013     C
H       0.3563   0.6141   0.0037     H
H       0.3563   0.8859   0.5037     H
H       0.3586     0.67   0.3661     H
H       0.3586     0.83   0.8661     H
C       0.3607   0.6771   0.3405     C
C       0.3607   0.8229   0.8405     C
O       0.3632   0.0067   0.0205     O
O       0.3632   0.4933   0.5205     O
H       0.3647   0.5863   0.9407     H
H       0.3647   0.9137   0.4407     H
O       0.3672   0.1477   0.0735     O
O       0.3672   0.3523   0.5735     O
C       0.3693   0.7085   0.2666     C
C       0.3693   0.7915   0.7666     C
H       0.3698   0.5376   0.7684     H
H       0.3698   0.9624   0.2684     H
O       0.3713   0.6736   0.6302     O
O       0.3713   0.8264   0.1302     O
H       0.3724   0.2403   0.2222     H
H       0.3724   0.2597   0.7222     H
H       0.3724   0.7213   0.2413     H
H       0.3724   0.7787   0.7413     H
C       0.3752   0.2309   0.2477     C
C       0.3752   0.2691   0.7477     C
W      0.38082  0.54813  0.65186     W
W      0.38082  0.95187  0.15186     W
H       0.3812   0.0554    0.812     H
H       0.3812   0.4446    0.312     H
W      0.38224  0.71223   0.5764     W
W      0.38224  0.78777   0.0764     W
C       0.3842   0.1962   0.3216     C
C       0.3842   0.3038   0.8216     C
H        0.388   0.1814   0.3467     H
H        0.388   0.3186   0.8467     H
C       0.3925   0.5591   0.8203     C
C       0.3925   0.9409   0.3203     C
C       0.3951   0.5541   0.7828     C
C       0.3951   0.9459   0.2828     C
O       0.4019   0.6939   0.5302     O
O       0.4019   0.8061   0.0302     O
C        0.402   0.6712   0.3222     C
C        0.402   0.8288   0.8222     C
O       0.4071   0.0837    0.155     O
O       0.4071   0.4163    0.655     O
N       0.4078   0.6891   0.2865     N
N       0.4078   0.8109   0.7865     N
O        0.411   0.5452   0.5852     O
O        0.411   0.9548   0.0852     O
Co     0.41348   0.5759  0.49528    Co
Co     0.41348   0.9241  0.99528    Co
W      0.41563  0.23592  0.06265     W
W      0.41563  0.26408  0.56265     W
N       0.4171   0.2393   0.2637     N
N       0.4171   0.2607   0.7637     N
C       0.4204   0.2178   0.2999     C
C       0.4204   0.2822   0.7999     C
O       0.4207   0.2498   0.6181     O
O       0.4207   0.2502   0.1181     O
W      0.42176  0.04914  0.91028     W
W      0.42176  0.45086  0.41028     W
H       0.4275   0.6536   0.3361     H
H       0.4275   0.8464   0.8361     H
O       0.4281   0.1856   0.0186     O
O       0.4281   0.3144   0.5186     O
H       0.4284   0.5679   0.8677     H
H       0.4284   0.9321   0.3677     H
C       0.4299   0.5724    0.842     C
C       0.4299   0.9276    0.342     C
O       0.4328   0.1858   0.9085     O
O       0.4328   0.3142   0.4085     O
O        0.434   0.0396   0.9601     O
O        0.434   0.4604   0.4601     O
O       0.4372   0.0518   0.8575     O
O       0.4372   0.4482   0.3575     O
C       0.4382   0.5753   0.7664     C
O       0.4382   0.5909   0.4057     O
O       0.4382   0.9091   0.9057     O
C       0.4382   0.9247   0.2664     C
H       0.4405   0.5736   0.7407     H
O       0.4405   0.5924   0.6649     O
O       0.4405   0.9076   0.1649     O
H       0.4405   0.9264   0.2407     H
O       0.4406   0.7466   0.0941     O
O       0.4406   0.7534   0.5941     O
H       0.4492   0.2178   0.3106     H
H       0.4492   0.2822   0.8106     H
O       0.4558    0.245   0.1895     O
O       0.4558    0.255   0.6895     O
W      0.45686  0.17341   0.1495     W
W      0.45686  0.32659   0.6495     W
P      0.45897   0.5083  0.57352     P
P      0.45897   0.9917  0.07352     P
O       0.4634   0.1021   0.0856     O
O       0.4634   0.3979   0.5856     O
O       0.4661   0.5199   0.5314     O
O       0.4661   0.9801   0.0314     O
W      0.46942  0.70293  0.42397     W
W      0.46942  0.79707  0.92397     W
Co     0.46987  0.17661  0.73851    Co
Co     0.46987  0.32339  0.23851    Co
O       0.4699   0.6501   0.4708     O
O       0.4699   0.8499   0.9708     O
C       0.4711   0.5937   0.8232     C
C       0.4711   0.9063   0.3232     C
N       0.4752   0.5974    0.786     N
N       0.4752   0.9026    0.286     N
O       0.4788    0.216   0.5644     O
O       0.4788    0.284   0.0644     O
Co     0.47895  0.11394  0.99294    Co
Co     0.47895  0.38606  0.49294    Co
O       0.4807   0.1011   0.7898     O
O       0.4807   0.3989   0.2898     O
O       0.4903   0.7244    0.373     O
O       0.4903   0.7756    0.873     O
O        0.493    0.208   0.8559     O
O        0.493    0.292   0.3559     O
W      0.49412  0.24767  0.90879     W
W      0.49412  0.25233  0.40879     W
O       0.4945   0.2289   0.9583     O
O       0.4945   0.2711   0.4583     O
W      0.49456  0.07798  0.83584     W
W      0.49456  0.42202  0.33584     W
O       0.4946   0.5692   0.5947     O
O       0.4946   0.9308   0.0947     O
O       0.4959    0.059   0.1629     O
O       0.4959    0.441   0.6629     O
H        0.497   0.6057   0.8374     H
H        0.497   0.8943   0.3374     H
H        0.503   0.1057   0.6626     H
H        0.503   0.3943   0.1626     H
O       0.5041    0.559   0.3371     O
O       0.5041    0.941   0.8371     O
O       0.5054   0.0692   0.9053     O
O       0.5054   0.4308   0.4053     O
W      0.50544  0.57798  0.66416     W
W      0.50544  0.92202  0.16416     W
O       0.5055   0.7289   0.5417     O
O       0.5055   0.7711   0.0417     O
W      0.50588  0.74767  0.59121     W
W      0.50588  0.75233  0.09121     W
O        0.507    0.708   0.6441     O
O        0.507    0.792   0.1441     O
O       0.5097   0.2244    0.127     O
O       0.5097   0.2756    0.627     O
O       0.5193   0.6011   0.7102     O
O       0.5193   0.8989   0.2102     O
Co     0.52105  0.61394  0.50706    Co
Co     0.52105  0.88606  0.00706    Co
O       0.5212    0.716   0.9356     O
O       0.5212    0.784   0.4356     O
N       0.5248   0.0974    0.714     N
N       0.5248   0.4026    0.214     N
C       0.5289   0.0937   0.6768     C
C       0.5289   0.4063   0.1768     C
O       0.5301   0.1501   0.0292     O
O       0.5301   0.3499   0.5292     O
Co     0.53013  0.67661  0.76149    Co
Co     0.53013  0.82339  0.26149    Co
W      0.53058  0.20293  0.07603     W
W      0.53058  0.29707  0.57603     W
O       0.5339   0.0199   0.9686     O
O       0.5339   0.4801   0.4686     O
O       0.5366   0.6021   0.4144     O
O       0.5366   0.8979   0.9144     O
P      0.54103   0.0083  0.92648     P
P      0.54103   0.4917  0.42648     P
W      0.54314  0.67341   0.3505     W
W      0.54314  0.82659   0.8505     W
O       0.5442    0.745   0.3105     O
O       0.5442    0.755   0.8105     O
H       0.5508   0.7178   0.1894     H
H       0.5508   0.7822   0.6894     H
O       0.5594   0.2466   0.4059     O
O       0.5594   0.2534   0.9059     O
H       0.5595   0.0736   0.7593     H
O       0.5595   0.0924   0.8351     O
O       0.5595   0.4076   0.3351     O
H       0.5595   0.4264   0.2593     H
C       0.5618   0.0753   0.7336     C
O       0.5618   0.0909   0.0943     O
O       0.5618   0.4091   0.5943     O
C       0.5618   0.4247   0.2336     C
O       0.5628   0.5518   0.6425     O
O       0.5628   0.9482   0.1425     O
O        0.566   0.5396   0.5399     O
O        0.566   0.9604   0.0399     O
O       0.5672   0.6858   0.5915     O
O       0.5672   0.8142   0.0915     O
C       0.5701   0.0724    0.658     C
C       0.5701   0.4276    0.158     C
H       0.5716   0.0679   0.6323     H
H       0.5716   0.4321   0.1323     H
O       0.5719   0.6856   0.4814     O
O       0.5719   0.8144   0.9814     O
H       0.5725   0.1536   0.1639     H
H       0.5725   0.3464   0.6639     H
W      0.57824  0.54914  0.58972     W
W      0.57824  0.95086  0.08972     W
O       0.5793   0.7498   0.8819     O
O       0.5793   0.7502   0.3819     O
C       0.5796   0.7178   0.2001     C
C       0.5796   0.7822   0.7001     C
N       0.5829   0.7393   0.2363     N
N       0.5829   0.7607   0.7363     N
W      0.58437  0.73592  0.43735     W
W      0.58437  0.76408  0.93735     W
Co     0.58652   0.0759  0.00472    Co
Co     0.58652   0.4241  0.50472    Co
O        0.589   0.0452   0.9148     O
O        0.589   0.4548   0.4148     O
N       0.5922   0.1891   0.2135     N
N       0.5922   0.3109   0.7135     N
O       0.5929   0.5837    0.345     O
O       0.5929   0.9163    0.845     O
C        0.598   0.1712   0.1778     C
C        0.598   0.3288   0.6778     C
O       0.5981   0.1939   0.9698     O
O       0.5981   0.3061   0.4698     O
C       0.6049   0.0541   0.7172     C
C       0.6049   0.4459   0.2172     C
C       0.6075   0.0591   0.6797     C
C       0.6075   0.4409   0.1797     C
H        0.612   0.6814   0.1533     H
H        0.612   0.8186   0.6533     H
C       0.6158   0.6962   0.1784     C
C       0.6158   0.8038   0.6784     C
W      0.61776  0.21223   0.9236     W
W      0.61776  0.28777   0.4236     W
H       0.6188   0.5554    0.688     H
H       0.6188   0.9446    0.188     H
W      0.61918  0.04813  0.84814     W
W      0.61918  0.45187  0.34814     W
C       0.6248   0.7309   0.2523     C
C       0.6248   0.7691   0.7523     C
H       0.6276   0.2213   0.2587     H
H       0.6276   0.2787   0.7587     H
H       0.6276   0.7403   0.2778     H
H       0.6276   0.7597   0.7778     H
O       0.6287   0.1736   0.8698     O
O       0.6287   0.3264   0.3698     O
H       0.6302   0.0376   0.7316     H
H       0.6302   0.4624   0.2316     H
C       0.6307   0.2085   0.2334     C
C       0.6307   0.2915   0.7334     C
O       0.6328   0.6477   0.4265     O
O       0.6328   0.8523   0.9265     O
H       0.6353   0.0863   0.5593     H
H       0.6353   0.4137   0.0593     H
O       0.6368   0.5067   0.4795     O
O       0.6368   0.9933   0.9795     O
C       0.6393   0.1771   0.1595     C
C       0.6393   0.3229   0.6595     C
H       0.6414     0.17   0.1339     H
H       0.6414     0.33   0.6339     H
H       0.6437   0.1141   0.4963     H
H       0.6437   0.3859   0.9963     H
C       0.6476   0.5519   0.6987     C
C       0.6476   0.9481   0.1987     C
O       0.6488   0.1761   0.4255     O
O       0.6488   0.3239   0.9255     O
H       0.6496   0.7095   0.0094     H
H       0.6496   0.7905   0.5094     H
N       0.6515   0.5429   0.7365     N
N       0.6515   0.9571   0.2365     N
C       0.6542    0.058   0.6615     C
C       0.6542    0.442   0.1615     C
N       0.6559   0.0665   0.6249     N
N       0.6559   0.4335   0.1249     N
H        0.656   0.7137   0.0718     H
H        0.656   0.7863   0.5718     H
C       0.6593   0.6965   0.1945     C
C       0.6593   0.8035   0.6945     C
W      0.66096   0.5204  0.43505     W
W      0.66096   0.9796  0.93505     W
C       0.6632   0.7089    0.232     C
C       0.6632   0.7911    0.732     C
O       0.6636   0.5085   0.3792     O
O       0.6636   0.9915   0.8792     O
C       0.6642   0.0921   0.5489     C
C       0.6642   0.4079   0.0489     C
O       0.6683   0.1239   0.9313     O
O       0.6683   0.3761   0.4313     O
C       0.6698   0.1066   0.5107     C
C       0.6698   0.3934   0.0107     C
C       0.6735   0.2103   0.2185     C
C       0.6735   0.2897   0.7185     C
C       0.6775   0.1939   0.1811     C
C       0.6775   0.3061   0.6811     C
C       0.6775   0.6923   0.0199     C
C       0.6775   0.8077   0.5199     C
C       0.6809   0.6967   0.0572     C
C       0.6809   0.8033   0.5572     C
H       0.6816    0.563    0.651     H
H       0.6816    0.937    0.151     H
C       0.6851   0.5557   0.6765     C
C       0.6851   0.9443   0.1765     C
N         0.69   0.0483   0.6842     N
N         0.69   0.4517   0.1842     N
H       0.6914   0.7025   0.2436     H
H       0.6914   0.7975   0.7436     H
N       0.6933   0.6815   0.1347     N
N       0.6933   0.8185   0.6347     N
C       0.6944    0.535   0.7504     C
C       0.6944    0.965   0.2504     C
C       0.6974   0.0726   0.6116     C
C       0.6974   0.4274   0.1116     C
H       0.6976   0.5269   0.7759     H
H       0.6976   0.9731   0.2759     H
H        0.699   0.2222   0.2332     H
H        0.699   0.2778   0.7332     H
C       0.7007   0.6891   0.1711     C
C       0.7007   0.8109   0.6711     C
C       0.7023   0.0867   0.5707     C
C       0.7023   0.4133   0.0707     C
N       0.7094   0.1104   0.4939     N
N       0.7094   0.3896   0.9939     N
N       0.7107   0.6654    0.997     N
N       0.7107   0.8346    0.497     N
H       0.7147   0.1293   0.0595     H
H       0.7147   0.3707   0.5595     H
Co     0.71568  0.10965  0.43477    Co
Co     0.71568  0.39035  0.93477    Co
O       0.7177   0.5549   0.4421     O
O       0.7177   0.9451   0.9421     O
C       0.7225   0.6753   0.0728     C
C       0.7225   0.8247   0.5728     C
C       0.7242   0.1888   0.1631     C
C       0.7242   0.3112   0.6631     C
H       0.7254   0.6158   0.5056     H
H       0.7254   0.8842   0.0056     H
H       0.7264   0.1235   0.9976     H
H       0.7264   0.3765   0.4976     H
N       0.7274    0.185   0.1265     N
N       0.7274    0.315   0.6265     N
C       0.7287   0.5488   0.6918     C
C       0.7287   0.9512   0.1918     C
H       0.7292   0.5885   0.5677     H
H       0.7292   0.9115   0.0677     H
C       0.7296   0.0551   0.6675     C
C       0.7296   0.4449   0.1675     C
C       0.7298   0.6799   0.1139     C
C       0.7298   0.8201   0.6139     C
C       0.7328   0.5381   0.7296     C
C       0.7328   0.9619   0.2296     C
N        0.736   0.0666   0.6315     N
N        0.736   0.4334   0.1315     N
H       0.7387   0.0331   0.7407     H
H       0.7387   0.4669   0.2407     H
N       0.7411   0.6941   0.1865     N
N       0.7411   0.8059   0.6865     N
C        0.743   0.1464   0.0498     C
C        0.743   0.3536   0.5498     C
C       0.7442   0.0934   0.5538     C
C       0.7442   0.4066   0.0538     C
C        0.746   0.1076   0.5163     C
C        0.746   0.3924   0.0163     C
C       0.7496    0.643   0.0128     C
C       0.7496    0.857   0.5128     C
C       0.7504    0.143   0.0128     C
C       0.7504    0.357   0.5128     C
C        0.754   0.6076   0.5163     C
C        0.754   0.8924   0.0163     C
C       0.7558   0.5934   0.5538     C
C       0.7558   0.9066   0.0538     C
C        0.757   0.6464   0.0498     C
C        0.757   0.8536   0.5498     C
N       0.7589   0.1941   0.1865     N
N       0.7589   0.3059   0.6865     N
H       0.7613   0.5331   0.7407     H
H       0.7613   0.9669   0.2407     H
N        0.764   0.5666   0.6315     N
N        0.764   0.9334   0.1315     N
C       0.7672   0.0381   0.7296     C
C       0.7672   0.4619   0.2296     C
C       0.7702   0.1799   0.1139     C
C       0.7702   0.3201   0.6139     C
C       0.7704   0.5551   0.6675     C
C       0.7704   0.9449   0.1675     C
H       0.7708   0.0885   0.5677     H
H       0.7708   0.4115   0.0677     H
C       0.7713   0.0488   0.6918     C
C       0.7713   0.4512   0.1918     C
N       0.7726    0.685   0.1265     N
N       0.7726    0.815   0.6265     N
H       0.7736   0.6235   0.9976     H
H       0.7736   0.8765   0.4976     H
H       0.7746   0.1158   0.5056     H
H       0.7746   0.3842   0.0056     H
C       0.7758   0.6888   0.1631     C
C       0.7758   0.8112   0.6631     C
C       0.7775   0.1753   0.0728     C
C       0.7775   0.3247   0.5728     C
O       0.7823   0.0549   0.4421     O
O       0.7823   0.4451   0.9421     O
Co     0.78432  0.60965  0.43477    Co
Co     0.78432  0.89035  0.93477    Co
H       0.7853   0.6293   0.0595     H
H       0.7853   0.8707   0.5595     H
N       0.7893   0.1654    0.997     N
N       0.7893   0.3346    0.497     N
N       0.7906   0.6104   0.4939     N
N       0.7906   0.8896   0.9939     N
C       0.7977   0.5867   0.5707     C
C       0.7977   0.9133   0.0707     C
C       0.7993   0.1891   0.1711     C
C       0.7993   0.3109   0.6711     C
H        0.801   0.7222   0.2332     H
H        0.801   0.7778   0.7332     H
H       0.8024   0.0269   0.7759     H
H       0.8024   0.4731   0.2759     H
C       0.8026   0.5726   0.6116     C
C       0.8026   0.9274   0.1116     C
C       0.8056    0.035   0.7504     C
C       0.8056    0.465   0.2504     C
N       0.8067   0.1815   0.1347     N
N       0.8067   0.3185   0.6347     N
H       0.8086   0.2025   0.2436     H
H       0.8086   0.2975   0.7436     H
N         0.81   0.5483   0.6842     N
N         0.81   0.9517   0.1842     N
C       0.8149   0.0557   0.6765     C
C       0.8149   0.4443   0.1765     C
H       0.8184    0.063    0.651     H
H       0.8184    0.437    0.151     H
C       0.8191   0.1967   0.0572     C
C       0.8191   0.3033   0.5572     C
C       0.8225   0.1923   0.0199     C
C       0.8225   0.3077   0.5199     C
C       0.8225   0.6939   0.1811     C
C       0.8225   0.8061   0.6811     C
C       0.8265   0.7103   0.2185     C
C       0.8265   0.7897   0.7185     C
C       0.8302   0.6066   0.5107     C
C       0.8302   0.8934   0.0107     C
O       0.8317   0.6239   0.9313     O
O       0.8317   0.8761   0.4313     O
C       0.8358   0.5921   0.5489     C
C       0.8358   0.9079   0.0489     C
O       0.8364   0.0085   0.3792     O
O       0.8364   0.4915   0.8792     O
C       0.8368   0.2089    0.232     C
C       0.8368   0.2911    0.732     C
W      0.83904   0.0204  0.43505     W
W      0.83904   0.4796  0.93505     W
C       0.8407   0.1965   0.1945     C
C       0.8407   0.3035   0.6945     C
H        0.844   0.2137   0.0718     H
H        0.844   0.2863   0.5718     H
N       0.8441   0.5665   0.6249     N
N       0.8441   0.9335   0.1249     N
C       0.8458    0.558   0.6615     C
C       0.8458    0.942   0.1615     C
N       0.8485   0.0429   0.7365     N
N       0.8485   0.4571   0.2365     N
H       0.8504   0.2095   0.0094     H
H       0.8504   0.2905   0.5094     H
O       0.8512   0.6761   0.4255     O
O       0.8512   0.8239   0.9255     O
C       0.8524   0.0519   0.6987     C
C       0.8524   0.4481   0.1987     C
H       0.8563   0.6141   0.4963     H
H       0.8563   0.8859   0.9963     H
H       0.8586     0.67   0.1339     H
H       0.8586     0.83   0.6339     H
C       0.8607   0.6771   0.1595     C
C       0.8607   0.8229   0.6595     C
O       0.8632   0.0067   0.4795     O
O       0.8632   0.4933   0.9795     O
H       0.8647   0.5863   0.5593     H
H       0.8647   0.9137   0.0593     H
O       0.8672   0.1477   0.4265     O
O       0.8672   0.3523   0.9265     O
C       0.8693   0.7085   0.2334     C
C       0.8693   0.7915   0.7334     C
H       0.8698   0.5376   0.7316     H
H       0.8698   0.9624   0.2316     H
O       0.8713   0.6736   0.8698     O
O       0.8713   0.8264   0.3698     O
H       0.8724   0.2403   0.2778     H
H       0.8724   0.2597   0.7778     H
H       0.8724   0.7213   0.2587     H
H       0.8724   0.7787   0.7587     H
C       0.8752   0.2309   0.2523     C
C       0.8752   0.2691   0.7523     C
W      0.88082  0.54813  0.84814     W
W      0.88082  0.95187  0.34814     W
H       0.8812   0.0554    0.688     H
H       0.8812   0.4446    0.188     H
W      0.88224  0.71223   0.9236     W
W      0.88224  0.78777   0.4236     W
C       0.8842   0.1962   0.1784     C
C       0.8842   0.3038   0.6784     C
H        0.888   0.1814   0.1533     H
H        0.888   0.3186   0.6533     H
C       0.8925   0.5591   0.6797     C
C       0.8925   0.9409   0.1797     C
C       0.8951   0.5541   0.7172     C
C       0.8951   0.9459   0.2172     C
O       0.9019   0.6939   0.9698     O
O       0.9019   0.8061   0.4698     O
C        0.902   0.6712   0.1778     C
C        0.902   0.8288   0.6778     C
O       0.9071   0.0837    0.345     O
O       0.9071   0.4163    0.845     O
N       0.9078   0.6891   0.2135     N
N       0.9078   0.8109   0.7135     N
O        0.911   0.5452   0.9148     O
O        0.911   0.9548   0.4148     O
Co     0.91348   0.5759  0.00472    Co
Co     0.91348   0.9241  0.50472    Co
W      0.91563  0.23592  0.43735     W
W      0.91563  0.26408  0.93735     W
N       0.9171   0.2393   0.2363     N
N       0.9171   0.2607   0.7363     N
C       0.9204   0.2178   0.2001     C
C       0.9204   0.2822   0.7001     C
O       0.9207   0.2498   0.8819     O
O       0.9207   0.2502   0.3819     O
W      0.92176  0.04914  0.58972     W
W      0.92176  0.45086  0.08972     W
H       0.9275   0.6536   0.1639     H
H       0.9275   0.8464   0.6639     H
O       0.9281   0.1856   0.4814     O
O       0.9281   0.3144   0.9814     O
H       0.9284   0.5679   0.6323     H
H       0.9284   0.9321   0.1323     H
C       0.9299   0.5724    0.658     C
C       0.9299   0.9276    0.158     C
O       0.9328   0.1858   0.5915     O
O       0.9328   0.3142   0.0915     O
O        0.934   0.0396   0.5399     O
O        0.934   0.4604   0.0399     O
O       0.9372   0.0518   0.6425     O
O       0.9372   0.4482   0.1425     O
C       0.9382   0.5753   0.7336     C
O       0.9382   0.5909   0.0943     O
O       0.9382   0.9091   0.5943     O
C       0.9382   0.9247   0.2336     C
H       0.9405   0.5736   0.7593     H
O       0.9405   0.5924   0.8351     O
O       0.9405   0.9076   0.3351     O
H       0.9405   0.9264   0.2593     H
O       0.9406   0.7466   0.4059     O
O       0.9406   0.7534   0.9059     O
H       0.9492   0.2178   0.1894     H
H       0.9492   0.2822   0.6894     H
O       0.9558    0.245   0.3105     O
O       0.9558    0.255   0.8105     O
W      0.95686  0.17341   0.3505     W
W      0.95686  0.32659   0.8505     W
P      0.95897   0.5083  0.92648     P
P      0.95897   0.9917  0.42648     P
O       0.9634   0.1021   0.4144     O
O       0.9634   0.3979   0.9144     O
O       0.9661   0.5199   0.9686     O
O       0.9661   0.9801   0.4686     O
W      0.96942  0.70293  0.07603     W
W      0.96942  0.79707  0.57603     W
Co     0.96987  0.17661  0.76149    Co
Co     0.96987  0.32339  0.26149    Co
O       0.9699   0.6501   0.0292     O
O       0.9699   0.8499   0.5292     O
C       0.9711   0.5937   0.6768     C
C       0.9711   0.9063   0.1768     C
N       0.9752   0.5974    0.714     N
N       0.9752   0.9026    0.214     N
O       0.9788    0.216   0.9356     O
O       0.9788    0.284   0.4356     O
Co     0.97895  0.11394  0.50706    Co
Co     0.97895  0.38606  0.00706    Co
O       0.9807   0.1011   0.7102     O
O       0.9807   0.3989   0.2102     O
O       0.9903   0.7244    0.127     O
O       0.9903   0.7756    0.627     O
O        0.993    0.208   0.6441     O
O        0.993    0.292   0.1441     O
W      0.99412  0.24767  0.59121     W
W      0.99412  0.25233  0.09121     W
O       0.9945   0.2289   0.5417     O
O       0.9945   0.2711   0.0417     O
W      0.99456  0.07798  0.66416     W
W      0.99456  0.42202  0.16416     W
O       0.9946   0.5692   0.9053     O
O       0.9946   0.9308   0.4053     O
O       0.9959    0.059   0.3371     O
O       0.9959    0.441   0.8371     O
H        0.997   0.6057   0.6626     H
H        0.997   0.8943   0.1626     H
