data_I
_chemical_name_common  '/home/zhangsd/repos/MofS-CGCNN/ML/data/SSD/clean_cifs/DUNXUH02_clean'
_cell_length_a 11.28960
_cell_length_b 12.10490
_cell_length_c 16.15790
_cell_angle_alpha 90.00000
_cell_angle_beta  129.91400
_cell_angle_gamma 90.00000
_space_group_name_H-M_alt      'P 1'


loop_
_space_group_symop_operation_xyz
  'x, y, z' 

loop_
_atom_site_label
_atom_site_fract_x
_atom_site_fract_y
_atom_site_fract_z
_atom_site_type_symbol
H        0.019   0.7209    0.343     H
H        0.019   0.7791    0.843     H
S      0.02285  0.03756  0.28416     S
S      0.02285  0.46244  0.78416     S
O      0.02394  0.64134  0.96261     O
O      0.02394  0.85866  0.46261     O
O       0.0554   0.5762   0.7854     O
O       0.0554   0.9238   0.2854     O
O       0.0728  0.07456  0.38928     O
O       0.0728  0.42544  0.88928     O
C       0.0838  0.20017  0.19722     C
C       0.0838  0.29983  0.69722     C
C       0.1188  0.14705  0.61146     C
C       0.1188  0.35295  0.11146     C
O       0.1331   0.5704  0.30265     O
O       0.1331   0.9296  0.80265     O
C       0.1424  0.11242   0.2682     C
C       0.1424  0.38758   0.7682     C
Zn     0.17868  0.52471  0.01902    Zn
Zn     0.17868  0.97529  0.51902    Zn
C       0.1807  0.24286  0.68669     C
C       0.1807  0.25714  0.18669     C
O       0.2159  0.07851  0.62746     O
O       0.2159  0.42149  0.12746     O
C       0.2951  0.07991  0.32816     C
C       0.2951  0.42009  0.82816     C
C       0.3331  0.22403  0.24588     C
C       0.3331  0.27597  0.74588     C
H       0.3332   0.0211   0.3761     H
H       0.3332   0.4789   0.8761     H
O       0.3621  0.64585  0.13532     O
O       0.3621  0.85415  0.63532     O
C       0.3907  0.13539  0.31631     C
C       0.3907  0.36461  0.81631     C
O       0.3946  0.51994  0.05763     O
O       0.3946  0.98006  0.55763     O
H       0.3973   0.2383   0.7382     H
H       0.3973   0.2617   0.2382     H
C       0.4453   0.5992   0.1219     C
C       0.4453   0.9008   0.6219     C
C       0.5547   0.0992   0.3781     C
C       0.5547   0.4008   0.8781     C
H       0.6027   0.7383   0.7618     H
H       0.6027   0.7617   0.2618     H
O       0.6054  0.01994  0.44237     O
O       0.6054  0.48006  0.94237     O
C       0.6093  0.63539  0.18369     C
C       0.6093  0.86461  0.68369     C
O       0.6379  0.14585  0.36468     O
O       0.6379  0.35415  0.86468     O
H       0.6668   0.5211   0.1239     H
H       0.6668   0.9789   0.6239     H
C       0.6669  0.72403  0.25412     C
C       0.6669  0.77597  0.75412     C
C       0.7049  0.57991  0.17184     C
C       0.7049  0.92009  0.67184     C
O       0.7841  0.57851  0.87254     O
O       0.7841  0.92149  0.37254     O
C       0.8193  0.74286  0.81331     C
C       0.8193  0.75714  0.31331     C
Zn     0.82132  0.02471  0.48098    Zn
Zn     0.82132  0.47529  0.98098    Zn
C       0.8576  0.61242   0.2318     C
C       0.8576  0.88758   0.7318     C
O       0.8669   0.0704  0.19735     O
O       0.8669   0.4296  0.69735     O
C       0.8812  0.64705  0.88854     C
C       0.8812  0.85295  0.38854     C
C       0.9162  0.70017  0.30278     C
C       0.9162  0.79983  0.80278     C
O       0.9272  0.57456  0.11072     O
O       0.9272  0.92544  0.61072     O
O       0.9446   0.0762   0.7146     O
O       0.9446   0.4238   0.2146     O
O      0.97606  0.14134  0.53739     O
O      0.97606  0.35866  0.03739     O
S      0.97715  0.53756  0.21584     S
S      0.97715  0.96244  0.71584     S
H        0.981   0.2209    0.157     H
H        0.981   0.2791    0.657     H
