data_I
_chemical_name_common  '/home/zhangsd/repos/MofS-CGCNN/ML/data/SSD/clean_cifs/DUNXUH04_clean'
_cell_length_a 11.24990
_cell_length_b 11.78880
_cell_length_c 16.22710
_cell_angle_alpha 90.00000
_cell_angle_beta  129.39900
_cell_angle_gamma 90.00000
_space_group_name_H-M_alt      'P 1'


loop_
_space_group_symop_operation_xyz
  'x, y, z' 

loop_
_atom_site_label
_atom_site_fract_x
_atom_site_fract_y
_atom_site_fract_z
_atom_site_type_symbol
C       0.0562  0.09562  0.88056     C
C       0.0562  0.40438  0.38056     C
H       0.1015   0.7408   0.2633     H
H       0.1015   0.7592   0.7633     H
O      0.10677  0.01402  0.94495     O
O      0.10677  0.48598  0.44495     O
C       0.1089  0.63012  0.68305     C
C       0.1089  0.86988  0.18305     C
O      0.14131  0.14766  0.86894     O
O      0.14131  0.35234  0.36894     O
H       0.1646   0.5122   0.6203     H
H       0.1646   0.9878   0.1203     H
C      0.16695  0.71943  0.75518     C
C      0.16695  0.78057  0.25518     C
C       0.2042  0.57234  0.67039     C
C       0.2042  0.92766  0.17039     C
O      0.28613  0.57971  0.37447     O
O      0.28613  0.92029  0.87447     O
C       0.3207  0.74927  0.31548     C
C       0.3207  0.75073  0.81548     C
Zn     0.32333  0.02648  0.98257    Zn
Zn     0.32333  0.47352  0.48257    Zn
C       0.3581  0.60352   0.7318     C
C       0.3581  0.89648   0.2318     C
O      0.36578  0.05558  0.69573     O
O      0.36578  0.44442  0.19573     O
C       0.3826  0.65187  0.39136     C
C       0.3826  0.84813  0.89136     C
C        0.417   0.6918  0.80419     C
C        0.417   0.8082  0.30419     C
O      0.43602  0.57093  0.61406     O
O      0.43602  0.92907  0.11406     O
O       0.4377  0.08989  0.20631     O
O       0.4377  0.41011  0.70631     O
O      0.47486  0.14856  0.03377     O
O      0.47486  0.35144  0.53377     O
H       0.4776   0.2121   0.6541     H
H       0.4776   0.2879   0.1541     H
S      0.47775  0.52741  0.71493     S
S      0.47775  0.97259  0.21493     S
S      0.52225  0.02741  0.78507     S
S      0.52225  0.47259  0.28507     S
H       0.5224   0.7121   0.8459     H
H       0.5224   0.7879   0.3459     H
O      0.52514  0.64856  0.46623     O
O      0.52514  0.85144  0.96623     O
O       0.5623  0.58989  0.29369     O
O       0.5623  0.91011  0.79369     O
O      0.56398  0.07093  0.88594     O
O      0.56398  0.42907  0.38594     O
C        0.583   0.1918  0.69581     C
C        0.583   0.3082  0.19581     C
C       0.6174  0.15187  0.10864     C
C       0.6174  0.34813  0.60864     C
O      0.63422  0.55558  0.80427     O
O      0.63422  0.94442  0.30427     O
C       0.6419  0.10352   0.7682     C
C       0.6419  0.39648   0.2682     C
Zn     0.67667  0.52648  0.51743    Zn
Zn     0.67667  0.97352  0.01744    Zn
C       0.6793  0.24927  0.18452     C
C       0.6793  0.25073  0.68452     C
O      0.71387  0.07971  0.12553     O
O      0.71387  0.42029  0.62553     O
C       0.7958  0.07234  0.82961     C
C       0.7958  0.42766  0.32961     C
C      0.83305  0.21943  0.74482     C
C      0.83305  0.28057  0.24482     C
H       0.8354   0.0122   0.8797     H
H       0.8354   0.4878   0.3797     H
O      0.85869  0.64766  0.63106     O
O      0.85869  0.85234  0.13106     O
C       0.8911  0.13012  0.81695     C
C       0.8911  0.36988  0.31695     C
O      0.89323  0.51402  0.55505     O
O      0.89323  0.98598  0.05505     O
H       0.8985   0.2408   0.2367     H
H       0.8985   0.2592   0.7367     H
C       0.9438  0.59562  0.61944     C
C       0.9438  0.90438  0.11944     C
