data_I
_chemical_name_common  '/home/zhangsd/repos/MofS-CGCNN/ML/data/SSD/clean_cifs/DUNXUH01_clean'
_cell_length_a 11.35040
_cell_length_b 12.19230
_cell_length_c 16.18270
_cell_angle_alpha 90.00000
_cell_angle_beta  130.49100
_cell_angle_gamma 90.00000
_space_group_name_H-M_alt      'P 1'


loop_
_space_group_symop_operation_xyz
  'x, y, z' 

loop_
_atom_site_label
_atom_site_fract_x
_atom_site_fract_y
_atom_site_fract_z
_atom_site_type_symbol
H       0.0176   0.7248   0.3418     H
H       0.0176   0.7752   0.8418     H
S      0.02345  0.04069  0.28357     S
S      0.02345  0.45931  0.78357     S
O      0.02376   0.6385  0.96179     O
O      0.02376   0.8615  0.46179     O
O       0.0549  0.57277   0.7839     O
O       0.0549  0.92723   0.2839     O
O        0.075  0.07624  0.38922     O
O        0.075  0.42376  0.88922     O
C       0.0849  0.20312  0.19809     C
C       0.0849  0.29688  0.69809     C
C       0.1194  0.14504  0.61219     C
C       0.1194  0.35496  0.11219     C
O       0.1329   0.5741   0.3035     O
O       0.1329   0.9259   0.8035     O
C       0.1427   0.1152  0.26808     C
C       0.1427   0.3848  0.76808     C
Zn      0.1793  0.52369  0.01883    Zn
Zn      0.1793  0.97631  0.51883    Zn
C       0.1812   0.2408  0.68757     C
C       0.1812   0.2592  0.18757     C
O       0.2171  0.07828  0.62815     O
O       0.2171  0.42172  0.12815     O
C       0.2951   0.0817  0.32784     C
C       0.2951   0.4183  0.82784     C
H        0.333   0.0226   0.3754     H
H        0.333   0.4774   0.8754     H
C       0.3338  0.22552  0.24673     C
C       0.3338  0.27448  0.74673     C
O       0.3624  0.64539   0.1341     O
O       0.3624  0.85461   0.6341     O
C       0.3905   0.1365  0.31643     C
C       0.3905   0.3635  0.81643     C
O       0.3957   0.5199   0.0587     O
O       0.3957   0.9801   0.5587     O
H       0.3982   0.2371   0.7395     H
H       0.3982   0.2629   0.2395     H
C       0.4459   0.5996   0.1221     C
C       0.4459   0.9004   0.6221     C
C       0.5541   0.0996   0.3779     C
C       0.5541   0.4004   0.8779     C
H       0.6018   0.7371   0.7605     H
H       0.6018   0.7629   0.2605     H
O       0.6043   0.0199   0.4413     O
O       0.6043   0.4801   0.9413     O
C       0.6095   0.6365  0.18357     C
C       0.6095   0.8635  0.68357     C
O       0.6376  0.14539   0.3659     O
O       0.6376  0.35461   0.8659     O
C       0.6662  0.72552  0.25327     C
C       0.6662  0.77448  0.75327     C
H        0.667   0.5226   0.1246     H
H        0.667   0.9774   0.6246     H
C       0.7049   0.5817  0.17216     C
C       0.7049   0.9183  0.67216     C
O       0.7829  0.57828  0.87185     O
O       0.7829  0.92172  0.37185     O
C       0.8188   0.7408  0.81243     C
C       0.8188   0.7592  0.31243     C
Zn      0.8207  0.02369  0.48117    Zn
Zn      0.8207  0.47631  0.98117    Zn
C       0.8573   0.6152  0.23192     C
C       0.8573   0.8848  0.73192     C
O       0.8671   0.0741   0.1965     O
O       0.8671   0.4259   0.6965     O
C       0.8806  0.64504  0.88781     C
C       0.8806  0.85496  0.38781     C
C       0.9151  0.70312  0.30191     C
C       0.9151  0.79688  0.80191     C
O        0.925  0.57624  0.11078     O
O        0.925  0.92376  0.61078     O
O       0.9451  0.07277   0.7161     O
O       0.9451  0.42723   0.2161     O
O      0.97624   0.1385  0.53821     O
O      0.97624   0.3615  0.03821     O
S      0.97655  0.54069  0.21643     S
S      0.97655  0.95931  0.71643     S
H       0.9824   0.2248   0.1582     H
H       0.9824   0.2752   0.6582     H
