data_I
_chemical_name_common  '/home/zhangsd/repos/MofS-CGCNN/ML/data/SSD/clean_cifs/DUQSEO_clean'
_cell_length_a  8.88400
_cell_length_b 10.28190
_cell_length_c 10.28190
_cell_angle_alpha 79.09260
_cell_angle_beta  64.40410
_cell_angle_gamma 64.40410
_space_group_name_H-M_alt      'P 1'


loop_
_space_group_symop_operation_xyz
  'x, y, z' 

loop_
_atom_site_label
_atom_site_fract_x
_atom_site_fract_y
_atom_site_fract_z
_atom_site_type_symbol
H       0.0085   0.3612   0.4046     H
C       0.1051     0.75     0.75     C
O      0.15859   0.8454  0.67882     O
O      0.18281   0.6546  0.82118     O
La     0.20595  0.54405  0.04405    La
N       0.2244  0.61043  0.26923     N
H       0.2257   0.9046   0.8612     H
N      0.23419  0.53753  0.39109     N
C      0.23589  0.91681  0.94401     C
N      0.23647  0.81288  0.04572     N
C         0.25   0.0405   0.9595     C
H         0.25   0.1115   0.8885     H
C         0.25  0.72641  0.27359     C
C         0.25  0.83866  0.16134     C
N      0.26353  0.95428  0.18712     N
C      0.26411  0.05599  0.08319     C
N      0.26581  0.60891  0.46247     N
H       0.2743   0.1388   0.0954     H
N       0.2756  0.73077  0.38957     N
La     0.29405  0.95595  0.45595    La
O      0.31719  0.17882   0.3454     O
O      0.34141  0.32118   0.1546     O
C       0.3949     0.25     0.25     C
H       0.4915   0.5954   0.6388     H
C        0.563     0.25     0.25     C
N      0.59507  0.68712  0.45428     N
C      0.59671  0.58319  0.55599     C
N      0.60406  0.88957  0.23077     N
N      0.63191  0.18226   0.3478     N
N      0.66197  0.31774   0.1522     N
N      0.66281  0.96247  0.10891     N
N      0.70198  0.80838  0.70982     N
N      0.72018  0.69162  0.79018     N
H         0.75   0.3885   0.6115     H
C         0.75   0.4595   0.5405     C
C         0.75  0.66134  0.33866     C
C         0.75  0.77359  0.22641     C
N      0.77982  0.20982  0.30838     N
N      0.79802  0.29018  0.19162     N
N      0.83719  0.89109  0.03753     N
N      0.83803   0.8478  0.68226     N
N      0.86809   0.6522  0.81774     N
N      0.89594  0.76923  0.11043     N
C      0.90329  0.44401  0.41681     C
N      0.90493  0.54572  0.31288     N
C        0.937     0.75     0.75     C
