data_I
_chemical_name_common  '/home/zhangsd/repos/MofS-CGCNN/ML/data/SSD/clean_cifs/EBAVIP_clean'
_cell_length_a 24.02800
_cell_length_b 13.41300
_cell_length_c 24.04800
_cell_angle_alpha 90.00000
_cell_angle_beta  113.11100
_cell_angle_gamma 90.00000
_space_group_name_H-M_alt      'P 1'


loop_
_space_group_symop_operation_xyz
  'x, y, z' 

loop_
_atom_site_label
_atom_site_fract_x
_atom_site_fract_y
_atom_site_fract_z
_atom_site_type_symbol
Co         0.0  0.20352     0.75    Co
Co         0.0  0.79648     0.25    Co
H       0.0009   0.3714   0.3922     H
H       0.0009   0.6286   0.8922     H
H        0.001   0.0383   0.0914     H
H        0.001   0.9617   0.5914     H
H       0.0044   0.4696   0.9423     H
H       0.0044   0.5304   0.4423     H
C      0.00638    0.078   0.8574     C
C      0.00638    0.922   0.3574     C
C      0.01257  0.20734  0.50958     C
C      0.01257  0.79266  0.00958     C
C      0.01593    0.005  0.12828     C
C      0.01593    0.995  0.62828     C
N      0.02707  0.10411   0.7013     N
N      0.02707  0.89589   0.2013     N
C      0.03003   0.4914  0.07617     C
C      0.03003   0.5086  0.57617     C
C      0.03152   0.4038  0.10365     C
C      0.03152   0.5962  0.60365     C
O      0.03497  0.28822  0.53593     O
O      0.03497  0.71178  0.03593     O
H       0.0373   0.2024   0.1261     H
H       0.0373   0.7976   0.6261     H
H       0.0398   0.1129   0.8836     H
H       0.0398   0.8871   0.3836     H
O      0.04042  0.14468  0.49212     O
O      0.04042  0.85532  0.99212     O
H       0.0506   0.0386   0.0167     H
H       0.0506   0.9614   0.5167     H
C      0.05229  0.18733  0.00334     C
C      0.05229  0.81267  0.50334     C
O      0.05647    0.295  0.80876     O
O      0.05647    0.705  0.30876     O
N      0.06548  0.03101   0.1791     N
N      0.06548  0.96899   0.6791     N
C      0.07002  0.03679  0.72209     C
C      0.07002  0.96321  0.22209     C
C      0.07608  0.09123  0.01746     C
C      0.07608  0.90877  0.51746     C
H        0.077   0.3287   0.9945     H
H        0.077   0.6713   0.4945     H
C      0.07798  0.20079   0.1518     C
C      0.07798  0.79921   0.6518     C
N      0.08659  0.48495  0.57944     N
N      0.08659  0.51505  0.07944     N
N      0.09042  0.37134  0.12436     N
N      0.09042  0.62866  0.62436     N
C       0.0919  0.26446  0.00506     C
C       0.0919  0.73554  0.50506     C
H       0.0935   0.4232   0.8946     H
H       0.0935   0.5768   0.3946     H
H       0.0996    0.036   0.7612     H
H       0.0996    0.964   0.2612     H
C       0.1032  0.11658    0.186     C
C       0.1032  0.88342    0.686     C
O      0.10406  0.42404  0.46476     O
O      0.10406  0.57596  0.96476     O
H       0.1071   0.2345   0.6688     H
H       0.1071   0.7655   0.1688     H
C       0.1091   0.2602  0.83796     C
C       0.1091   0.7398  0.33796     C
C       0.1153  0.28259  0.15711     C
C       0.1153  0.71741  0.65711     C
Co     0.11609  0.35265   0.5497    Co
Co     0.11609  0.64735   0.0497    Co
C      0.12185   0.4418  0.10839     C
C      0.12185   0.5582  0.60839     C
O      0.12465  0.17558  0.82959     O
O      0.12465  0.82442  0.32959     O
C      0.13448  0.40773  0.90855     C
C      0.13448  0.59227  0.40855     C
C      0.13672  0.07303  0.03253     C
C      0.13672  0.92697  0.53253     C
C       0.1457   0.2604  0.67859     C
C       0.1457   0.7396  0.17859     C
H       0.1513   0.0081   0.0404     H
H       0.1513   0.9919   0.5404     H
C      0.15272  0.24669  0.02211     C
C      0.15272  0.75331  0.52211     C
C      0.15362  0.32765  0.88386     C
C      0.15362  0.67235  0.38386     C
C       0.1564  0.46049  0.48838     C
C       0.1564  0.53951  0.98838     C
H       0.1631   0.4384   0.1169     H
H       0.1631   0.5616   0.6169     H
C      0.16348   0.1132   0.2247     C
C      0.16348   0.8868   0.7247     C
N      0.16405   0.3146  0.64066     N
N      0.16405   0.6854  0.14066     N
C      0.17514  0.28127  0.19526     C
C      0.17514  0.71873  0.69526     C
C      0.17641  0.46468  0.95408     C
C      0.17641  0.53532  0.45408     C
C      0.17648  0.15082   0.0361     C
C      0.17648  0.84918   0.5361     C
H       0.1785   0.2997   0.0243     H
H       0.1785   0.7003   0.5243     H
H         0.18   0.0561    0.247     H
H         0.18   0.9439    0.747     H
O      0.19159  0.43933  0.54209     O
O      0.19159  0.56067  0.04209     O
H       0.1924   0.2165   0.7662     H
H       0.1924   0.7835   0.2662     H
C      0.19254   0.2506  0.73256     C
C      0.19254   0.7494  0.23256     C
C      0.19865   0.1968  0.22936     C
C      0.19865   0.8032  0.72936     C
H       0.1996   0.3364   0.1982     H
H       0.1996   0.6636   0.6982     H
C      0.21494   0.3076  0.90368     C
C      0.21494   0.6924  0.40368     C
C      0.22051   0.3374  0.67137     C
C      0.22051   0.6626  0.17137     C
H       0.2276   0.2525   0.8883     H
H       0.2276   0.7475   0.3883     H
H        0.234   0.0149   0.9986     H
H        0.234   0.9851   0.4986     H
C      0.23798  0.44545  0.97187     C
C      0.23798  0.55455  0.47187     C
N      0.24018  0.30039  0.72831     N
N      0.24018  0.69961  0.22831     N
C      0.24164   0.1318  0.05372     C
C      0.24164   0.8682  0.55372     C
H       0.2443   0.3742   0.6562     H
H       0.2443   0.6258   0.1562     H
H       0.2557   0.1258   0.3438     H
H       0.2557   0.8742   0.8438     H
C      0.25836   0.3682  0.94628     C
C      0.25836   0.6318  0.44628     C
N      0.25982  0.19961  0.27169     N
N      0.25982  0.80039  0.77169     N
C      0.26202  0.05455  0.02813     C
C      0.26202  0.94545  0.52813     C
H        0.266   0.4851   0.0014     H
H        0.266   0.5149   0.5014     H
H       0.2724   0.2475   0.1117     H
H       0.2724   0.7525   0.6117     H
C      0.27949   0.1626  0.32863     C
C      0.27949   0.8374  0.82863     C
C      0.28506   0.1924  0.09632     C
C      0.28506   0.8076  0.59632     C
H       0.3004   0.1636   0.8018     H
H       0.3004   0.8364   0.3018     H
C      0.30135   0.3032  0.77064     C
C      0.30135   0.6968  0.27064     C
C      0.30746   0.2494  0.26744     C
C      0.30746   0.7506  0.76744     C
H       0.3076   0.2835   0.2338     H
H       0.3076   0.7165   0.7338     H
O      0.30841  0.06067  0.45791     O
O      0.30841  0.93933  0.95791     O
H         0.32   0.4439    0.753     H
H         0.32   0.5561    0.253     H
H       0.3215   0.2003   0.9757     H
H       0.3215   0.7997   0.4757     H
C      0.32352  0.34918   0.9639     C
C      0.32352  0.65082   0.4639     C
C      0.32359  0.03532  0.04592     C
C      0.32359  0.96468  0.54592     C
C      0.32486  0.21873  0.80474     C
C      0.32486  0.78127  0.30474     C
N      0.33595   0.1854  0.35934     N
N      0.33595   0.8146  0.85934     N
C      0.33652   0.3868   0.7753     C
C      0.33652   0.6132   0.2753     C
H       0.3369   0.0616   0.8831     H
H       0.3369   0.9384   0.3831     H
C       0.3436  0.03951  0.51162     C
C       0.3436  0.96049  0.01162     C
C      0.34638  0.17235  0.11614     C
C      0.34638  0.82765  0.61614     C
C      0.34728  0.25331  0.97789     C
C      0.34728  0.74669  0.47789     C
H       0.3487   0.4919   0.9596     H
H       0.3487   0.5081   0.4596     H
C       0.3543   0.2396  0.32141     C
C       0.3543   0.7604  0.82141     C
C      0.36328  0.42697  0.96747     C
C      0.36328  0.57303  0.46747     C
C      0.36552  0.09227  0.09145     C
C      0.36552  0.90773  0.59145     C
O      0.37535  0.32442  0.17041     O
O      0.37535  0.67558  0.67041     O
C      0.37815   0.0582  0.89161     C
C      0.37815   0.9418  0.39161     C
Co     0.38391  0.14735   0.4503    Co
Co     0.38391  0.85265   0.9503    Co
C       0.3847  0.21741  0.84289     C
C       0.3847  0.78259  0.34289     C
C       0.3909   0.2398  0.16204     C
C       0.3909   0.7602  0.66204     C
H       0.3929   0.2655   0.3312     H
H       0.3929   0.7345   0.8312     H
O      0.39594  0.07596  0.53524     O
O      0.39594  0.92404  0.03524     O
C       0.3968  0.38342    0.814     C
C       0.3968  0.61658    0.314     C
H       0.4004    0.464   0.2388     H
H       0.4004    0.536   0.7388     H
H       0.4065   0.0768   0.1054     H
H       0.4065   0.9232   0.6054     H
C       0.4081  0.23554  0.99494     C
C       0.4081  0.76446  0.49494     C
N      0.40958  0.12866  0.87564     N
N      0.40958  0.87134  0.37564     N
N      0.41341  0.01505  0.42056     N
N      0.41341  0.98495  0.92056     N
C      0.42202  0.29921   0.8482     C
C      0.42202  0.70079   0.3482     C
H        0.423   0.1713   0.0055     H
H        0.423   0.8287   0.5055     H
C      0.42392  0.40877  0.98254     C
C      0.42392  0.59123  0.48254     C
C      0.42998  0.46321  0.27791     C
C      0.42998  0.53679  0.77791     C
N      0.43452  0.46899   0.8209     N
N      0.43452  0.53101   0.3209     N
O      0.44353    0.205  0.19124     O
O      0.44353    0.795  0.69124     O
C      0.44771  0.31267  0.99666     C
C      0.44771  0.68733  0.49666     C
H       0.4494   0.4614   0.9833     H
H       0.4494   0.5386   0.4833     H
O      0.45958  0.35532  0.50788     O
O      0.45958  0.64468  0.00788     O
H       0.4602   0.3871   0.1164     H
H       0.4602   0.6129   0.6164     H
H       0.4627   0.2976   0.8739     H
H       0.4627   0.7024   0.3739     H
O      0.46503  0.21178  0.46407     O
O      0.46503  0.78822  0.96407     O
C      0.46848   0.0962  0.89635     C
C      0.46848   0.9038  0.39635     C
C      0.46997   0.0086  0.92383     C
C      0.46997   0.9914  0.42383     C
N      0.47293  0.39589   0.2987     N
N      0.47293  0.60411   0.7987     N
C      0.48407    0.495  0.87172     C
C      0.48407    0.505  0.37172     C
C      0.48743  0.29266  0.49042     C
C      0.48743  0.70734  0.99042     C
C      0.49362    0.422   0.1426     C
C      0.49362    0.578   0.6426     C
H       0.4956   0.0304   0.0577     H
H       0.4956   0.9696   0.5577     H
H        0.499   0.4617   0.9086     H
H        0.499   0.5383   0.4086     H
H       0.4991   0.1286   0.6078     H
H       0.4991   0.8714   0.1078     H
Co         0.5  0.29648     0.25    Co
Co         0.5  0.70352     0.75    Co
H       0.5009   0.1286   0.8922     H
H       0.5009   0.8714   0.3922     H
H        0.501   0.4617   0.5914     H
H        0.501   0.5383   0.0914     H
H       0.5044   0.0304   0.4423     H
H       0.5044   0.9696   0.9423     H
C      0.50638    0.422   0.3574     C
C      0.50638    0.578   0.8574     C
C      0.51257  0.29266  0.00958     C
C      0.51257  0.70734  0.50958     C
C      0.51593    0.495  0.62828     C
C      0.51593    0.505  0.12828     C
N      0.52707  0.39589   0.2013     N
N      0.52707  0.60411   0.7013     N
C      0.53003   0.0086  0.57617     C
C      0.53003   0.9914  0.07617     C
C      0.53152   0.0962  0.60365     C
C      0.53152   0.9038  0.10365     C
O      0.53497  0.21178  0.03593     O
O      0.53497  0.78822  0.53593     O
H       0.5373   0.2976   0.6261     H
H       0.5373   0.7024   0.1261     H
H       0.5398   0.3871   0.3836     H
H       0.5398   0.6129   0.8836     H
O      0.54042  0.35532  0.99212     O
O      0.54042  0.64468  0.49212     O
H       0.5506   0.4614   0.5167     H
H       0.5506   0.5386   0.0167     H
C      0.55229  0.31267  0.50334     C
C      0.55229  0.68733  0.00334     C
O      0.55647    0.205  0.30876     O
O      0.55647    0.795  0.80876     O
N      0.56548  0.46899   0.6791     N
N      0.56548  0.53101   0.1791     N
C      0.57002  0.46321  0.22209     C
C      0.57002  0.53679  0.72209     C
C      0.57608  0.40877  0.51746     C
C      0.57608  0.59123  0.01746     C
H        0.577   0.1713   0.4945     H
H        0.577   0.8287   0.9945     H
C      0.57798  0.29921   0.6518     C
C      0.57798  0.70079   0.1518     C
N      0.58659  0.01505  0.07944     N
N      0.58659  0.98495  0.57944     N
N      0.59042  0.12866  0.62436     N
N      0.59042  0.87134  0.12436     N
C       0.5919  0.23554  0.50506     C
C       0.5919  0.76446  0.00506     C
H       0.5935   0.0768   0.3946     H
H       0.5935   0.9232   0.8946     H
H       0.5996    0.464   0.2612     H
H       0.5996    0.536   0.7612     H
C       0.6032  0.38342    0.686     C
C       0.6032  0.61658    0.186     C
O      0.60406  0.07596  0.96476     O
O      0.60406  0.92404  0.46476     O
H       0.6071   0.2655   0.1688     H
H       0.6071   0.7345   0.6688     H
C       0.6091   0.2398  0.33796     C
C       0.6091   0.7602  0.83796     C
C       0.6153  0.21741  0.65711     C
C       0.6153  0.78259  0.15711     C
Co     0.61609  0.14735   0.0497    Co
Co     0.61609  0.85265   0.5497    Co
C      0.62185   0.0582  0.60839     C
C      0.62185   0.9418  0.10839     C
O      0.62465  0.32442  0.32959     O
O      0.62465  0.67558  0.82959     O
C      0.63448  0.09227  0.40855     C
C      0.63448  0.90773  0.90855     C
C      0.63672  0.42697  0.53253     C
C      0.63672  0.57303  0.03253     C
C       0.6457   0.2396  0.17859     C
C       0.6457   0.7604  0.67859     C
H       0.6513   0.4919   0.5404     H
H       0.6513   0.5081   0.0404     H
C      0.65272  0.25331  0.52211     C
C      0.65272  0.74669  0.02211     C
C      0.65362  0.17235  0.38386     C
C      0.65362  0.82765  0.88386     C
C       0.6564  0.03951  0.98838     C
C       0.6564  0.96049  0.48838     C
H       0.6631   0.0616   0.6169     H
H       0.6631   0.9384   0.1169     H
C      0.66348   0.3868   0.7247     C
C      0.66348   0.6132   0.2247     C
N      0.66405   0.1854  0.14066     N
N      0.66405   0.8146  0.64066     N
C      0.67514  0.21873  0.69526     C
C      0.67514  0.78127  0.19526     C
C      0.67641  0.03532  0.45408     C
C      0.67641  0.96468  0.95408     C
C      0.67648  0.34918   0.5361     C
C      0.67648  0.65082   0.0361     C
H       0.6785   0.2003   0.5243     H
H       0.6785   0.7997   0.0243     H
H         0.68   0.4439    0.747     H
H         0.68   0.5561    0.247     H
O      0.69159  0.06067  0.04209     O
O      0.69159  0.93933  0.54209     O
H       0.6924   0.2835   0.2662     H
H       0.6924   0.7165   0.7662     H
C      0.69254   0.2494  0.23256     C
C      0.69254   0.7506  0.73256     C
C      0.69865   0.3032  0.72936     C
C      0.69865   0.6968  0.22936     C
H       0.6996   0.1636   0.6982     H
H       0.6996   0.8364   0.1982     H
C      0.71494   0.1924  0.40368     C
C      0.71494   0.8076  0.90368     C
C      0.72051   0.1626  0.17137     C
C      0.72051   0.8374  0.67137     C
H       0.7276   0.2475   0.3883     H
H       0.7276   0.7525   0.8883     H
H        0.734   0.4851   0.4986     H
H        0.734   0.5149   0.9986     H
C      0.73798  0.05455  0.47187     C
C      0.73798  0.94545  0.97187     C
N      0.74018  0.19961  0.22831     N
N      0.74018  0.80039  0.72831     N
C      0.74164   0.3682  0.55372     C
C      0.74164   0.6318  0.05372     C
H       0.7443   0.1258   0.1562     H
H       0.7443   0.8742   0.6562     H
H       0.7557   0.3742   0.8438     H
H       0.7557   0.6258   0.3438     H
C      0.75836   0.1318  0.44628     C
C      0.75836   0.8682  0.94628     C
N      0.75982  0.30039  0.77169     N
N      0.75982  0.69961  0.27169     N
C      0.76202  0.44545  0.52813     C
C      0.76202  0.55455  0.02813     C
H        0.766   0.0149   0.5014     H
H        0.766   0.9851   0.0014     H
H       0.7724   0.2525   0.6117     H
H       0.7724   0.7475   0.1117     H
C      0.77949   0.3374  0.82863     C
C      0.77949   0.6626  0.32863     C
C      0.78506   0.3076  0.59632     C
C      0.78506   0.6924  0.09632     C
H       0.8004   0.3364   0.3018     H
H       0.8004   0.6636   0.8018     H
C      0.80135   0.1968  0.27064     C
C      0.80135   0.8032  0.77064     C
C      0.80746   0.2506  0.76744     C
C      0.80746   0.7494  0.26744     C
H       0.8076   0.2165   0.7338     H
H       0.8076   0.7835   0.2338     H
O      0.80841  0.43933  0.95791     O
O      0.80841  0.56067  0.45791     O
H         0.82   0.0561    0.253     H
H         0.82   0.9439    0.753     H
H       0.8215   0.2997   0.4757     H
H       0.8215   0.7003   0.9757     H
C      0.82352  0.15082   0.4639     C
C      0.82352  0.84918   0.9639     C
C      0.82359  0.46468  0.54592     C
C      0.82359  0.53532  0.04592     C
C      0.82486  0.28127  0.30474     C
C      0.82486  0.71873  0.80474     C
N      0.83595   0.3146  0.85934     N
N      0.83595   0.6854  0.35934     N
C      0.83652   0.1132   0.2753     C
C      0.83652   0.8868   0.7753     C
H       0.8369   0.4384   0.3831     H
H       0.8369   0.5616   0.8831     H
C       0.8436  0.46049  0.01162     C
C       0.8436  0.53951  0.51162     C
C      0.84638  0.32765  0.61614     C
C      0.84638  0.67235  0.11614     C
C      0.84728  0.24669  0.47789     C
C      0.84728  0.75331  0.97789     C
H       0.8487   0.0081   0.4596     H
H       0.8487   0.9919   0.9596     H
C       0.8543   0.2604  0.82141     C
C       0.8543   0.7396  0.32141     C
C      0.86328  0.07303  0.46747     C
C      0.86328  0.92697  0.96747     C
C      0.86552  0.40773  0.59145     C
C      0.86552  0.59227  0.09145     C
O      0.87535  0.17558  0.67041     O
O      0.87535  0.82442  0.17041     O
C      0.87815   0.4418  0.39161     C
C      0.87815   0.5582  0.89161     C
Co     0.88391  0.35265   0.9503    Co
Co     0.88391  0.64735   0.4503    Co
C       0.8847  0.28259  0.34289     C
C       0.8847  0.71741  0.84289     C
C       0.8909   0.2602  0.66204     C
C       0.8909   0.7398  0.16204     C
H       0.8929   0.2345   0.8312     H
H       0.8929   0.7655   0.3312     H
O      0.89594  0.42404  0.03524     O
O      0.89594  0.57596  0.53524     O
C       0.8968  0.11658    0.314     C
C       0.8968  0.88342    0.814     C
H       0.9004    0.036   0.7388     H
H       0.9004    0.964   0.2388     H
H       0.9065   0.4232   0.6054     H
H       0.9065   0.5768   0.1054     H
C       0.9081  0.26446  0.49494     C
C       0.9081  0.73554  0.99494     C
N      0.90958  0.37134  0.37564     N
N      0.90958  0.62866  0.87564     N
N      0.91341  0.48495  0.92056     N
N      0.91341  0.51505  0.42056     N
C      0.92202  0.20079   0.3482     C
C      0.92202  0.79921   0.8482     C
H        0.923   0.3287   0.5055     H
H        0.923   0.6713   0.0055     H
C      0.92392  0.09123  0.48254     C
C      0.92392  0.90877  0.98254     C
C      0.92998  0.03679  0.77791     C
C      0.92998  0.96321  0.27791     C
N      0.93452  0.03101   0.3209     N
N      0.93452  0.96899   0.8209     N
O      0.94353    0.295  0.69124     O
O      0.94353    0.705  0.19124     O
C      0.94771  0.18733  0.49666     C
C      0.94771  0.81267  0.99666     C
H       0.9494   0.0386   0.4833     H
H       0.9494   0.9614   0.9833     H
O      0.95958  0.14468  0.00788     O
O      0.95958  0.85532  0.50788     O
H       0.9602   0.1129   0.6164     H
H       0.9602   0.8871   0.1164     H
H       0.9627   0.2024   0.3739     H
H       0.9627   0.7976   0.8739     H
O      0.96503  0.28822  0.96407     O
O      0.96503  0.71178  0.46407     O
C      0.96848   0.4038  0.39635     C
C      0.96848   0.5962  0.89635     C
C      0.96997   0.4914  0.42383     C
C      0.96997   0.5086  0.92383     C
N      0.97293  0.10411   0.7987     N
N      0.97293  0.89589   0.2987     N
C      0.98407    0.005  0.37172     C
C      0.98407    0.995  0.87172     C
C      0.98743  0.20734  0.99042     C
C      0.98743  0.79266  0.49042     C
C      0.99362    0.078   0.6426     C
C      0.99362    0.922   0.1426     C
H       0.9956   0.4696   0.5577     H
H       0.9956   0.5304   0.0577     H
H        0.999   0.0383   0.4086     H
H        0.999   0.9617   0.9086     H
H       0.9991   0.3714   0.1078     H
H       0.9991   0.6286   0.6078     H
