data_I
_chemical_name_common  '/home/zhangsd/repos/MofS-CGCNN/ML/data/SSD/clean_cifs/EBAWIQ_clean'
_cell_length_a  8.36610
_cell_length_b 29.13900
_cell_length_c 18.85830
_cell_angle_alpha 90.00000
_cell_angle_beta  94.30700
_cell_angle_gamma 90.00000
_space_group_name_H-M_alt      'P 1'


loop_
_space_group_symop_operation_xyz
  'x, y, z' 

loop_
_atom_site_label
_atom_site_fract_x
_atom_site_fract_y
_atom_site_fract_z
_atom_site_type_symbol
Ni         0.0      0.0      0.0    Ni
Ni         0.0      0.5      0.5    Ni
H       0.0162   0.1443   0.4471     H
H       0.0162   0.3557   0.9471     H
O       0.0178   0.7134  0.13558     O
O       0.0178   0.7866  0.63558     O
Ni     0.02097  0.74354  0.72388    Ni
Ni     0.02097  0.75646  0.22388    Ni
H       0.0352   0.5737   0.0047     H
H       0.0352   0.9263   0.5047     H
C       0.0627  0.62562  0.07493     C
C       0.0627  0.87438  0.57493     C
O       0.0672  0.08619  0.10742     O
O       0.0672  0.41381  0.60742     O
H       0.0749   0.1986   0.1471     H
H       0.0749   0.3014   0.6471     H
C       0.0953  0.58335  0.04547     C
C       0.0953  0.91665  0.54547     C
O        0.104   0.7104  0.81409     O
O        0.104   0.7896  0.31409     O
N       0.1042   0.1915   0.8245     N
N       0.1042   0.3085   0.3245     N
C       0.1068  0.68459  0.17024     C
C       0.1068  0.81541  0.67024     C
C       0.1186  0.04836  0.13068     C
C       0.1186  0.45164  0.63068     C
H       0.1247   0.2134   0.9236     H
H       0.1247   0.2866   0.4236     H
O       0.1276  0.01214  0.09468     O
O       0.1276  0.48786  0.59468     O
C        0.147  0.64019  0.13709     C
C        0.147  0.85981  0.63709     C
H       0.1472   0.1431   0.7509     H
H       0.1472   0.3569   0.2509     H
C       0.1499  0.19056  0.89183     C
C       0.1499  0.30944  0.39183     C
O       0.1578  0.69387  0.23342     O
O       0.1578  0.80613  0.73342     O
H       0.1612   0.1122   0.2316     H
C       0.1612  0.15228   0.7982     C
C       0.1612  0.34772   0.2982     C
H       0.1612   0.3878   0.7316     H
C       0.1681  0.20413   0.1759     C
C       0.1681  0.29587   0.6759     C
C       0.1732  0.04507   0.2086     C
C       0.1732  0.45493   0.7086     C
N       0.1734  0.22767  0.23525     N
N       0.1734  0.27233  0.73525     N
C       0.1818  0.08347  0.25162     C
C       0.1818  0.41653  0.75162     C
H       0.1834   0.5298   0.9416     H
H       0.1834   0.9702   0.4416     H
H        0.206   0.0148   0.8556     H
H        0.206   0.4852   0.3556     H
H       0.2069   0.5234   0.7112     H
H       0.2069   0.9766   0.2112     H
C       0.2089  0.00282  0.23937     C
C       0.2089  0.49718  0.73937     C
N       0.2104  0.51525  0.45409     N
N       0.2104  0.98475  0.95409     N
H       0.2149   0.1976   0.0297     H
H       0.2149   0.3024   0.5297     H
C       0.2161  0.55522  0.07567     C
C       0.2161  0.94478  0.57567     C
C       0.2204  0.07993  0.32387     C
C       0.2204  0.42007  0.82387     C
C       0.2223  0.69317  0.78551     C
C       0.2223  0.80683  0.28551     C
H       0.2265   0.6693   0.9206     H
H       0.2265   0.8307   0.4206     H
H       0.2267   0.1064   0.3516     H
H       0.2267   0.3936   0.8516     H
C       0.2331  0.50629  0.96839     C
C       0.2331  0.99371  0.46839     C
N       0.2364  0.15361  0.91075     N
N       0.2364  0.34639  0.41075     N
C       0.2406  0.12876   0.8499     C
C       0.2406  0.37124   0.3499     C
O       0.2452  0.70206  0.72174     O
O       0.2452  0.79794  0.22174     O
C       0.2477  0.50074  0.81201     C
C       0.2477  0.99926  0.31201     C
C       0.2498  0.03769  0.35569     C
C       0.2498  0.46231  0.85569     C
C       0.2564  0.50606   0.3872     C
C       0.2564  0.99394   0.8872     C
C       0.2584  0.51158  0.04174     C
C       0.2584  0.98842  0.54174     C
C       0.2664  0.61234   0.1678     C
C       0.2664  0.88766   0.6678     C
H       0.2727   0.5293   0.8318     H
H       0.2727   0.9707   0.3318     H
C       0.2787  0.17163  0.03636     C
C       0.2787  0.32837  0.53636     C
C       0.2805  0.03332  0.43407     C
C       0.2805  0.46668  0.93407     C
H         0.29   0.1004   0.8453     H
H         0.29   0.3996   0.3453     H
C       0.3011  0.57055   0.1376     C
C       0.3011  0.92945   0.6376     C
C       0.3061  0.14308  0.97977     C
C       0.3061  0.35692  0.47977     C
H        0.308    0.559   0.5254     H
H        0.308    0.941   0.0254     H
C       0.3081  0.65398   0.8995     C
C       0.3081  0.84602   0.3995     C
C       0.3112  0.54627  0.48035     C
C       0.3112  0.95373  0.98035     C
N       0.3142  0.18903  0.16178     N
N       0.3142  0.31097  0.66178     N
H       0.3242   0.6218   0.2093     H
H       0.3242   0.8782   0.7093     H
C       0.3319  0.22812   0.2602     C
C       0.3319  0.27188   0.7602     C
C       0.3319  0.66189  0.82881     C
C       0.3319  0.83811  0.32881     C
C       0.3321  0.02417  0.58085     C
C       0.3321  0.47583  0.08085     C
C       0.3478  0.16066  0.10263     C
C       0.3478  0.33934  0.60263     C
H       0.3484   0.0213     0.63     H
H       0.3484   0.4787     0.13     H
C       0.3542  0.06819  0.47494     C
C       0.3542  0.43181  0.97494     C
H       0.3676   0.0926   0.6828     H
H       0.3676   0.4074   0.1828     H
H       0.3724   0.2428   0.3015     H
H       0.3724   0.2572   0.8015     H
C       0.3817  0.06382  0.54845     C
C       0.3817  0.43618  0.04845     C
H       0.3824   0.5524    0.159     H
H       0.3824   0.9476    0.659     H
C       0.3851  0.53166    0.374     C
C       0.3851  0.96834    0.874     C
H       0.3856   0.0949   0.4528     H
H       0.3856   0.4051   0.9528     H
H       0.3876   0.6192   0.9867     H
H       0.3876   0.8808   0.4867     H
C       0.4017  0.10444     0.99     C
C       0.4017  0.39556     0.49     C
C       0.4042  0.62361  0.93894     C
C       0.4042  0.87639  0.43894     C
H        0.418   0.0849   0.9522     H
H        0.418   0.4151   0.4522     H
C       0.4204  0.20424    0.216     C
C       0.4204  0.29576    0.716     C
N       0.4204  0.55753  0.43398     N
N       0.4204  0.94247  0.93398     N
H        0.439   0.5318   0.3326     H
H        0.439   0.9682   0.8326     H
C       0.4465  0.12313  0.11456     C
C       0.4465  0.37687  0.61456     C
C       0.4496  0.10782   0.6617     C
C       0.4496  0.39218   0.1617     C
C       0.4543  0.63865  0.79872     C
C       0.4543  0.86135  0.29872     C
H       0.4696   0.6991   0.2789     H
H       0.4696   0.8009   0.7789     H
C        0.472  0.09538  0.05687     C
C        0.472  0.40462  0.55687     C
H       0.4722   0.6438   0.7513     H
H       0.4722   0.8562   0.2513     H
C       0.4745  0.09933  0.59072     C
C       0.4745  0.40067  0.09072     C
H       0.4941   0.1167   0.1596     H
H       0.4941   0.3833   0.6596     H
H       0.5059   0.6167   0.3404     H
H       0.5059   0.8833   0.8404     H
C       0.5255  0.59933  0.90928     C
C       0.5255  0.90067  0.40928     C
H       0.5278   0.1438   0.7487     H
H       0.5278   0.3562   0.2487     H
C        0.528  0.59538  0.44313     C
C        0.528  0.90462  0.94313     C
H       0.5304   0.1991   0.2211     H
H       0.5304   0.3009   0.7211     H
C       0.5457  0.13865  0.70128     C
C       0.5457  0.36135  0.20128     C
C       0.5504  0.60782   0.8383     C
C       0.5504  0.89218   0.3383     C
C       0.5535  0.62313  0.38544     C
C       0.5535  0.87687  0.88544     C
H        0.561   0.0318   0.1674     H
H        0.561   0.4682   0.6674     H
N       0.5796  0.05753  0.06602     N
N       0.5796  0.44247  0.56602     N
C       0.5796  0.70424    0.284     C
C       0.5796  0.79576    0.784     C
H        0.582   0.5849   0.5478     H
H        0.582   0.9151   0.0478     H
C       0.5958  0.12361  0.56106     C
C       0.5958  0.37639  0.06106     C
C       0.5983  0.60444     0.51     C
C       0.5983  0.89556     0.01     C
H       0.6124   0.1192   0.5133     H
H       0.6124   0.3808   0.0133     H
H       0.6144   0.5949   0.0472     H
H       0.6144   0.9051   0.5472     H
C       0.6149  0.03166    0.126     C
C       0.6149  0.46834    0.626     C
H       0.6176   0.0524    0.341     H
H       0.6176   0.4476    0.841     H
C       0.6183  0.56382  0.95155     C
C       0.6183  0.93618  0.45155     C
H       0.6276   0.7428   0.1985     H
H       0.6276   0.7572   0.6985     H
H       0.6324   0.5926   0.8172     H
H       0.6324   0.9074   0.3172     H
C       0.6458  0.56819  0.02506     C
C       0.6458  0.93181  0.52506     C
H       0.6516   0.5213     0.87     H
H       0.6516   0.9787     0.37     H
C       0.6522  0.66066  0.39737     C
C       0.6522  0.83934  0.89737     C
C       0.6679  0.52417  0.91915     C
C       0.6679  0.97583  0.41915     C
C       0.6681  0.16189  0.67119     C
C       0.6681  0.33811  0.17119     C
C       0.6681  0.72812   0.2398     C
C       0.6681  0.77188   0.7398     C
H       0.6758   0.1218   0.2907     H
H       0.6758   0.3782   0.7907     H
N       0.6858  0.68903  0.33822     N
N       0.6858  0.81097  0.83822     N
C       0.6888  0.04627  0.01965     C
C       0.6888  0.45373  0.51965     C
C       0.6919  0.15398   0.6005     C
C       0.6919  0.34602   0.1005     C
H        0.692    0.059   0.9746     H
H        0.692    0.441   0.4746     H
C       0.6939  0.64308  0.52023     C
C       0.6939  0.85692  0.02023     C
C       0.6989  0.07055   0.3624     C
C       0.6989  0.42945   0.8624     C
H         0.71   0.6004   0.6547     H
H         0.71   0.8996   0.1547     H
C       0.7195  0.53332  0.06593     C
C       0.7195  0.96668  0.56593     C
C       0.7213  0.67163  0.46364     C
C       0.7213  0.82837  0.96364     C
H       0.7273   0.0293   0.6682     H
H       0.7273   0.4707   0.1682     H
C       0.7336  0.11234   0.3322     C
C       0.7336  0.38766   0.8322     C
C       0.7416  0.01158  0.45826     C
C       0.7416  0.48842  0.95826     C
C       0.7436  0.00606   0.1128     C
C       0.7436  0.49394   0.6128     C
C       0.7502  0.53769  0.14431     C
C       0.7502  0.96231  0.64431     C
C       0.7523  0.00074  0.68799     C
C       0.7523  0.49926  0.18799     C
O       0.7548  0.20206  0.77826     O
O       0.7548  0.29794  0.27826     O
C       0.7594  0.62876   0.6501     C
C       0.7594  0.87124   0.1501     C
N       0.7636  0.65361  0.58925     N
N       0.7636  0.84639  0.08925     N
C       0.7669  0.00629  0.53161     C
C       0.7669  0.49371  0.03161     C
H       0.7733   0.6064   0.1484     H
H       0.7733   0.8936   0.6484     H
H       0.7735   0.1693   0.5794     H
H       0.7735   0.3307   0.0794     H
C       0.7777  0.19317  0.71449     C
C       0.7777  0.30683  0.21449     C
C       0.7796  0.57993  0.17613     C
C       0.7796  0.92007  0.67613     C
C       0.7839  0.05522  0.42433     C
C       0.7839  0.44478  0.92433     C
H       0.7851   0.6976   0.4703     H
H       0.7851   0.8024   0.9703     H
N       0.7896  0.01525  0.04591     N
N       0.7896  0.48475  0.54591     N
C       0.7911  0.50282  0.26063     C
C       0.7911  0.99718  0.76063     C
H       0.7931   0.0234   0.7888     H
H       0.7931   0.4766   0.2888     H
H        0.794   0.5148   0.6444     H
H        0.794   0.9852   0.1444     H
H       0.8166   0.0298   0.5584     H
H       0.8166   0.4702   0.0584     H
C       0.8182  0.58347  0.24838     C
C       0.8182  0.91653  0.74838     C
N       0.8266  0.72767  0.26475     N
N       0.8266  0.77233  0.76475     N
C       0.8268  0.54507   0.2914     C
C       0.8268  0.95493   0.7914     C
C       0.8319  0.70413   0.3241     C
C       0.8319  0.79587   0.8241     C
H       0.8388   0.6122   0.2684     H
C       0.8388  0.65228   0.7018     C
C       0.8388  0.84772   0.2018     C
H       0.8388   0.8878   0.7684     H
O       0.8422  0.19387  0.26658     O
O       0.8422  0.30613  0.76658     O
C       0.8501  0.69056  0.60817     C
C       0.8501  0.80944  0.10817     C
H       0.8528   0.6431   0.7491     H
H       0.8528   0.8569   0.2491     H
C        0.853  0.14019  0.36291     C
C        0.853  0.35981  0.86291     C
O       0.8724  0.51214  0.40532     O
O       0.8724  0.98786  0.90532     O
H       0.8753   0.7134   0.5764     H
H       0.8753   0.7866   0.0764     H
C       0.8814  0.54836  0.36932     C
C       0.8814  0.95164  0.86932     C
C       0.8932  0.18459  0.32976     C
C       0.8932  0.31541  0.82976     C
N       0.8958   0.6915   0.6755     N
N       0.8958   0.8085   0.1755     N
O        0.896   0.2104  0.68591     O
O        0.896   0.2896  0.18591     O
C       0.9047  0.08335  0.45453     C
C       0.9047  0.41665  0.95453     C
H       0.9251   0.6986   0.3529     H
H       0.9251   0.8014   0.8529     H
O       0.9328  0.58619  0.39258     O
O       0.9328  0.91381  0.89258     O
C       0.9373  0.12562  0.42507     C
C       0.9373  0.37438  0.92507     C
H       0.9648   0.0737   0.4953     H
H       0.9648   0.4263   0.9953     H
Ni     0.97903  0.24354  0.77612    Ni
Ni     0.97903  0.25646  0.27612    Ni
O       0.9822   0.2134  0.36442     O
O       0.9822   0.2866  0.86442     O
H       0.9838   0.6443   0.0529     H
H       0.9838   0.8557   0.5529     H
