data_I
_chemical_name_common  '/home/zhangsd/repos/MofS-CGCNN/ML/data/SSD/clean_cifs/EBELUU_clean'
_cell_length_a  7.36200
_cell_length_b 12.94600
_cell_length_c 13.62800
_cell_angle_alpha 90.00000
_cell_angle_beta  91.31200
_cell_angle_gamma 90.00000
_space_group_name_H-M_alt      'P 1'


loop_
_space_group_symop_operation_xyz
  'x, y, z' 

loop_
_atom_site_label
_atom_site_fract_x
_atom_site_fract_y
_atom_site_fract_z
_atom_site_type_symbol
Ni         0.0      0.0      0.0    Ni
Ni         0.0      0.5      0.0    Ni
C       0.1723   0.5782   0.9536     C
C       0.1723   0.9218   0.9536     C
C       0.1995   0.0917   0.0378     C
C       0.1995   0.4083   0.0378     C
O       0.2688     0.75   0.4226     O
N       0.2897   0.6336   0.9223     N
N       0.2897   0.8664   0.9223     N
N       0.3055   0.1398   0.0765     N
N       0.3055   0.3602   0.0765     N
C       0.4242     0.75    0.385     C
H       0.4364   0.5965   0.2588     H
H       0.4364   0.9035   0.2588     H
N       0.4397     0.25    0.559     N
C       0.4453     0.75   0.2761     C
C       0.4483   0.6586   0.2253     C
C       0.4483   0.8414   0.2253     C
H       0.4587   0.0952   0.4337     H
H       0.4587   0.4048   0.4337     H
C       0.4593     0.25   0.4487     C
C        0.469   0.1575   0.4002     C
C        0.469   0.3425   0.4002     C
C       0.4694   0.6582   0.1233     C
C       0.4694   0.8418   0.1233     C
N       0.4762     0.75    0.071     N
H       0.4789   0.5956   0.0903     H
H       0.4789   0.9044   0.0903     H
N       0.4943     0.75   0.7511     N
C       0.4948   0.1593    0.299     C
C       0.4948   0.3407    0.299     C
H       0.4953   0.5973   0.7349     H
H       0.4953   0.9027   0.7349     H
Zn     0.49976     0.75  0.91376    Zn
Zn     0.50024     0.25  0.08624    Zn
H       0.5047   0.0973   0.2651     H
H       0.5047   0.4027   0.2651     H
C       0.5052   0.6593    0.701     C
C       0.5052   0.8407    0.701     C
N       0.5057     0.25   0.2489     N
H       0.5211   0.0956   0.9097     H
H       0.5211   0.4044   0.9097     H
N       0.5238     0.25    0.929     N
C       0.5306   0.1582   0.8767     C
C       0.5306   0.3418   0.8767     C
C        0.531   0.6575   0.5998     C
C        0.531   0.8425   0.5998     C
C       0.5407     0.75   0.5513     C
H       0.5413   0.5952   0.5663     H
H       0.5413   0.9048   0.5663     H
C       0.5517   0.1586   0.7747     C
C       0.5517   0.3414   0.7747     C
C       0.5547     0.25   0.7239     C
N       0.5603     0.75    0.441     N
H       0.5636   0.0965   0.7412     H
H       0.5636   0.4035   0.7412     H
C       0.5758     0.25    0.615     C
N       0.6945   0.6398   0.9235     N
N       0.6945   0.8602   0.9235     N
N       0.7103   0.1336   0.0777     N
N       0.7103   0.3664   0.0777     N
O       0.7312     0.25   0.5774     O
C       0.8005   0.5917   0.9622     C
C       0.8005   0.9083   0.9622     C
C       0.8277   0.0782   0.0464     C
C       0.8277   0.4218   0.0464     C
