data_I
_chemical_name_common  '/home/zhangsd/repos/MofS-CGCNN/ML/data/SSD/clean_cifs/EDADET_clean'
_cell_length_a  6.79810
_cell_length_b 11.97800
_cell_length_c 13.51500
_cell_angle_alpha 90.00000
_cell_angle_beta  100.17400
_cell_angle_gamma 90.00000
_space_group_name_H-M_alt      'P 1'


loop_
_space_group_symop_operation_xyz
  'x, y, z' 

loop_
_atom_site_label
_atom_site_fract_x
_atom_site_fract_y
_atom_site_fract_z
_atom_site_type_symbol
C        0.021   0.1742   0.4184     C
C        0.021   0.3258   0.9184     C
C        0.031   0.6215   0.8921     C
C        0.031   0.8785   0.3921     C
H        0.038   0.1974   0.3548     H
H        0.038   0.3026   0.8548     H
C        0.046   0.6043   0.7836     C
C        0.046   0.8957   0.2836     C
O       0.1163   0.1005   0.7783     O
O       0.1163   0.3995   0.2783     O
N        0.145   0.1636   0.5941     N
N        0.145   0.3364   0.0941     N
C        0.156   0.6238   0.0673     C
C        0.156   0.8762   0.5673     C
C        0.171   0.1894   0.5007     C
C        0.171   0.3106   0.0007     C
C        0.183   0.5974   0.9716     C
C        0.183   0.9026   0.4716     C
O       0.2169    0.594   0.7612     O
O       0.2169    0.906   0.2612     O
H        0.301   0.5641   0.9606     H
H        0.301   0.9359   0.4606     H
C        0.317   0.5996    0.157     C
C        0.317   0.9004    0.657     C
O        0.335   0.6679   0.2284     O
O        0.335   0.8321   0.7284     O
C        0.376   0.2339   0.4947     C
C        0.376   0.2661   0.9947     C
O       0.4172   0.2429   0.9105     O
O       0.4172   0.2571   0.4105     O
O       0.4211   0.5133   0.1547     O
O       0.4211   0.9867   0.6547     O
Pr     0.44372  0.17014  0.74349    Pr
Pr     0.44372  0.32986  0.24349    Pr
O       0.4952   0.2441   0.5771     O
O       0.4952   0.2559   0.0771     O
O       0.5048   0.7441   0.9229     O
O       0.5048   0.7559   0.4229     O
Pr     0.55628  0.67014  0.75651    Pr
Pr     0.55628  0.82986  0.25651    Pr
O       0.5789   0.0133   0.3453     O
O       0.5789   0.4867   0.8453     O
O       0.5828   0.7429   0.5895     O
O       0.5828   0.7571   0.0895     O
C        0.624   0.7339   0.0053     C
C        0.624   0.7661   0.5053     C
O        0.665   0.1679   0.2716     O
O        0.665   0.3321   0.7716     O
C        0.683   0.0996    0.343     C
C        0.683   0.4004    0.843     C
H        0.699   0.0641   0.5394     H
H        0.699   0.4359   0.0394     H
O       0.7831    0.094   0.7388     O
O       0.7831    0.406   0.2388     O
C        0.817   0.0974   0.5284     C
C        0.817   0.4026   0.0284     C
C        0.829   0.6894   0.9993     C
C        0.829   0.8106   0.4993     C
C        0.844   0.1238   0.4327     C
C        0.844   0.3762   0.9327     C
N        0.855   0.6636   0.9059     N
N        0.855   0.8364   0.4059     N
O       0.8837   0.6005   0.7217     O
O       0.8837   0.8995   0.2217     O
C        0.954   0.1043   0.7164     C
C        0.954   0.3957   0.2164     C
H        0.962   0.6974   0.1452     H
H        0.962   0.8026   0.6452     H
C        0.969   0.1215   0.6079     C
C        0.969   0.3785   0.1079     C
C        0.979   0.6742   0.0816     C
C        0.979   0.8258   0.5816     C
