data_I
_chemical_name_common  '/home/zhangsd/repos/MofS-CGCNN/ML/data/SSD/clean_cifs/EJAXIW_clean'
_cell_length_a 13.64400
_cell_length_b 15.33390
_cell_length_c 15.33390
_cell_angle_alpha 99.17270
_cell_angle_beta  102.33200
_cell_angle_gamma 77.66850
_space_group_name_H-M_alt      'P 1'


loop_
_space_group_symop_operation_xyz
  'x, y, z' 

loop_
_atom_site_label
_atom_site_fract_x
_atom_site_fract_y
_atom_site_fract_z
_atom_site_type_symbol
Co         0.0      0.0      0.5    Co
H       0.0002   0.5499   0.0867     H
H       0.0012   0.7041   0.2947     H
N       0.0016    0.142   0.5388     N
C       0.0042    0.271   0.6468     C
C       0.0096   0.8176   0.3804     C
C       0.0157    0.502    0.955     C
H       0.0167   0.4508   0.7426     H
H       0.0173   0.5427   0.4063     H
C       0.0185   0.1924   0.4858     C
H       0.0198   0.3859   0.2801     H
H       0.0213   0.1663   0.4271     H
H        0.024   0.4446   0.0706     H
C        0.025   0.3216   0.5916     C
H       0.0272   0.8488   0.3406     H
O       0.0291   0.9986   0.2306     O
C       0.0328   0.2802    0.506     C
O       0.0335  0.97684  0.63336     O
C       0.0444   0.4165   0.6167     C
H       0.0454   0.7444   0.7598     H
H       0.0471   0.3105   0.4635     H
C       0.0505   0.6112   0.7348     C
S       0.0614  0.97351  0.73021     S
C       0.0749   0.4448   0.7138     C
C       0.0905   0.6895   0.7579     C
H       0.0975   0.4231   0.5863     H
O       0.1126  0.88261  0.74779     O
C       0.1135   0.5318    0.734     C
C       0.1273   0.5037   0.9657     C
H       0.1279   0.3981   0.7397     H
H       0.1291   0.6358   0.9954     H
O       0.1358   0.0346   0.7672     O
H       0.1555   0.9571   0.3693     H
N       0.1619   0.9828    0.498     N
C       0.1711   0.5798   0.9874     C
H       0.1736   0.3688   0.9336     H
H       0.1812   0.7944   0.6094     H
N       0.1902   0.6898   0.7778     N
C        0.197   0.4228   0.9512     C
C       0.2003   0.9632    0.424     C
H       0.2039   0.0155   0.6285     H
C       0.2167   0.5318   0.7548     C
C       0.2292   0.9975   0.5755     C
H       0.2365   0.7532    0.478     H
C       0.2488   0.6113   0.7775     C
Co        0.25  0.81207  0.81207    Co
C       0.2512   0.7775   0.6113     C
H       0.2635    0.478   0.7532     H
C       0.2708   0.5755   0.9975     C
C       0.2833   0.7548   0.5318     C
H       0.2961   0.6285   0.0155     H
C       0.2997    0.424   0.9632     C
C        0.303   0.9512   0.4228     C
N       0.3098   0.7778   0.6898     N
H       0.3188   0.6094   0.7944     H
H       0.3264   0.9336   0.3688     H
C       0.3289   0.9874   0.5798     C
N       0.3381    0.498   0.9828     N
H       0.3445   0.3693   0.9571     H
O       0.3642   0.7672   0.0346     O
H       0.3709   0.9954   0.6358     H
H       0.3721   0.7397   0.3981     H
C       0.3727   0.9657   0.5037     C
C       0.3865    0.734   0.5318     C
O       0.3874  0.74779  0.88261     O
H       0.4025   0.5863   0.4231     H
C       0.4095   0.7579   0.6895     C
C       0.4251   0.7138   0.4448     C
S       0.4386  0.73021  0.97351     S
C       0.4495   0.7348   0.6112     C
H       0.4529   0.4635   0.3105     H
H       0.4546   0.7598   0.7444     H
C       0.4556   0.6167   0.4165     C
O       0.4665  0.63336  0.97684     O
C       0.4672    0.506   0.2802     C
O       0.4709   0.2306   0.9986     O
H       0.4728   0.3406   0.8488     H
C        0.475   0.5916   0.3216     C
H        0.476   0.0706   0.4446     H
H       0.4787   0.4271   0.1663     H
H       0.4802   0.2801   0.3859     H
C       0.4815   0.4858   0.1924     C
H       0.4827   0.4063   0.5427     H
H       0.4833   0.7426   0.4508     H
C       0.4843    0.955    0.502     C
C       0.4904   0.3804   0.8176     C
C       0.4958   0.6468    0.271     C
N       0.4984   0.5388    0.142     N
H       0.4988   0.2947   0.7041     H
H       0.4998   0.0867   0.5499     H
Co         0.5      0.5      0.0    Co
H       0.5002   0.9133   0.4501     H
H       0.5012   0.7053   0.2959     H
N       0.5016   0.4612    0.858     N
C       0.5042   0.3532    0.729     C
C       0.5096   0.6196   0.1824     C
C       0.5157    0.045    0.498     C
H       0.5167   0.2574   0.5492     H
H       0.5173   0.5937   0.4573     H
C       0.5185   0.5142   0.8076     C
H       0.5198   0.7199   0.6141     H
H       0.5213   0.5729   0.8337     H
H        0.524   0.9294   0.5554     H
C        0.525   0.4084   0.6784     C
H       0.5272   0.6594   0.1512     H
O       0.5291   0.7694   0.0014     O
C       0.5328    0.494   0.7198     C
O       0.5335  0.36664  0.02316     O
C       0.5444   0.3833   0.5835     C
H       0.5454   0.2402   0.2556     H
H       0.5471   0.5365   0.6895     H
C       0.5505   0.2652   0.3888     C
S       0.5614  0.26979  0.02649     S
C       0.5749   0.2862   0.5552     C
C       0.5905   0.2421   0.3105     C
H       0.5975   0.4137   0.5769     H
O       0.6126  0.25221  0.11739     O
C       0.6135    0.266   0.4682     C
C       0.6273   0.0343   0.4963     C
H       0.6279   0.2603   0.6019     H
H       0.6291   0.0046   0.3642     H
O       0.6358   0.2328   0.9654     O
H       0.6555   0.6307   0.0429     H
N       0.6619    0.502   0.0172     N
C       0.6711   0.0126   0.4202     C
H       0.6736   0.0664   0.6312     H
H       0.6812   0.3906   0.2056     H
N       0.6902   0.2222   0.3102     N
C        0.697   0.0488   0.5772     C
C       0.7003    0.576   0.0368     C
H       0.7039   0.3715   0.9845     H
C       0.7167   0.2452   0.4682     C
C       0.7292   0.4245   0.0025     C
H       0.7365    0.522   0.2468     H
C       0.7488   0.2225   0.3887     C
Co        0.75  0.18793  0.18793    Co
C       0.7512   0.3887   0.2225     C
H       0.7635   0.2468    0.522     H
C       0.7708   0.0025   0.4245     C
C       0.7833   0.4682   0.2452     C
H       0.7961   0.9845   0.3715     H
C       0.7997   0.0368    0.576     C
C        0.803   0.5772   0.0488     C
N       0.8098   0.3102   0.2222     N
H       0.8188   0.2056   0.3906     H
H       0.8264   0.6312   0.0664     H
C       0.8289   0.4202   0.0126     C
N       0.8381   0.0172    0.502     N
H       0.8445   0.0429   0.6307     H
O       0.8642   0.9654   0.2328     O
H       0.8709   0.3642   0.0046     H
H       0.8721   0.6019   0.2603     H
C       0.8727   0.4963   0.0343     C
C       0.8865   0.4682    0.266     C
O       0.8874  0.11739  0.25221     O
H       0.9025   0.5769   0.4137     H
C       0.9095   0.3105   0.2421     C
C       0.9251   0.5552   0.2862     C
S       0.9386  0.02649  0.26979     S
C       0.9495   0.3888   0.2652     C
H       0.9529   0.6895   0.5365     H
H       0.9546   0.2556   0.2402     H
C       0.9556   0.5835   0.3833     C
O       0.9665  0.02316  0.36664     O
C       0.9672   0.7198    0.494     C
O       0.9709   0.0014   0.7694     O
H       0.9728   0.1512   0.6594     H
C        0.975   0.6784   0.4084     C
H        0.976   0.5554   0.9294     H
H       0.9787   0.8337   0.5729     H
H       0.9802   0.6141   0.7199     H
C       0.9815   0.8076   0.5142     C
H       0.9827   0.4573   0.5937     H
H       0.9833   0.5492   0.2574     H
C       0.9843    0.498    0.045     C
C       0.9904   0.1824   0.6196     C
C       0.9958    0.729   0.3532     C
N       0.9984    0.858   0.4612     N
H       0.9988   0.2959   0.7053     H
H       0.9998   0.4501   0.9133     H
