data_I
_chemical_name_common  '/home/zhangsd/repos/MofS-CGCNN/ML/data/SSD/clean_cifs/EJUVOU_clean'
_cell_length_a  7.25900
_cell_length_b 13.40700
_cell_length_c 18.03100
_cell_angle_alpha 90.00000
_cell_angle_beta  90.00000
_cell_angle_gamma 90.00000
_space_group_name_H-M_alt      'P 1'


loop_
_space_group_symop_operation_xyz
  'x, y, z' 

loop_
_atom_site_label
_atom_site_fract_x
_atom_site_fract_y
_atom_site_fract_z
_atom_site_type_symbol
Zn      0.0008  0.62934  0.72291    Zn
Zn      0.0135  0.38506  0.70659    Zn
O       0.0313   0.0145   0.8431     O
O       0.0434   0.4888   0.2306     O
Zn      0.0536  0.85794  0.30279    Zn
Zn      0.0576   0.1119  0.31391    Zn
O         0.06   0.7309   0.1525     O
O        0.071   0.2405   0.1645     O
O        0.073   0.7358   0.6609     O
O       0.0819   0.0233   0.9788     O
O       0.0936   0.5052   0.3666     O
O        0.094   0.2791   0.6423     O
Zn      0.1428  0.99846  0.08123    Zn
P       0.1823   0.0196   0.9066     P
P       0.1895   0.4961    0.293     P
O       0.1954   0.5967   0.7904     O
O        0.197   0.4107   0.7814     O
O        0.201   0.0719   0.4013     O
O       0.2015   0.8872   0.3901     O
O       0.2118   0.8878   0.6135     O
O       0.2263   0.8521   0.7505     O
O       0.2384   0.8629   0.0911     O
P       0.2396   0.8092   0.6709     P
P       0.2404   0.7887   0.1526     P
O        0.241   0.1592   0.7287     O
O        0.259   0.8408   0.2287     O
P       0.2596   0.2113   0.6526     P
P       0.2604   0.1908   0.1709     P
O       0.2616   0.1371   0.5911     O
O       0.2737   0.1479   0.2505     O
O       0.2882   0.1122   0.1135     O
O       0.2985   0.1128   0.8901     O
O        0.299   0.9281   0.9013     O
O        0.303   0.5893   0.2814     O
O       0.3046   0.4033   0.2904     O
P       0.3105   0.5039    0.793     P
P       0.3177   0.9804   0.4066     P
Zn      0.3572  0.00154  0.58123    Zn
O        0.406   0.7209   0.1423     O
O       0.4064   0.4948   0.8666     O
O       0.4181   0.9767   0.4788     O
O        0.427   0.2642   0.1609     O
O        0.429   0.7595   0.6645     O
O         0.44   0.2691   0.6525     O
Zn      0.4424   0.8881  0.81391    Zn
Zn      0.4464  0.14206  0.80279    Zn
O       0.4566   0.5112   0.7306     O
O       0.4687   0.9855   0.3431     O
Zn      0.4865  0.61494  0.20659    Zn
Zn      0.4992  0.37066  0.22291    Zn
Zn      0.5008  0.87066  0.27709    Zn
Zn      0.5135  0.11494  0.29341    Zn
O       0.5313   0.4855   0.1569     O
O       0.5434   0.0112   0.7694     O
Zn      0.5536  0.64206  0.69721    Zn
Zn      0.5576   0.3881  0.68609    Zn
O         0.56   0.7691   0.8475     O
O        0.571   0.2595   0.8355     O
O        0.573   0.7642   0.3391     O
O       0.5819   0.4767   0.0212     O
O       0.5936   0.9948   0.6334     O
O        0.594   0.2209   0.3577     O
Zn      0.6428  0.50154  0.91877    Zn
P       0.6823   0.4804   0.0934     P
P       0.6895   0.0039    0.707     P
O       0.6954   0.9033   0.2096     O
O        0.697   0.0893   0.2186     O
O        0.701   0.4281   0.5987     O
O       0.7015   0.6128   0.6099     O
O       0.7118   0.6122   0.3865     O
O       0.7263   0.6479   0.2495     O
O       0.7384   0.6371   0.9089     O
P       0.7396   0.6908   0.3291     P
P       0.7404   0.7113   0.8474     P
O        0.741   0.3408   0.2713     O
O        0.759   0.6592   0.7713     O
P       0.7596   0.2887   0.3474     P
P       0.7604   0.3092   0.8291     P
O       0.7616   0.3629   0.4089     O
O       0.7737   0.3521   0.7495     O
O       0.7882   0.3878   0.8865     O
O       0.7985   0.3872   0.1099     O
O        0.799   0.5719   0.0987     O
O        0.803   0.9107   0.7186     O
O       0.8046   0.0967   0.7096     O
P       0.8105   0.9961    0.207     P
P       0.8177   0.5196   0.5934     P
Zn      0.8572  0.49846  0.41877    Zn
O        0.906   0.7791   0.8577     O
O       0.9064   0.0052   0.1334     O
O       0.9181   0.5233   0.5212     O
O        0.927   0.2358   0.8391     O
O        0.929   0.7405   0.3355     O
O         0.94   0.2309   0.3475     O
Zn      0.9424   0.6119  0.18609    Zn
Zn      0.9464  0.35794  0.19721    Zn
O       0.9566   0.9888   0.2694     O
O       0.9687   0.5145   0.6569     O
Zn      0.9865  0.88506  0.79341    Zn
Zn      0.9992  0.12934  0.77709    Zn
