data_I
_chemical_name_common  '/home/zhangsd/repos/MofS-CGCNN/ML/data/SSD/clean_cifs/EKOPOK_clean'
_cell_length_a 14.20860
_cell_length_b 15.58830
_cell_length_c 15.58830
_cell_angle_alpha 78.01220
_cell_angle_beta  62.88710
_cell_angle_gamma 62.88710
_space_group_name_H-M_alt      'P 1'


loop_
_space_group_symop_operation_xyz
  'x, y, z' 

loop_
_atom_site_label
_atom_site_fract_x
_atom_site_fract_y
_atom_site_fract_z
_atom_site_type_symbol
C       0.0215   0.1743   0.6191     C
O      0.03264  0.11125  0.57107     O
C       0.0352    0.742   0.6528     C
C      0.03699  0.58661  0.10961     C
O      0.04258   0.5184  0.07584     O
C       0.0433  0.62922  0.78278     C
Ca     0.04746  0.40508      0.0    Ca
H       0.0528   0.7268   0.3456     H
O        0.055   0.3201   0.3293     O
H       0.0706   0.7748   0.6006     H
H       0.0843   0.5862   0.8176     H
C       0.0951   0.6794    0.706     C
H       0.0981   0.8176   0.4138     H
H       0.1016   0.2732   0.3456     H
O      0.10913  0.17631  0.61803     O
O       0.1157   0.6799   0.3293     O
O       0.1196  0.61314  0.07586     O
O       0.1249   0.3201   0.6707     O
H       0.1252   0.2732   0.6544     H
O      0.13682  0.92416   0.4816     O
H       0.1546   0.3994   0.7748     H
C      0.17392  0.78278  0.37078     C
C       0.1989    0.706   0.3206     C
O       0.2044   0.6707   0.6799     O
O      0.21456  0.17631  0.38197     O
O      0.21496  0.42893  0.88875     O
H       0.2204   0.6544   0.7268     H
C       0.2228   0.3472    0.742     C
C       0.2255    0.294   0.6794     C
Cd     0.23224  0.03553      0.5    Cd
C      0.23321  0.89039  0.41339     C
C      0.26253  0.80797  0.35677     C
O      0.26726  0.92414  0.61314     O
Cd     0.26777      0.5  0.96446    Cd
O      0.27284  0.61803  0.82369     O
H       0.2786   0.2853   0.2297     H
H       0.2936   0.7703   0.7147     H
C       0.3042   0.1743   0.3809     C
O      0.30454  0.38686  0.07586     O
O       0.3086  0.92414  0.38686     O
C        0.312   0.6528    0.258     C
C       0.3149   0.3809   0.8257     C
C      0.32285  0.32255  0.75595     C
C      0.32748  0.21722  0.62922     C
H       0.3288   0.6006   0.2252     H
H       0.3295   0.1824   0.5862     H
C       0.3295   0.2938   0.2456     C
C       0.3534  0.41339  0.10961     C
C       0.3546  0.24405  0.32255     C
O      0.35611  0.11125  0.42893     O
C       0.3594   0.6191   0.8257     C
C       0.3689   0.7544   0.7062     C
C       0.3764  0.89039  0.58661     C
C       0.3767   0.7544   0.2938     C
C       0.3807  0.35677  0.19203     C
O      0.38158   0.4816  0.07584     O
O      0.39629  0.57107  0.88875     O
C      0.40135  0.67745  0.24405     C
O      0.40347  0.38197  0.82369     O
C       0.4212  0.67745  0.75595     C
C       0.4249   0.2456   0.7062     C
C      0.42727  0.19203  0.64323     C
C       0.4295  0.80797  0.64323     C
C         0.43    0.258   0.3472     C
H       0.4361   0.7703   0.2853     H
O      0.43902  0.92416   0.5184     O
H        0.446   0.2252   0.3994     H
Ca     0.45254  0.59492     -0.0    Ca
C       0.4553  0.37078  0.21722     C
C       0.4805   0.3206    0.294     C
H       0.4881   0.4138   0.1824     H
H       0.4917   0.2297   0.7147     H
C       0.5215   0.6191   0.1743     C
O      0.53264  0.57107  0.11125     O
C       0.5352   0.6528    0.742     C
C      0.53699  0.10961  0.58661     C
O      0.54258  0.07584   0.5184     O
C       0.5433  0.78278  0.62922     C
Ca     0.54746      0.0  0.40508    Ca
H       0.5528   0.3456   0.7268     H
O        0.555   0.3293   0.3201     O
H       0.5706   0.6006   0.7748     H
H       0.5843   0.8176   0.5862     H
C       0.5951    0.706   0.6794     C
H       0.5981   0.4138   0.8176     H
H       0.6016   0.3456   0.2732     H
O      0.60913  0.61803  0.17631     O
O       0.6157   0.3293   0.6799     O
O       0.6196  0.07586  0.61314     O
O       0.6249   0.6707   0.3201     O
H       0.6252   0.6544   0.2732     H
O      0.63682   0.4816  0.92416     O
H       0.6546   0.7748   0.3994     H
C      0.67392  0.37078  0.78278     C
C       0.6989   0.3206    0.706     C
O       0.7044   0.6799   0.6707     O
O      0.71456  0.38197  0.17631     O
O      0.71496  0.88875  0.42893     O
H       0.7204   0.7268   0.6544     H
C       0.7228    0.742   0.3472     C
C       0.7255   0.6794    0.294     C
Cd     0.73223      0.5  0.03554    Cd
C      0.73321  0.41339  0.89039     C
C      0.76253  0.35677  0.80797     C
O      0.76726  0.61314  0.92414     O
Cd     0.76776  0.96447      0.5    Cd
O      0.77284  0.82369  0.61803     O
H       0.7786   0.2297   0.2853     H
H       0.7936   0.7147   0.7703     H
C       0.8042   0.3809   0.1743     C
O      0.80454  0.07586  0.38686     O
O       0.8086  0.38686  0.92414     O
C        0.812    0.258   0.6528     C
C       0.8149   0.8257   0.3809     C
C      0.82285  0.75595  0.32255     C
C      0.82748  0.62922  0.21722     C
H       0.8288   0.2252   0.6006     H
C       0.8295   0.2456   0.2938     C
H       0.8295   0.5862   0.1824     H
C       0.8534  0.10961  0.41339     C
C       0.8546  0.32255  0.24405     C
O      0.85611  0.42893  0.11125     O
C       0.8594   0.8257   0.6191     C
C       0.8689   0.7062   0.7544     C
C       0.8764  0.58661  0.89039     C
C       0.8767   0.2938   0.7544     C
C       0.8807  0.19203  0.35677     C
O      0.88158  0.07584   0.4816     O
O      0.89629  0.88875  0.57107     O
C      0.90135  0.24405  0.67745     C
O      0.90347  0.82369  0.38197     O
C       0.9212  0.75595  0.67745     C
C       0.9249   0.7062   0.2456     C
C      0.92727  0.64323  0.19203     C
C       0.9295  0.64323  0.80797     C
C         0.93   0.3472    0.258     C
H       0.9361   0.2853   0.7703     H
O      0.93902   0.5184  0.92416     O
H        0.946   0.3994   0.2252     H
Ca     0.95254      0.0  0.59492    Ca
C       0.9553  0.21722  0.37078     C
C       0.9805    0.294   0.3206     C
H       0.9881   0.1824   0.4138     H
H       0.9917   0.7147   0.2297     H
