data_I
_chemical_name_common  '/home/zhangsd/repos/MofS-CGCNN/ML/data/SSD/clean_cifs/ELUJAY_clean'
_cell_length_a 13.39000
_cell_length_b 24.07400
_cell_length_c 13.17900
_cell_angle_alpha 90.00000
_cell_angle_beta  90.00000
_cell_angle_gamma 90.00000
_space_group_name_H-M_alt      'P 1'


loop_
_space_group_symop_operation_xyz
  'x, y, z' 

loop_
_atom_site_label
_atom_site_fract_x
_atom_site_fract_y
_atom_site_fract_z
_atom_site_type_symbol
Zn         0.0      0.5   0.1179    Zn
Zn         0.0      0.5   0.6179    Zn
O        0.013   0.2388   0.1259     O
O        0.013   0.7612   0.6259     O
N       0.0152   0.0239    0.085     N
N       0.0152   0.9761    0.585     N
N       0.0241   0.0231   0.8363     N
N       0.0241   0.9769   0.3363     N
C        0.031   0.1192   0.6031     C
C        0.031   0.8808   0.1031     C
H       0.0366   0.1277   0.1077     H
H       0.0366   0.8723   0.6077     H
Sm     0.05892  0.34298  0.61653    Sm
Sm     0.05892  0.65702  0.11653    Sm
C       0.0608   0.0656   0.5897     C
C       0.0608   0.9344   0.0897     C
O       0.0675   0.4388   0.7118     O
O       0.0675   0.5612   0.2118     O
O       0.0711   0.4255   0.5005     O
O       0.0711   0.5745   0.0005     O
C       0.0732    0.223   0.6215     C
C       0.0732    0.777   0.1215     C
H       0.0927    0.491   0.3533     H
H       0.0927    0.509   0.8533     H
O       0.0992   0.3779    0.115     O
O       0.0992   0.6221    0.615     O
C       0.1029   0.1615   0.6098     C
C       0.1029   0.8385   0.1098     C
C       0.1287   0.0172   0.8377     C
C       0.1287   0.9828   0.3377     C
O       0.1313   0.4677    0.088     O
O       0.1313   0.5323    0.588     O
H       0.1437    0.055   0.2567     H
H       0.1437    0.945   0.7567     H
H       0.1451   0.0862   0.9198     H
H       0.1451   0.9138   0.4198     H
O       0.1464   0.2574   0.6103     O
O       0.1464   0.7426   0.1103     O
C       0.1565   0.4184   0.0998     C
C       0.1565   0.5816   0.5998     C
C       0.1587   0.4301   0.7315     C
C       0.1587   0.5699   0.2315     C
C       0.1594   0.4095   0.4673     C
C       0.1594   0.5905   0.9673     C
C       0.1619   0.4889   0.3485     C
C       0.1619   0.5111   0.8485     C
C       0.1645   0.0523   0.5845     C
C       0.1645   0.9477   0.0845     C
C       0.1792   0.0566   0.8904     C
C       0.1792   0.9434   0.3904     C
C       0.1793   0.0268   0.2887     C
C       0.1793   0.9732   0.7887     C
H       0.1841   0.0158   0.5729     H
H       0.1841   0.9842   0.0729     H
O       0.1974   0.3636   0.4961     O
O       0.1974   0.6364   0.9961     O
C       0.2014   0.1476   0.6043     C
O       0.2014   0.3876   0.7086     O
O       0.2014   0.6124   0.2086     O
C       0.2014   0.8524   0.1043     C
C       0.2157   0.4476   0.4002     C
C       0.2157   0.5524   0.9002     C
C       0.2166   0.4727    0.789     C
C       0.2166   0.5273    0.289     C
C       0.2369   0.0933   0.5966     C
C       0.2369   0.9067   0.0966     C
H       0.2481   0.1762   0.6058     H
H       0.2481   0.8238   0.1058     H
H       0.2519   0.3238   0.1058     H
H       0.2519   0.6762   0.6058     H
C       0.2631   0.4067   0.0966     C
C       0.2631   0.5933   0.5966     C
C       0.2834   0.0273    0.289     C
C       0.2834   0.9727    0.789     C
C       0.2843   0.0524   0.9002     C
C       0.2843   0.9476   0.4002     C
O       0.2986   0.1124   0.2086     O
C       0.2986   0.3524   0.1043     C
C       0.2986   0.6476   0.6043     C
O       0.2986   0.8876   0.7086     O
O       0.3026   0.1364   0.9961     O
O       0.3026   0.8636   0.4961     O
H       0.3159   0.4842   0.0729     H
H       0.3159   0.5158   0.5729     H
C       0.3207   0.4732   0.7887     C
C       0.3207   0.5268   0.2887     C
C       0.3208   0.4434   0.3904     C
C       0.3208   0.5566   0.8904     C
C       0.3355   0.4477   0.0845     C
C       0.3355   0.5523   0.5845     C
C       0.3381   0.0111   0.8485     C
C       0.3381   0.9889   0.3485     C
C       0.3406   0.0905   0.9673     C
C       0.3406   0.9095   0.4673     C
C       0.3413   0.0699   0.2315     C
C       0.3413   0.9301   0.7315     C
C       0.3435   0.0816   0.5998     C
C       0.3435   0.9184   0.0998     C
O       0.3536   0.2426   0.1103     O
O       0.3536   0.7574   0.6103     O
H       0.3549   0.4138   0.4198     H
H       0.3549   0.5862   0.9198     H
H       0.3563    0.445   0.7567     H
H       0.3563    0.555   0.2567     H
O       0.3687   0.0323    0.588     O
O       0.3687   0.9677    0.088     O
C       0.3713   0.4828   0.3377     C
C       0.3713   0.5172   0.8377     C
C       0.3971   0.3385   0.1098     C
C       0.3971   0.6615   0.6098     C
O       0.4008   0.1221    0.615     O
O       0.4008   0.8779    0.115     O
H       0.4073    0.009   0.8533     H
H       0.4073    0.991   0.3533     H
C       0.4268    0.277   0.1215     C
C       0.4268    0.723   0.6215     C
O       0.4289   0.0745   0.0005     O
O       0.4289   0.9255   0.5005     O
O       0.4325   0.0612   0.2118     O
O       0.4325   0.9388   0.7118     O
C       0.4392   0.4344   0.0897     C
C       0.4392   0.5656   0.5897     C
Sm     0.44108  0.15702  0.11653    Sm
Sm     0.44108  0.84298  0.61653    Sm
H       0.4634   0.3723   0.6077     H
H       0.4634   0.6277   0.1077     H
C        0.469   0.3808   0.1031     C
C        0.469   0.6192   0.6031     C
N       0.4759   0.4769   0.3363     N
N       0.4759   0.5231   0.8363     N
N       0.4848   0.4761    0.585     N
N       0.4848   0.5239    0.085     N
O        0.487   0.2612   0.6259     O
O        0.487   0.7388   0.1259     O
Zn         0.5      0.0   0.1179    Zn
Zn         0.5      0.0   0.6179    Zn
O        0.513   0.2612   0.1259     O
O        0.513   0.7388   0.6259     O
N       0.5152   0.4761    0.085     N
N       0.5152   0.5239    0.585     N
N       0.5241   0.4769   0.8363     N
N       0.5241   0.5231   0.3363     N
C        0.531   0.3808   0.6031     C
C        0.531   0.6192   0.1031     C
H       0.5366   0.3723   0.1077     H
H       0.5366   0.6277   0.6077     H
Sm     0.55892  0.15702  0.61653    Sm
Sm     0.55892  0.84298  0.11653    Sm
C       0.5608   0.4344   0.5897     C
C       0.5608   0.5656   0.0897     C
O       0.5675   0.0612   0.7118     O
O       0.5675   0.9388   0.2118     O
O       0.5711   0.0745   0.5005     O
O       0.5711   0.9255   0.0005     O
C       0.5732    0.277   0.6215     C
C       0.5732    0.723   0.1215     C
H       0.5927    0.009   0.3533     H
H       0.5927    0.991   0.8533     H
O       0.5992   0.1221    0.115     O
O       0.5992   0.8779    0.615     O
C       0.6029   0.3385   0.6098     C
C       0.6029   0.6615   0.1098     C
C       0.6287   0.4828   0.8377     C
C       0.6287   0.5172   0.3377     C
O       0.6313   0.0323    0.088     O
O       0.6313   0.9677    0.588     O
H       0.6437    0.445   0.2567     H
H       0.6437    0.555   0.7567     H
H       0.6451   0.4138   0.9198     H
H       0.6451   0.5862   0.4198     H
O       0.6464   0.2426   0.6103     O
O       0.6464   0.7574   0.1103     O
C       0.6565   0.0816   0.0998     C
C       0.6565   0.9184   0.5998     C
C       0.6587   0.0699   0.7315     C
C       0.6587   0.9301   0.2315     C
C       0.6594   0.0905   0.4673     C
C       0.6594   0.9095   0.9673     C
C       0.6619   0.0111   0.3485     C
C       0.6619   0.9889   0.8485     C
C       0.6645   0.4477   0.5845     C
C       0.6645   0.5523   0.0845     C
C       0.6792   0.4434   0.8904     C
C       0.6792   0.5566   0.3904     C
C       0.6793   0.4732   0.2887     C
C       0.6793   0.5268   0.7887     C
H       0.6841   0.4842   0.5729     H
H       0.6841   0.5158   0.0729     H
O       0.6974   0.1364   0.4961     O
O       0.6974   0.8636   0.9961     O
O       0.7014   0.1124   0.7086     O
C       0.7014   0.3524   0.6043     C
C       0.7014   0.6476   0.1043     C
O       0.7014   0.8876   0.2086     O
C       0.7157   0.0524   0.4002     C
C       0.7157   0.9476   0.9002     C
C       0.7166   0.0273    0.789     C
C       0.7166   0.9727    0.289     C
C       0.7369   0.4067   0.5966     C
C       0.7369   0.5933   0.0966     C
H       0.7481   0.3238   0.6058     H
H       0.7481   0.6762   0.1058     H
H       0.7519   0.1762   0.1058     H
H       0.7519   0.8238   0.6058     H
C       0.7631   0.0933   0.0966     C
C       0.7631   0.9067   0.5966     C
C       0.7834   0.4727    0.289     C
C       0.7834   0.5273    0.789     C
C       0.7843   0.4476   0.9002     C
C       0.7843   0.5524   0.4002     C
C       0.7986   0.1476   0.1043     C
O       0.7986   0.3876   0.2086     O
O       0.7986   0.6124   0.7086     O
C       0.7986   0.8524   0.6043     C
O       0.8026   0.3636   0.9961     O
O       0.8026   0.6364   0.4961     O
H       0.8159   0.0158   0.0729     H
H       0.8159   0.9842   0.5729     H
C       0.8207   0.0268   0.7887     C
C       0.8207   0.9732   0.2887     C
C       0.8208   0.0566   0.3904     C
C       0.8208   0.9434   0.8904     C
C       0.8355   0.0523   0.0845     C
C       0.8355   0.9477   0.5845     C
C       0.8381   0.4889   0.8485     C
C       0.8381   0.5111   0.3485     C
C       0.8406   0.4095   0.9673     C
C       0.8406   0.5905   0.4673     C
C       0.8413   0.4301   0.2315     C
C       0.8413   0.5699   0.7315     C
C       0.8435   0.4184   0.5998     C
C       0.8435   0.5816   0.0998     C
O       0.8536   0.2574   0.1103     O
O       0.8536   0.7426   0.6103     O
H       0.8549   0.0862   0.4198     H
H       0.8549   0.9138   0.9198     H
H       0.8563    0.055   0.7567     H
H       0.8563    0.945   0.2567     H
O       0.8687   0.4677    0.588     O
O       0.8687   0.5323    0.088     O
C       0.8713   0.0172   0.3377     C
C       0.8713   0.9828   0.8377     C
C       0.8971   0.1615   0.1098     C
C       0.8971   0.8385   0.6098     C
O       0.9008   0.3779    0.615     O
O       0.9008   0.6221    0.115     O
H       0.9073    0.491   0.8533     H
H       0.9073    0.509   0.3533     H
C       0.9268    0.223   0.1215     C
C       0.9268    0.777   0.6215     C
O       0.9289   0.4255   0.0005     O
O       0.9289   0.5745   0.5005     O
O       0.9325   0.4388   0.2118     O
O       0.9325   0.5612   0.7118     O
C       0.9392   0.0656   0.0897     C
C       0.9392   0.9344   0.5897     C
Sm     0.94108  0.34298  0.11653    Sm
Sm     0.94108  0.65702  0.61653    Sm
H       0.9634   0.1277   0.6077     H
H       0.9634   0.8723   0.1077     H
C        0.969   0.1192   0.1031     C
C        0.969   0.8808   0.6031     C
N       0.9759   0.0231   0.3363     N
N       0.9759   0.9769   0.8363     N
N       0.9848   0.0239    0.585     N
N       0.9848   0.9761    0.085     N
O        0.987   0.2388   0.6259     O
O        0.987   0.7612   0.1259     O
