data_I
_chemical_name_common  '/home/zhangsd/repos/MofS-CGCNN/ML/data/SSD/clean_cifs/EMIGOX_clean'
_cell_length_a 21.27720
_cell_length_b 21.41800
_cell_length_c 36.01000
_cell_angle_alpha 90.00000
_cell_angle_beta  90.00000
_cell_angle_gamma 90.00000
_space_group_name_H-M_alt      'P 1'


loop_
_space_group_symop_operation_xyz
  'x, y, z' 

loop_
_atom_site_label
_atom_site_fract_x
_atom_site_fract_y
_atom_site_fract_z
_atom_site_type_symbol
In     0.00502  0.15434  0.86565    In
S       0.0057   0.9964  0.36958     S
In     0.00585  0.30576  0.79535    In
S       0.0094   0.1537  0.42802     S
In     0.00943  0.18347    0.297    In
In     0.01041  0.34376  0.35899    In
S       0.0142   0.3066  0.48924     S
S       0.0142    0.701   0.5076     S
S       0.0178   0.0002  0.64337     S
S       0.0178   0.8543  0.57454     S
S       0.0431   0.4019  0.30514     S
S       0.0436   0.2401  0.24299     S
H       0.0468   0.9872   0.0129     H
In     0.04725  0.26817  0.95298    In
S       0.0479   0.2397  0.74682     S
In     0.04847  0.42049  0.88354    In
S       0.0499   0.9097  0.10009     S
S       0.0516   0.0904   0.8183     S
H       0.0529   0.4467   0.4672     H
S       0.0533   0.5959  0.22215     S
S       0.0551   0.7519   0.1613     S
H       0.0559   0.0762   0.9763     H
S       0.0585   0.8863  0.73227     S
H       0.0587   0.5279   0.5121     H
S       0.0601   0.7409  0.66194     S
S       0.0628   0.5919  0.59577     S
In     0.07088  0.08353  0.38658    In
In     0.07272  0.83738  0.05048    In
H       0.0728   0.4566   0.2319     H
In      0.0765  0.24481  0.44727    In
H       0.0779   0.0434   0.7377     H
C       0.0784   0.9902   0.9944     C
In     0.07936  0.54804  0.16271    In
C       0.0818   0.0409   0.9716     C
In     0.08748  0.68969  0.10546    In
C        0.089   0.4727   0.4685     C
C       0.0912   0.5218   0.4944     C
S       0.0924   0.3549  0.83181     S
S       0.0927   0.2036  0.90195     S
In     0.09565  0.66689  0.55015    In
In     0.09578  0.93969  0.67682    In
In     0.10281  0.32493   0.2706    In
C       0.1042   0.4384   0.2166     C
S       0.1051   0.1457  0.33149     S
In     0.10597  0.80634  0.61108    In
S       0.1081   0.3057  0.39147     S
In     0.11051  0.16593  0.78272    In
C       0.1182   0.0536   0.7282     C
H       0.1224   0.0748   0.9236     H
C       0.1224   0.9431   0.9896     C
C       0.1239   0.0414   0.9409     C
N        0.127   0.4663   0.1849     N
S       0.1289   0.3171  0.98882     S
N       0.1305   0.3836   0.2236     N
N       0.1305   0.8872   0.0106     N
S       0.1326   0.4691  0.91755     S
H       0.1369   0.4286   0.4281     H
C        0.139   0.4622   0.4453     C
C       0.1414   0.5597   0.4928     C
N        0.146   0.0176   0.7032     N
S       0.1466   0.7537  0.06327     S
N       0.1474    0.103   0.7393     N
S       0.1527   0.6028   0.1232     S
N       0.1564   0.6109   0.5147     N
In     0.15837  0.27003  0.85975    In
S       0.1616   0.0449  0.41951     S
H       0.1628    0.932    0.157     H
H       0.1673   0.8355   0.1899     H
C       0.1673   0.9931   0.9359     C
S       0.1681   0.2067  0.47956     S
C       0.1683    0.945   0.9624     C
C       0.1696   0.4224   0.1694     C
S       0.1696   0.7467   0.5689     S
C       0.1707   0.3736   0.1944     C
In     0.17161  0.23661  0.34962    In
S       0.1724   0.8856  0.63945     S
C       0.1789   0.8584   0.9922     C
In     0.18308  0.37657  0.94148    In
C       0.1921   0.4987    0.446     C
C       0.1938   0.5478   0.4702     C
H       0.1947   0.8188   0.9995     H
H       0.1952   0.9928   0.9153     H
C       0.1983    0.867   0.1932     C
C       0.1986   0.9225   0.1716     C
C       0.2014   0.0487    0.697     C
N       0.2022   0.8901   0.9633     N
S       0.2039   0.2083  0.81088     S
S       0.2041   0.2943  0.29552     S
C       0.2051   0.1024   0.7198     C
H       0.2057   0.4651    0.124     H
C       0.2078   0.4298     0.14     C
C        0.212   0.6301   0.5016     C
C       0.2141   0.3218   0.1859     C
In      0.2171  0.14229  0.43155    In
H       0.2172   0.2858   0.2012     H
H       0.2189   0.6128   0.6164     H
H       0.2253   0.7045   0.6464     H
H       0.2266     0.49     0.43     H
H       0.2311    0.668   0.5094     H
S       0.2361   0.8051  0.87967     S
N       0.2384   0.5925    0.477     N
S       0.2408   0.3169  0.89591     S
H       0.2417   0.8298   0.2372     H
C       0.2453   0.8615   0.2189     C
H       0.2467   0.0007   0.6546     H
C        0.249   0.0352   0.6711     C
C       0.2494   0.3293   0.1546     C
C         0.25    0.382   0.1349     C
C         0.25    0.618   0.6349     C
C       0.2506   0.6707   0.6546     C
C        0.251   0.9648   0.1711     C
H       0.2533   0.9993   0.1546     H
C       0.2547   0.1385   0.7189     C
H       0.2583   0.1702   0.7372     H
S       0.2592   0.6831  0.39591     S
N       0.2616   0.4075    0.977     N
S       0.2639   0.1949  0.37967     S
H       0.2689    0.332   0.0094     H
H       0.2734     0.51     0.93     H
H       0.2747   0.2955   0.1464     H
H       0.2811   0.3872   0.1164     H
H       0.2828   0.7142   0.7012     H
In      0.2829  0.85771  0.93155    In
C       0.2859   0.6782   0.6859     C
C        0.288   0.3699   0.0016     C
C       0.2922   0.5702     0.64     C
H       0.2943   0.5349    0.624     H
C       0.2949   0.8976   0.2198     C
S       0.2959   0.7057  0.79552     S
S       0.2961   0.7917  0.31088     S
N       0.2978   0.1099   0.4633     N
C       0.2986   0.9513    0.197     C
C       0.3014   0.0775   0.6716     C
C       0.3017    0.133   0.6932     C
H       0.3048   0.0072   0.4153     H
H       0.3053   0.1812   0.4995     H
C       0.3062   0.4522   0.9702     C
C       0.3079   0.5013    0.946     C
In     0.31692  0.62343  0.44148    In
C       0.3211   0.1416   0.4922     C
S       0.3276   0.1144  0.13945     S
In     0.32839  0.76339  0.84962    In
C       0.3293   0.6264   0.6944     C
S       0.3304   0.2533   0.0689     S
C       0.3304   0.5776   0.6694     C
C       0.3317    0.055   0.4624     C
S       0.3319   0.7933  0.97956     S
C       0.3327   0.0069   0.4359     C
H       0.3327   0.1645   0.6899     H
H       0.3372    0.068    0.657     H
S       0.3384   0.9551  0.91951     S
In     0.34163  0.72997  0.35975    In
N       0.3436   0.3891   0.0147     N
S       0.3473   0.3972   0.6232     S
N       0.3526    0.897   0.2393     N
S       0.3534   0.2463  0.56327     S
N        0.354   0.9824   0.2032     N
C       0.3586   0.4403   0.9928     C
C        0.361   0.5378   0.9453     C
H       0.3631   0.5714   0.9281     H
S       0.3674   0.5309  0.41755     S
N       0.3695   0.1128   0.5106     N
N       0.3695   0.6164   0.7236     N
S       0.3711   0.6829  0.48882     S
N        0.373   0.5337   0.6849     N
C       0.3761   0.9586   0.4409     C
C       0.3776   0.0569   0.4896     C
H       0.3776   0.9252   0.4236     H
C       0.3818   0.9464   0.2282     C
In     0.38949  0.83407  0.28272    In
S       0.3919   0.6943  0.89147     S
In     0.39403  0.19366  0.11108    In
S       0.3949   0.8543  0.83149     S
C       0.3958   0.5616   0.7166     C
In     0.39719  0.67507   0.7706    In
In     0.40422  0.06031  0.17682    In
In     0.40435  0.33311  0.05015    In
S       0.4073   0.7964  0.40195     S
S       0.4076   0.6451  0.33181     S
C       0.4088   0.4782   0.9944     C
C        0.411   0.5273   0.9685     C
In     0.41252  0.31031  0.60546    In
C       0.4182   0.9591   0.4716     C
In     0.42064  0.45196  0.66271    In
C       0.4216   0.0098   0.4944     C
H       0.4221   0.9566   0.2377     H
In      0.4235  0.75519  0.94727    In
H       0.4272   0.5434   0.7319     H
In     0.42728  0.16262  0.55048    In
In     0.42912  0.91647  0.88658    In
S       0.4372   0.4081  0.09577     S
S       0.4399   0.2591  0.16194     S
H       0.4413   0.4721   0.0121     H
S       0.4415   0.1137  0.23227     S
H       0.4441   0.9238   0.4763     H
S       0.4449   0.2481   0.6613     S
S       0.4467   0.4041  0.72215     S
H       0.4471   0.5533   0.9672     H
S       0.4484   0.9096   0.3183     S
S       0.4501   0.0903  0.60009     S
In     0.45153  0.57951  0.38354    In
S       0.4521   0.7603  0.24682     S
In     0.45275  0.73183  0.45298    In
H       0.4532   0.0128   0.5129     H
S       0.4564   0.7599  0.74299     S
S       0.4569   0.5981  0.80514     S
S       0.4822   0.1457  0.07454     S
S       0.4822   0.9998  0.14337     S
S       0.4858    0.299   0.0076     S
S       0.4858   0.6934  0.98924     S
In     0.48959  0.65624  0.85899    In
In     0.49057  0.81653    0.797    In
S       0.4906   0.8463  0.92802     S
In     0.49415  0.69424  0.29535    In
S       0.4943   0.0036  0.86958     S
In     0.49498  0.84566  0.36565    In
In     0.50502  0.34566  0.13435    In
S       0.5057   0.5036  0.63042     S
In     0.50585  0.19424  0.20465    In
S       0.5094   0.3463  0.57198     S
In     0.50943  0.31653    0.703    In
In     0.51041  0.15624  0.64101    In
S       0.5142   0.1934  0.51076     S
S       0.5142    0.799   0.4924     S
S       0.5178   0.4998  0.35663     S
S       0.5178   0.6457  0.42546     S
S       0.5431   0.0981  0.69486     S
S       0.5436   0.2599  0.75701     S
H       0.5468   0.5128   0.9871     H
In     0.54725  0.23183  0.04702    In
S       0.5479   0.2603  0.25318     S
In     0.54847  0.07951  0.11646    In
S       0.5499   0.5903  0.89991     S
S       0.5516   0.4096   0.1817     S
H       0.5529   0.0533   0.5328     H
S       0.5533   0.9041  0.77785     S
S       0.5551   0.7481   0.8387     S
H       0.5559   0.4238   0.0237     H
S       0.5585   0.6137  0.26773     S
H       0.5587   0.9721   0.4879     H
S       0.5601   0.7591  0.33806     S
S       0.5628   0.9081  0.40423     S
In     0.57088  0.41647  0.61342    In
In     0.57272  0.66262  0.94952    In
H       0.5728   0.0434   0.7681     H
In      0.5765  0.25519  0.55273    In
H       0.5779   0.4566   0.2623     H
C       0.5784   0.5098   0.0056     C
In     0.57936  0.95196  0.83729    In
C       0.5818   0.4591   0.0284     C
In     0.58748  0.81031  0.89454    In
C        0.589   0.0273   0.5315     C
C       0.5912   0.9782   0.5056     C
S       0.5924   0.1451  0.16819     S
S       0.5927   0.2964  0.09805     S
In     0.59565  0.83311  0.44985    In
In     0.59578  0.56031  0.32318    In
In     0.60281  0.17507   0.7294    In
C       0.6042   0.0616   0.7834     C
S       0.6051   0.3543  0.66851     S
In     0.60597  0.69366  0.38892    In
S       0.6081   0.1943  0.60853     S
In     0.61051  0.33407  0.21728    In
C       0.6182   0.4464   0.2718     C
H       0.6224   0.4252   0.0764     H
C       0.6224   0.5569   0.0104     C
C       0.6239   0.4586   0.0591     C
N        0.627   0.0337   0.8151     N
S       0.6289   0.1829  0.01118     S
N       0.6305   0.1164   0.7764     N
N       0.6305   0.6128   0.9894     N
S       0.6326   0.0309  0.08245     S
H       0.6369   0.0714   0.5719     H
C        0.639   0.0378   0.5547     C
C       0.6414   0.9403   0.5072     C
N        0.646   0.4824   0.2968     N
S       0.6466   0.7463  0.93673     S
N       0.6474    0.397   0.2607     N
S       0.6527   0.8972   0.8768     S
N       0.6564   0.8891   0.4853     N
In     0.65837  0.22997  0.14025    In
S       0.6616   0.4551  0.58049     S
H       0.6628    0.568    0.843     H
C       0.6673   0.5069   0.0641     C
H       0.6673   0.6645   0.8101     H
S       0.6681   0.2933  0.52044     S
C       0.6683    0.555   0.0376     C
C       0.6696   0.0776   0.8306     C
S       0.6696   0.7533   0.4311     S
C       0.6707   0.1264   0.8056     C
In     0.67161  0.26339  0.65038    In
S       0.6724   0.6144  0.36055     S
C       0.6789   0.6416   0.0078     C
In     0.68308  0.12343  0.05852    In
C       0.6921   0.0013    0.554     C
C       0.6938   0.9522   0.5298     C
H       0.6947   0.6812   0.0005     H
H       0.6952   0.5072   0.0847     H
C       0.6983    0.633   0.8068     C
C       0.6986   0.5775   0.8284     C
C       0.7014   0.4513    0.303     C
N       0.7022   0.6099   0.0367     N
S       0.7039   0.2917  0.18912     S
S       0.7041   0.2057  0.70448     S
C       0.7051   0.3976   0.2802     C
H       0.7057   0.0349    0.876     H
C       0.7078   0.0702     0.86     C
C        0.712   0.8699   0.4984     C
C       0.7141   0.1782   0.8141     C
In      0.7171  0.35771  0.56845    In
H       0.7172   0.2142   0.7988     H
H       0.7189   0.8872   0.3836     H
H       0.7253   0.7955   0.3536     H
H       0.7266     0.01     0.57     H
H       0.7311    0.832   0.4906     H
S       0.7361   0.6949  0.12033     S
N       0.7384   0.9075    0.523     N
S       0.7408   0.1831  0.10409     S
H       0.7417   0.6702   0.7628     H
C       0.7453   0.6385   0.7811     C
H       0.7467   0.4993   0.3454     H
C        0.749   0.4648   0.3289     C
C       0.7494   0.1707   0.8454     C
C         0.75    0.118   0.8651     C
C         0.75    0.882   0.3651     C
C       0.7506   0.8293   0.3454     C
C        0.751   0.5352   0.8289     C
H       0.7533   0.5007   0.8454     H
C       0.7547   0.3615   0.2811     C
H       0.7583   0.3298   0.2628     H
S       0.7592   0.8169  0.60409     S
N       0.7616   0.0925    0.023     N
S       0.7639   0.3051  0.62033     S
H       0.7689    0.168   0.9906     H
H       0.7734     0.99     0.07     H
H       0.7747   0.2045   0.8536     H
H       0.7811   0.1128   0.8836     H
H       0.7828   0.7858   0.2988     H
In      0.7829  0.64229  0.06845    In
C       0.7859   0.8218   0.3141     C
C        0.788   0.1301   0.9984     C
C       0.7922   0.9298     0.36     C
H       0.7943   0.9651    0.376     H
C       0.7949   0.6024   0.7802     C
S       0.7959   0.7943  0.20448     S
S       0.7961   0.7083  0.68912     S
N       0.7978   0.3901   0.5367     N
C       0.7986   0.5487    0.803     C
C       0.8014   0.4225   0.3284     C
C       0.8017    0.367   0.3068     C
H       0.8048   0.4928   0.5847     H
H       0.8053   0.3188   0.5005     H
C       0.8062   0.0478   0.0298     C
C       0.8079   0.9987    0.054     C
In     0.81692  0.87657  0.55852    In
C       0.8211   0.3584   0.5078     C
S       0.8276   0.3856  0.86055     S
In     0.82839  0.73661  0.15038    In
C       0.8293   0.8736   0.3056     C
S       0.8304   0.2467   0.9311     S
C       0.8304   0.9224   0.3306     C
C       0.8317    0.445   0.5376     C
S       0.8319   0.7067  0.02044     S
H       0.8327   0.3355   0.3101     H
C       0.8327   0.4931   0.5641     C
H       0.8372    0.432    0.343     H
S       0.8384   0.5449  0.08049     S
In     0.84163  0.77003  0.64025    In
N       0.8436   0.1109   0.9853     N
S       0.8473   0.1028   0.3768     S
N       0.8526    0.603   0.7607     N
S       0.8534   0.2537  0.43673     S
N        0.854   0.5176   0.7968     N
C       0.8586   0.0597   0.0072     C
C        0.861   0.9622   0.0547     C
H       0.8631   0.9286   0.0719     H
S       0.8674   0.9691  0.58245     S
N       0.8695   0.3872   0.4894     N
N       0.8695   0.8836   0.2764     N
S       0.8711   0.8171  0.51118     S
N        0.873   0.9663   0.3151     N
C       0.8761   0.5414   0.5591     C
C       0.8776   0.4431   0.5104     C
H       0.8776   0.5748   0.5764     H
C       0.8818   0.5536   0.7718     C
In     0.88949  0.66593  0.71728    In
S       0.8919   0.8057  0.10853     S
In     0.89403  0.30634  0.88892    In
S       0.8949   0.6457  0.16851     S
C       0.8958   0.9384   0.2834     C
In     0.89719  0.82493   0.2294    In
In     0.90422  0.43969  0.82318    In
In     0.90435  0.16689  0.94985    In
S       0.9073   0.7036  0.59805     S
S       0.9076   0.8549  0.66819     S
C       0.9088   0.0218   0.0056     C
C        0.911   0.9727   0.0315     C
In     0.91252  0.18969  0.39454    In
C       0.9182   0.5409   0.5284     C
In     0.92064  0.04804  0.33729    In
C       0.9216   0.4902   0.5056     C
H       0.9221   0.5434   0.7623     H
In      0.9235  0.74481  0.05273    In
H       0.9272   0.9566   0.2681     H
In     0.92728  0.33738  0.44952    In
In     0.92912  0.58353  0.11342    In
S       0.9372   0.0919  0.90423     S
S       0.9399   0.2409  0.83806     S
H       0.9413   0.0279   0.9879     H
S       0.9415   0.3863  0.76773     S
H       0.9441   0.5762   0.5237     H
S       0.9449   0.2519   0.3387     S
S       0.9467   0.0959  0.27785     S
H       0.9471   0.9467   0.0328     H
S       0.9484   0.5904   0.6817     S
S       0.9501   0.4097  0.39991     S
In     0.95153  0.92049  0.61646    In
S       0.9521   0.7397  0.75318     S
In     0.95275  0.76817  0.54702    In
H       0.9532   0.4872   0.4871     H
S       0.9564   0.7401  0.25701     S
S       0.9569   0.9019  0.19486     S
S       0.9822   0.3543  0.92546     S
S       0.9822   0.5002  0.85663     S
S       0.9858    0.201   0.9924     S
S       0.9858   0.8066  0.01076     S
In     0.98959  0.84376  0.14101    In
In     0.99057  0.68347    0.203    In
S       0.9906   0.6537  0.07198     S
In     0.99415  0.80576  0.70465    In
S       0.9943   0.4964  0.13042     S
In     0.99498  0.65434  0.63435    In
