data_I
_chemical_name_common  '/home/zhangsd/repos/MofS-CGCNN/ML/data/SSD/clean_cifs/ENITOL_clean'
_cell_length_a 14.15290
_cell_length_b 23.40600
_cell_length_c 23.83250
_cell_angle_alpha 90.00000
_cell_angle_beta  90.00000
_cell_angle_gamma 90.00000
_space_group_name_H-M_alt      'P 1'


loop_
_space_group_symop_operation_xyz
  'x, y, z' 

loop_
_atom_site_label
_atom_site_fract_x
_atom_site_fract_y
_atom_site_fract_z
_atom_site_type_symbol
Zn         0.0      0.0      0.5    Zn
Zn         0.0      0.5      0.0    Zn
H       0.0027   0.5463   0.7414     H
H       0.0027   0.9537   0.7586     H
H       0.0057   0.5279   0.8374     H
H       0.0057   0.9721   0.6626     H
H       0.0059   0.0763   0.0644     H
H       0.0059   0.4237   0.4356     H
O       0.0087   0.2148    0.533     O
O       0.0087   0.2852    0.967     O
C       0.0107   0.6701   0.4305     C
C       0.0107   0.8299   0.0695     C
C       0.0154   0.6152   0.4083     C
C       0.0154   0.8848   0.0917     C
C       0.0306    0.512  0.75484     C
C       0.0306    0.988  0.74516     C
C       0.0328  0.50115  0.81217     C
C       0.0328  0.99885  0.68783     C
O       0.0472  0.65101  0.92239     O
O       0.0472  0.84899  0.57761     O
O       0.0516  0.59072  0.99303     O
O       0.0516  0.90928  0.50697     O
C       0.0539  0.01994  0.12195     C
C       0.0539  0.48006  0.37805     C
O       0.0572  0.01949  0.57369     O
O       0.0572  0.48051  0.92631     O
Zn     0.06037  0.13842  0.51401    Zn
Zn     0.06037  0.36158  0.98599    Zn
C       0.0617     0.06  0.07972     C
C       0.0617     0.44  0.42028     C
Si      0.0622  0.01417  0.86033    Si
Si      0.0622  0.48583  0.63967    Si
C       0.0672   0.0859   0.8954     C
C       0.0672   0.4141   0.6046     C
H       0.0672   0.6901   0.4393     H
H       0.0672   0.8099   0.0607     H
C       0.0693  0.02715  0.78343     C
C       0.0693  0.47285  0.71657     C
C       0.0725   0.0609   0.6054     C
C       0.0725   0.4391   0.8946     C
C       0.0736  0.04796  0.66717     C
C       0.0736  0.45204  0.83283     C
H       0.0751   0.5977   0.4021     H
H       0.0751   0.9023   0.0979     H
C       0.0766   0.1957   0.9396     C
C       0.0766   0.3043   0.5604     C
C        0.081   0.2435   0.5381     C
C        0.081   0.2565   0.9619     C
O       0.0857    0.111   0.5905     O
O       0.0857    0.389   0.9095     O
C       0.0865  0.61164  0.94726     C
C       0.0865  0.88836  0.55274     C
C       0.1116   0.0764  0.76207     C
C       0.1116   0.4236  0.73793     C
C       0.1128   0.0866  0.70443     C
C       0.1128   0.4134  0.79557     C
O       0.1172  0.02537  0.45109     O
O       0.1172  0.47463  0.04891     O
H       0.1362   0.5284   0.3254     H
H       0.1362   0.9716   0.1746     H
C       0.1387   0.5022  0.35583     C
C       0.1387   0.9978  0.14417     C
H       0.1398   0.1031    0.787     H
H       0.1398   0.3969    0.713     H
H        0.141   0.1206   0.6905     H
H        0.141   0.3794   0.8095     H
H       0.1462   0.5105   0.5311     H
H       0.1462   0.9895   0.9689     H
C       0.1476  0.07684  0.05936     C
C       0.1476  0.42316  0.44064     C
H       0.1508   0.1058   0.0315     H
H       0.1508   0.3942   0.4685     H
C       0.1545   0.1115   0.9045     C
C       0.1545   0.3885   0.5955     C
O       0.1578    0.223    0.524     O
O       0.1578    0.277    0.976     O
C       0.1592   0.1664   0.9266     C
C       0.1592   0.3336   0.5734     C
H       0.1619   0.6129   0.8461     H
H       0.1619   0.8871   0.6539     H
C       0.1634  0.52975  0.61388     C
C       0.1634  0.97025  0.88612     C
O      0.16721  0.11465  0.46807     O
O      0.16721  0.38535  0.03193     O
C        0.177  0.58628  0.92661     C
C        0.177  0.91372  0.57339     C
C       0.1775   0.0649  0.44911     C
C       0.1775   0.4351  0.05089     C
C        0.186  0.52998  0.55689     C
C        0.186  0.97002  0.94311     C
C       0.1995  0.59038  0.87066     C
C       0.1995  0.90962  0.62934     C
H        0.208   0.5625   0.6885     H
H        0.208   0.9375   0.8115     H
H       0.2109   0.0915   0.8956     H
H       0.2109   0.4085   0.6044     H
H       0.2182    0.502   0.1377     H
H       0.2182    0.998   0.3623     H
H       0.2188   0.1839   0.9329     H
H       0.2188   0.3161   0.5671     H
H       0.2205   0.5577   0.0017     H
H       0.2205   0.9423   0.4983     H
C       0.2221   0.5611  0.64952     C
C       0.2221   0.9389  0.85048     C
C       0.2256   0.0137  0.12241     C
C       0.2256   0.4863  0.37759     C
C       0.2311  0.05166  0.07932     C
C       0.2311  0.44834  0.42068     C
C       0.2347  0.55809   0.9627     C
C       0.2347  0.94191   0.5373     C
C       0.2653  0.55809   0.5373     C
C       0.2653  0.94191   0.9627     C
C       0.2689  0.05166  0.42068     C
C       0.2689  0.44834  0.07932     C
C       0.2744   0.0137  0.37759     C
C       0.2744   0.4863  0.12241     C
C       0.2779   0.5611  0.85048     C
C       0.2779   0.9389  0.64952     C
H       0.2795   0.5577   0.4983     H
H       0.2795   0.9423   0.0017     H
H       0.2812   0.1839   0.5671     H
H       0.2812   0.3161   0.9329     H
H       0.2818    0.502   0.3623     H
H       0.2818    0.998   0.1377     H
H       0.2891   0.0915   0.6044     H
H       0.2891   0.4085   0.8956     H
H        0.292   0.5625   0.8115     H
H        0.292   0.9375   0.6885     H
C       0.3005  0.59038  0.62934     C
C       0.3005  0.90962  0.87066     C
C        0.314  0.52998  0.94311     C
C        0.314  0.97002  0.55689     C
C       0.3225   0.0649  0.05089     C
C       0.3225   0.4351  0.44911     C
C        0.323  0.58628  0.57339     C
C        0.323  0.91372  0.92661     C
O      0.33279  0.11465  0.03193     O
O      0.33279  0.38535  0.46807     O
C       0.3366  0.52975  0.88612     C
C       0.3366  0.97025  0.61388     C
H       0.3381   0.6129   0.6539     H
H       0.3381   0.8871   0.8461     H
C       0.3408   0.1664   0.5734     C
C       0.3408   0.3336   0.9266     C
O       0.3422    0.223    0.976     O
O       0.3422    0.277    0.524     O
C       0.3455   0.1115   0.5955     C
C       0.3455   0.3885   0.9045     C
H       0.3492   0.1058   0.4685     H
H       0.3492   0.3942   0.0315     H
C       0.3524  0.07684  0.44064     C
C       0.3524  0.42316  0.05936     C
H       0.3538   0.5105   0.9689     H
H       0.3538   0.9895   0.5311     H
H        0.359   0.1206   0.8095     H
H        0.359   0.3794   0.6905     H
H       0.3602   0.1031    0.713     H
H       0.3602   0.3969    0.787     H
C       0.3613   0.5022  0.14417     C
C       0.3613   0.9978  0.35583     C
H       0.3638   0.5284   0.1746     H
H       0.3638   0.9716   0.3254     H
O       0.3828  0.02537  0.04891     O
O       0.3828  0.47463  0.45109     O
C       0.3872   0.0866  0.79557     C
C       0.3872   0.4134  0.70443     C
C       0.3884   0.0764  0.73793     C
C       0.3884   0.4236  0.76207     C
C       0.4135  0.61164  0.55274     C
C       0.4135  0.88836  0.94726     C
O       0.4143    0.111   0.9095     O
O       0.4143    0.389   0.5905     O
C        0.419   0.2435   0.9619     C
C        0.419   0.2565   0.5381     C
C       0.4234   0.1957   0.5604     C
C       0.4234   0.3043   0.9396     C
H       0.4249   0.5977   0.0979     H
H       0.4249   0.9023   0.4021     H
C       0.4264  0.04796  0.83283     C
C       0.4264  0.45204  0.66717     C
C       0.4275   0.0609   0.8946     C
C       0.4275   0.4391   0.6054     C
C       0.4307  0.02715  0.71657     C
C       0.4307  0.47285  0.78343     C
C       0.4328   0.0859   0.6046     C
C       0.4328   0.4141   0.8954     C
H       0.4328   0.6901   0.0607     H
H       0.4328   0.8099   0.4393     H
Si      0.4378  0.01417  0.63967    Si
Si      0.4378  0.48583  0.86033    Si
C       0.4383     0.06  0.42028     C
C       0.4383     0.44  0.07972     C
Zn     0.43963  0.13842  0.98599    Zn
Zn     0.43963  0.36158  0.51401    Zn
O       0.4428  0.01949  0.92631     O
O       0.4428  0.48051  0.57369     O
C       0.4461  0.01994  0.37805     C
C       0.4461  0.48006  0.12195     C
O       0.4484  0.59072  0.50697     O
O       0.4484  0.90928  0.99303     O
O       0.4528  0.65101  0.57761     O
O       0.4528  0.84899  0.92239     O
C       0.4672  0.50115  0.68783     C
C       0.4672  0.99885  0.81217     C
C       0.4694    0.512  0.74516     C
C       0.4694    0.988  0.75484     C
C       0.4846   0.6152   0.0917     C
C       0.4846   0.8848   0.4083     C
C       0.4893   0.6701   0.0695     C
C       0.4893   0.8299   0.4305     C
O       0.4913   0.2148    0.967     O
O       0.4913   0.2852    0.533     O
H       0.4941   0.0763   0.4356     H
H       0.4941   0.4237   0.0644     H
H       0.4943   0.5279   0.6626     H
H       0.4943   0.9721   0.8374     H
H       0.4973   0.5463   0.7586     H
H       0.4973   0.9537   0.7414     H
Zn         0.5      0.0      0.0    Zn
Zn         0.5      0.5      0.5    Zn
H       0.5027   0.0463   0.2586     H
H       0.5027   0.4537   0.2414     H
H       0.5057   0.0279   0.1626     H
H       0.5057   0.4721   0.3374     H
H       0.5059   0.5763   0.9356     H
H       0.5059   0.9237   0.5644     H
O       0.5087   0.7148    0.467     O
O       0.5087   0.7852    0.033     O
C       0.5107   0.1701   0.5695     C
C       0.5107   0.3299   0.9305     C
C       0.5154   0.1152   0.5917     C
C       0.5154   0.3848   0.9083     C
C       0.5306    0.012  0.24516     C
C       0.5306    0.488  0.25484     C
C       0.5328  0.00115  0.18783     C
C       0.5328  0.49885  0.31217     C
O       0.5472  0.15101  0.07761     O
O       0.5472  0.34899  0.42239     O
O       0.5516  0.09072  0.00697     O
O       0.5516  0.40928  0.49303     O
C       0.5539  0.51994  0.87805     C
C       0.5539  0.98006  0.62195     C
O       0.5572  0.51949  0.42631     O
O       0.5572  0.98051  0.07369     O
Zn     0.56037  0.63842  0.48599    Zn
Zn     0.56037  0.86158  0.01401    Zn
C       0.5617     0.56  0.92028     C
C       0.5617     0.94  0.57972     C
Si      0.5622  0.51417  0.13967    Si
Si      0.5622  0.98583  0.36033    Si
H       0.5672   0.1901   0.5607     H
H       0.5672   0.3099   0.9393     H
C       0.5672   0.5859   0.1046     C
C       0.5672   0.9141   0.3954     C
C       0.5693  0.52715  0.21657     C
C       0.5693  0.97285  0.28343     C
C       0.5725   0.5609   0.3946     C
C       0.5725   0.9391   0.1054     C
C       0.5736  0.54796  0.33283     C
C       0.5736  0.95204  0.16717     C
H       0.5751   0.0977   0.5979     H
H       0.5751   0.4023   0.9021     H
C       0.5766   0.6957   0.0604     C
C       0.5766   0.8043   0.4396     C
C        0.581   0.7435   0.4619     C
C        0.581   0.7565   0.0381     C
O       0.5857    0.611   0.4095     O
O       0.5857    0.889   0.0905     O
C       0.5865  0.11164  0.05274     C
C       0.5865  0.38836  0.44726     C
C       0.6116   0.5764  0.23793     C
C       0.6116   0.9236  0.26207     C
C       0.6128   0.5866  0.29557     C
C       0.6128   0.9134  0.20443     C
O       0.6172  0.52537  0.54891     O
O       0.6172  0.97463  0.95109     O
H       0.6362   0.0284   0.6746     H
H       0.6362   0.4716   0.8254     H
C       0.6387   0.0022  0.64417     C
C       0.6387   0.4978  0.85583     C
H       0.6398   0.6031    0.213     H
H       0.6398   0.8969    0.287     H
H        0.641   0.6206   0.3095     H
H        0.641   0.8794   0.1905     H
H       0.6462   0.0105   0.4689     H
H       0.6462   0.4895   0.0311     H
C       0.6476  0.57684  0.94064     C
C       0.6476  0.92316  0.55936     C
H       0.6508   0.6058   0.9685     H
H       0.6508   0.8942   0.5315     H
C       0.6545   0.6115   0.0955     C
C       0.6545   0.8885   0.4045     C
O       0.6578    0.723    0.476     O
O       0.6578    0.777    0.024     O
C       0.6592   0.6664   0.0734     C
C       0.6592   0.8336   0.4266     C
H       0.6619   0.1129   0.1539     H
H       0.6619   0.3871   0.3461     H
C       0.6634  0.02975  0.38612     C
C       0.6634  0.47025  0.11388     C
O      0.66721  0.61465  0.53193     O
O      0.66721  0.88535  0.96807     O
C        0.677  0.08628  0.07339     C
C        0.677  0.41372  0.42661     C
C       0.6775   0.5649  0.55089     C
C       0.6775   0.9351  0.94911     C
C        0.686  0.02998  0.44311     C
C        0.686  0.47002  0.05689     C
C       0.6995  0.09038  0.12934     C
C       0.6995  0.40962  0.37066     C
H        0.708   0.0625   0.3115     H
H        0.708   0.4375   0.1885     H
H       0.7109   0.5915   0.1044     H
H       0.7109   0.9085   0.3956     H
H       0.7182    0.002   0.8623     H
H       0.7182    0.498   0.6377     H
H       0.7188   0.6839   0.0671     H
H       0.7188   0.8161   0.4329     H
H       0.7205   0.0577   0.9983     H
H       0.7205   0.4423   0.5017     H
C       0.7221   0.0611  0.35048     C
C       0.7221   0.4389  0.14952     C
C       0.7256   0.5137  0.87759     C
C       0.7256   0.9863  0.62241     C
C       0.7311  0.55166  0.92068     C
C       0.7311  0.94834  0.57932     C
C       0.7347  0.05809   0.0373     C
C       0.7347  0.44191   0.4627     C
C       0.7653  0.05809   0.4627     C
C       0.7653  0.44191   0.0373     C
C       0.7689  0.55166  0.57932     C
C       0.7689  0.94834  0.92068     C
C       0.7744   0.5137  0.62241     C
C       0.7744   0.9863  0.87759     C
C       0.7779   0.0611  0.14952     C
C       0.7779   0.4389  0.35048     C
H       0.7795   0.0577   0.5017     H
H       0.7795   0.4423   0.9983     H
H       0.7812   0.6839   0.4329     H
H       0.7812   0.8161   0.0671     H
H       0.7818    0.002   0.6377     H
H       0.7818    0.498   0.8623     H
H       0.7891   0.5915   0.3956     H
H       0.7891   0.9085   0.1044     H
H        0.792   0.0625   0.1885     H
H        0.792   0.4375   0.3115     H
C       0.8005  0.09038  0.37066     C
C       0.8005  0.40962  0.12934     C
C        0.814  0.02998  0.05689     C
C        0.814  0.47002  0.44311     C
C       0.8225   0.5649  0.94911     C
C       0.8225   0.9351  0.55089     C
C        0.823  0.08628  0.42661     C
C        0.823  0.41372  0.07339     C
O      0.83279  0.61465  0.96807     O
O      0.83279  0.88535  0.53193     O
C       0.8366  0.02975  0.11388     C
C       0.8366  0.47025  0.38612     C
H       0.8381   0.1129   0.3461     H
H       0.8381   0.3871   0.1539     H
C       0.8408   0.6664   0.4266     C
C       0.8408   0.8336   0.0734     C
O       0.8422    0.723    0.024     O
O       0.8422    0.777    0.476     O
C       0.8455   0.6115   0.4045     C
C       0.8455   0.8885   0.0955     C
H       0.8492   0.6058   0.5315     H
H       0.8492   0.8942   0.9685     H
C       0.8524  0.57684  0.55936     C
C       0.8524  0.92316  0.94064     C
H       0.8538   0.0105   0.0311     H
H       0.8538   0.4895   0.4689     H
H        0.859   0.6206   0.1905     H
H        0.859   0.8794   0.3095     H
H       0.8602   0.6031    0.287     H
H       0.8602   0.8969    0.213     H
C       0.8613   0.0022  0.85583     C
C       0.8613   0.4978  0.64417     C
H       0.8638   0.0284   0.8254     H
H       0.8638   0.4716   0.6746     H
O       0.8828  0.52537  0.95109     O
O       0.8828  0.97463  0.54891     O
C       0.8872   0.5866  0.20443     C
C       0.8872   0.9134  0.29557     C
C       0.8884   0.5764  0.26207     C
C       0.8884   0.9236  0.23793     C
C       0.9135  0.11164  0.44726     C
C       0.9135  0.38836  0.05274     C
O       0.9143    0.611   0.0905     O
O       0.9143    0.889   0.4095     O
C        0.919   0.7435   0.0381     C
C        0.919   0.7565   0.4619     C
C       0.9234   0.6957   0.4396     C
C       0.9234   0.8043   0.0604     C
H       0.9249   0.0977   0.9021     H
H       0.9249   0.4023   0.5979     H
C       0.9264  0.54796  0.16717     C
C       0.9264  0.95204  0.33283     C
C       0.9275   0.5609   0.1054     C
C       0.9275   0.9391   0.3946     C
C       0.9307  0.52715  0.28343     C
C       0.9307  0.97285  0.21657     C
H       0.9328   0.1901   0.9393     H
H       0.9328   0.3099   0.5607     H
C       0.9328   0.5859   0.3954     C
C       0.9328   0.9141   0.1046     C
Si      0.9378  0.51417  0.36033    Si
Si      0.9378  0.98583  0.13967    Si
C       0.9383     0.56  0.57972     C
C       0.9383     0.94  0.92028     C
Zn     0.93963  0.63842  0.01401    Zn
Zn     0.93963  0.86158  0.48599    Zn
O       0.9428  0.51949  0.07369     O
O       0.9428  0.98051  0.42631     O
C       0.9461  0.51994  0.62195     C
C       0.9461  0.98006  0.87805     C
O       0.9484  0.09072  0.49303     O
O       0.9484  0.40928  0.00697     O
O       0.9528  0.15101  0.42239     O
O       0.9528  0.34899  0.07761     O
C       0.9672  0.00115  0.31217     C
C       0.9672  0.49885  0.18783     C
C       0.9694    0.012  0.25484     C
C       0.9694    0.488  0.24516     C
C       0.9846   0.1152   0.9083     C
C       0.9846   0.3848   0.5917     C
C       0.9893   0.1701   0.9305     C
C       0.9893   0.3299   0.5695     C
O       0.9913   0.7148    0.033     O
O       0.9913   0.7852    0.467     O
H       0.9941   0.5763   0.5644     H
H       0.9941   0.9237   0.9356     H
H       0.9943   0.0279   0.3374     H
H       0.9943   0.4721   0.1626     H
H       0.9973   0.0463   0.2414     H
H       0.9973   0.4537   0.2586     H
