data_I
_chemical_name_common  '/home/zhangsd/repos/MofS-CGCNN/ML/data/SSD/clean_cifs/EPOXAJ_clean'
_cell_length_a  8.04950
_cell_length_b 11.88520
_cell_length_c 11.92090
_cell_angle_alpha 79.88100
_cell_angle_beta  86.23100
_cell_angle_gamma 81.91200
_space_group_name_H-M_alt      'P 1'


loop_
_space_group_symop_operation_xyz
  'x, y, z' 

loop_
_atom_site_label
_atom_site_fract_x
_atom_site_fract_y
_atom_site_fract_z
_atom_site_type_symbol
O       0.0269   0.5398   0.8934     O
U      0.04212  0.56392  0.70208     U
O       0.1324   0.4252   0.4534     O
O        0.214    0.188   0.8488     O
U      0.22304  0.49493  0.02365     U
O       0.2292   0.5606   0.5304     O
C        0.237   0.4966   0.4567     C
O       0.2425   0.4337   0.2236     O
O       0.2637   0.3477   0.9946     O
U       0.3168   0.0625   0.7186     U
O       0.3192   0.5718   0.7578     O
H        0.333   0.2725  0.39978     H
H      0.36121  0.58285  0.32165     H
C        0.375   0.5065   0.3655     C
C       0.3894   0.4181   0.2854     C
U       0.3918   0.1515   0.0096     U
O        0.406    0.993    0.908     O
C        0.426   0.2905   0.3478     C
C        0.463   0.2004   0.2709     C
C       0.4631   0.5555   0.7945     C
O        0.476   0.0981   0.3169     O
O       0.4798   0.2339   0.1648     O
H      0.48007  0.50259  0.40012     H
H      0.48367  0.71651  0.60203     H
O       0.4875   0.5203   0.8996     O
O       0.5125   0.4797   0.1004     O
H      0.51633  0.28349  0.39797     H
H      0.51993  0.49741  0.59988     H
O       0.5202   0.7661   0.8352     O
O        0.524   0.9019   0.6831     O
C       0.5369   0.4445   0.2055     C
C        0.537   0.7996   0.7291     C
C        0.574   0.7095   0.6522     C
O        0.594    0.007    0.092     O
U       0.6082   0.8485   0.9904     U
C       0.6106   0.5819   0.7146     C
C        0.625   0.4935   0.6345     C
H      0.63879  0.41715  0.67835     H
H        0.667   0.7275  0.60022     H
O       0.6808   0.4282   0.2422     O
U       0.6832   0.9375   0.2814     U
O       0.7363   0.6523   0.0054     O
O       0.7575   0.5663   0.7764     O
C        0.763   0.5034   0.5433     C
O       0.7708   0.4394   0.4696     O
U      0.77696  0.50507  0.97635     U
O        0.786    0.812   0.1512     O
O       0.8676   0.5748   0.5466     O
U      0.95788  0.43608  0.29792     U
O       0.9731   0.4602   0.1066     O
