data_I
_chemical_name_common  '/home/zhangsd/repos/MofS-CGCNN/ML/data/SSD/clean_cifs/EREFEN01_SL'
_cell_length_a 13.17410
_cell_length_b 13.21900
_cell_length_c 14.02880
_cell_angle_alpha 82.98900
_cell_angle_beta  82.36900
_cell_angle_gamma 84.05400
_space_group_name_H-M_alt      'P 1'


loop_
_space_group_symop_operation_xyz
  'x, y, z' 

loop_
_atom_site_label
_atom_site_fract_x
_atom_site_fract_y
_atom_site_fract_z
_atom_site_type_symbol
C       0.0029   0.8235   0.1886     C
C       0.0059   0.4623   0.7705     C
H      0.00766  0.58594  0.28789     H
C       0.0096   0.1787   0.6505     C
H       0.0264   0.1737   0.8701     H
C       0.0362   0.5856    0.907     C
H      0.04192  0.64183  0.96113     H
H       0.0499   0.1801    0.589     H
C       0.0576   0.1803   0.7292     C
C       0.0586   0.4122   0.1383     C
C       0.0758   0.4651    0.204     C
C       0.0926   0.4477   0.8083     C
C       0.0977   0.8248   0.3453     C
C       0.1092   0.8235   0.1852     C
H       0.1092   0.8354   0.4776     H
C       0.1155   0.5092   0.8769     C
N       0.1443   0.3487   0.0927     N
C       0.1473   0.8318   0.4155     C
H        0.149    0.822   0.1236     H
H      0.15189  0.45086  0.23588     H
H      0.15261  0.38364  0.78608     H
C       0.1593   0.8255   0.2608     C
C        0.172   0.1819   0.7209     C
H      0.19356  0.49661  0.90519     H
N       0.2054   0.3066    0.138     N
O         0.21   0.1769   0.7992     O
O        0.221    0.188    0.639     O
H       0.2387   0.2723   0.9567     H
C       0.2598   0.8347   0.4079     C
C       0.2692   0.8296   0.2552     C
C       0.2861   0.2438   0.0888     C
H        0.289   0.8386   0.4656     H
C       0.2907   0.2354   0.9912     C
H       0.3081   0.8302   0.1931     H
C       0.3194   0.8325   0.3304     C
H        0.338   0.6592   0.8671     H
H       0.3399   0.4959   0.8053     H
H       0.3417   0.3426   0.2541     H
H       0.3444   0.8436    0.856     H
C       0.3476   0.6938   0.8036     C
H       0.3508   0.3313   0.4185     H
C       0.3509   0.2777   0.2907     C
C       0.3523   0.5347    0.744     C
C       0.3523   0.8121   0.7978     C
C       0.3543   0.6408   0.7398     C
C       0.3561   0.2698   0.3888     C
O        0.357   0.3238   0.7534     O
C       0.3595   0.1872   0.2464     C
C       0.3604   0.1882   0.1406     C
Zn     0.36397  0.17197  0.79901    Zn
N       0.3642   0.1786    0.943     N
C       0.3655    0.864   0.7218     C
C       0.3667    0.372   0.6703     C
C       0.3676    0.485   0.6625     C
N       0.3681   0.1812   0.4445     N
O       0.3682   0.0182   0.7875     O
C       0.3695   0.9773   0.7105     C
Zn     0.37384  0.17761  0.58883    Zn
C       0.3739   0.7005   0.6513     C
O       0.3745   0.0241   0.6279     O
O       0.3745   0.3306   0.5934     O
C        0.375   0.0964   0.3033     C
C       0.3763   0.8099    0.646     C
C       0.3772   0.0955   0.4018     C
H       0.3842   0.0338    0.275     H
H       0.3856   0.0316   0.4403     H
H       0.3863   0.8466   0.5834     H
C       0.3873   0.5429   0.5783     C
C       0.3911   0.6484    0.575     C
H       0.3989   0.5118   0.5198     H
H       0.4072   0.6857   0.5134     H
C       0.4328   0.8349   0.3203     C
C       0.4383   0.1314   0.0892     C
C       0.4388   0.1292   0.9912     C
O       0.4728   0.8354   0.3973     O
O       0.4818   0.8378   0.2373     O
H       0.4917   0.0939   0.1215     H
H       0.4939   0.0912   0.9568     H
H       0.5061   0.9088   0.0432     H
H       0.5083   0.9061   0.8785     H
O       0.5182   0.1622   0.7627     O
O       0.5272   0.1646   0.6027     O
C       0.5612   0.8708   0.0088     C
C       0.5617   0.8686   0.9108     C
C       0.5672   0.1651   0.6797     C
H       0.5928   0.3143   0.4866     H
H       0.6011   0.4882   0.4802     H
C       0.6089   0.3516    0.425     C
C       0.6127   0.4571   0.4217     C
H       0.6137   0.1534   0.4166     H
H       0.6144   0.9684   0.5597     H
H       0.6158   0.9662    0.725     H
C       0.6228   0.9045   0.5982     C
C       0.6237   0.1901    0.354     C
C        0.625   0.9036   0.6967     C
O       0.6255   0.6694   0.4066     O
O       0.6255   0.9759   0.3721     O
C       0.6261   0.2995   0.3487     C
Zn     0.62616  0.82239  0.41117    Zn
C       0.6305   0.0227   0.2895     C
O       0.6318   0.9818   0.2125     O
N       0.6319   0.8188   0.5555     N
C       0.6324    0.515   0.3375     C
C       0.6333    0.628   0.3297     C
C       0.6345    0.136   0.2782     C
N       0.6358   0.8214    0.057     N
Zn     0.63603  0.82803  0.20099    Zn
C       0.6396   0.8118   0.8594     C
C       0.6405   0.8128   0.7536     C
O        0.643   0.6762   0.2466     O
C       0.6439   0.7302   0.6112     C
C       0.6457   0.3592   0.2602     C
C       0.6477   0.1879   0.2022     C
C       0.6477   0.4653    0.256     C
C       0.6491   0.7223   0.7093     C
H       0.6492   0.6687   0.5815     H
C       0.6524   0.3062   0.1964     C
H       0.6556   0.1564    0.144     H
H       0.6583   0.6574   0.7459     H
H       0.6601   0.5041   0.1947     H
H        0.662   0.3408   0.1329     H
C       0.6806   0.1675   0.6696     C
H       0.6919   0.1698   0.8069     H
C       0.7093   0.7646   0.0088     C
H        0.711   0.1614   0.5344     H
C       0.7139   0.7562   0.9112     C
C       0.7308   0.1704   0.7448     C
C       0.7402   0.1653   0.5921     C
H       0.7613   0.7277   0.0433     H
O        0.779    0.812    0.361     O
O         0.79   0.8231   0.2008     O
N       0.7946   0.6934    0.862     N
H      0.80644  0.50339  0.09481     H
C        0.828   0.8181   0.2791     C
C       0.8407   0.1745   0.7392     C
H      0.84739  0.61636  0.21392     H
H      0.84811  0.54914  0.76412     H
H        0.851    0.178   0.8764     H
C       0.8527   0.1682   0.5845     C
N       0.8557   0.6513   0.9073     N
C       0.8845   0.4908   0.1231     C
H       0.8908   0.1646   0.5224     H
C       0.8908   0.1765   0.8148     C
C       0.9023   0.1752   0.6547     C
C       0.9074   0.5523   0.1917     C
C       0.9242   0.5349    0.796     C
C       0.9414   0.5878   0.8617     C
C       0.9424   0.8197   0.2708     C
H       0.9501   0.8199    0.411     H
H      0.95808  0.35817  0.03887     H
C       0.9638   0.4144    0.093     C
H       0.9736   0.8263   0.1299     H
C       0.9904   0.8213   0.3495     C
H      0.99234  0.41406  0.71211     H
C       0.9941   0.5377   0.2295     C
C       0.9971   0.1765   0.8114     C
