data_I
_chemical_name_common  '/home/zhangsd/repos/MofS-CGCNN/ML/data/SSD/clean_cifs/ERIWAF_clean'
_cell_length_a 18.56530
_cell_length_b 18.56530
_cell_length_c 23.96360
_cell_angle_alpha 90.00000
_cell_angle_beta  90.00000
_cell_angle_gamma 120.00000
_space_group_name_H-M_alt      'P 1'


loop_
_space_group_symop_operation_xyz
  'x, y, z' 

loop_
_atom_site_label
_atom_site_fract_x
_atom_site_fract_y
_atom_site_fract_z
_atom_site_type_symbol
H       0.0111    0.154     0.75     H
H       0.0111   0.8571     0.75     H
O      0.02937  0.44018   0.5712     O
O      0.02937  0.44018   0.9288     O
O      0.02937  0.58919   0.5712     O
O      0.02937  0.58919   0.9288     O
Cu     0.04754  0.52377  0.04531    Cu
Cu     0.04754  0.52377  0.45469    Cu
C       0.0574   0.2073     0.75     C
C       0.0574   0.8501     0.75     C
H       0.0755   0.3676   0.6365     H
H       0.0755   0.3676   0.8635     H
H       0.0755   0.7079   0.6365     H
H       0.0755   0.7079   0.8635     H
N       0.0848   0.2389   0.7007     N
N       0.0848   0.2389   0.7993     N
N       0.0848   0.8459   0.7007     N
N       0.0848   0.8459   0.7993     N
C       0.0905     0.45  0.54287     C
C       0.0905     0.45  0.95713     C
C       0.0905   0.6405  0.54287     C
C       0.0905   0.6405  0.95713     C
O      0.11035  0.48134  0.00549     O
O      0.11035  0.48134  0.49451     O
O      0.11035  0.62901  0.00549     O
O      0.11035  0.62901  0.49451     O
C       0.1258   0.3814   0.6195     C
C       0.1258   0.3814   0.8805     C
C       0.1258   0.7444   0.6195     C
C       0.1258   0.7444   0.8805     C
H       0.1429    0.154     0.75     H
H       0.1429   0.9889     0.75     H
C       0.1461   0.4225  0.56923     C
C       0.1461   0.4225  0.93077     C
C       0.1461   0.7236  0.56923     C
C       0.1461   0.7236  0.93077     C
C       0.1499   0.2073     0.75     C
C       0.1499   0.9426     0.75     C
H        0.154   0.0111     0.25     H
H        0.154   0.1429     0.25     H
N       0.1541   0.2389   0.7007     N
N       0.1541   0.2389   0.7993     N
N       0.1541   0.9152   0.7007     N
N       0.1541   0.9152   0.7993     N
C      0.15835   0.3167   0.7005     C
C      0.15835   0.3167   0.7995     C
C      0.15835  0.84165   0.7005     C
C      0.15835  0.84165   0.7995     C
N       0.1782   0.4359     0.75     N
N       0.1782   0.7423     0.75     N
H       0.1785   0.4603   0.7181     H
H       0.1785   0.4603   0.7819     H
H       0.1785   0.7182   0.7181     H
H       0.1785   0.7182   0.7819     H
C       0.1788   0.3576     0.75     C
C       0.1788   0.8212     0.75     C
C      0.18015   0.3603   0.6452     C
C      0.18015   0.3603   0.8548     C
C      0.18015  0.81985   0.6452     C
C      0.18015  0.81985   0.8548     C
C       0.2073   0.0574     0.25     C
C       0.2073   0.1499     0.25     C
C      0.22145   0.4429   0.5435     C
C      0.22145   0.4429   0.9565     C
C      0.22145  0.77855   0.5435     C
C      0.22145  0.77855   0.9565     C
H      0.23505   0.4701   0.5092     H
H      0.23505   0.4701   0.9908     H
H      0.23505  0.76495   0.5092     H
H      0.23505  0.76495   0.9908     H
N       0.2389   0.0848   0.2007     N
N       0.2389   0.0848   0.2993     N
N       0.2389   0.1541   0.2007     N
N       0.2389   0.1541   0.2993     N
C       0.2556   0.3814   0.6195     C
C       0.2556   0.3814   0.8805     C
C       0.2556   0.8742   0.6195     C
C       0.2556   0.8742   0.8805     C
N       0.2577   0.4359     0.75     N
N       0.2577   0.8218     0.75     N
C       0.2764   0.4225  0.56923     C
C       0.2764   0.4225  0.93077     C
C       0.2764   0.8539  0.56923     C
C       0.2764   0.8539  0.93077     C
H       0.2818   0.4603   0.7181     H
H       0.2818   0.4603   0.7819     H
H       0.2818   0.8215   0.7181     H
H       0.2818   0.8215   0.7819     H
H       0.2921   0.3676   0.6365     H
H       0.2921   0.3676   0.8635     H
H       0.2921   0.9245   0.6365     H
H       0.2921   0.9245   0.8635     H
C       0.3167  0.15835   0.2005     C
C       0.3167  0.15835   0.2995     C
C       0.3576   0.1788     0.25     C
C       0.3595     0.45  0.54287     C
C       0.3595     0.45  0.95713     C
C       0.3595   0.9095  0.54287     C
C       0.3595   0.9095  0.95713     C
C       0.3603  0.18015   0.1452     C
C       0.3603  0.18015   0.3548     C
H       0.3676   0.0755   0.1365     H
H       0.3676   0.0755   0.3635     H
H       0.3676   0.2921   0.1365     H
H       0.3676   0.2921   0.3635     H
O      0.37099  0.48134  0.00549     O
O      0.37099  0.48134  0.49451     O
O      0.37099  0.88965  0.00549     O
O      0.37099  0.88965  0.49451     O
C       0.3814   0.1258   0.1195     C
C       0.3814   0.1258   0.3805     C
C       0.3814   0.2556   0.1195     C
C       0.3814   0.2556   0.3805     C
O      0.41081  0.44018   0.5712     O
O      0.41081  0.44018   0.9288     O
O      0.41081  0.97063   0.5712     O
O      0.41081  0.97063   0.9288     O
C       0.4225   0.1461  0.06923     C
C       0.4225   0.1461  0.43077     C
C       0.4225   0.2764  0.06923     C
C       0.4225   0.2764  0.43077     C
N       0.4359   0.1782     0.25     N
N       0.4359   0.2577     0.25     N
O      0.44018  0.02937   0.0712     O
O      0.44018  0.02937   0.4288     O
O      0.44018  0.41081   0.0712     O
O      0.44018  0.41081   0.4288     O
C       0.4429  0.22145   0.0435     C
C       0.4429  0.22145   0.4565     C
C         0.45   0.0905  0.04287     C
C         0.45   0.0905  0.45713     C
C         0.45   0.3595  0.04287     C
C         0.45   0.3595  0.45713     C
H       0.4603   0.1785   0.2181     H
H       0.4603   0.1785   0.2819     H
H       0.4603   0.2818   0.2181     H
H       0.4603   0.2818   0.2819     H
H       0.4701  0.23505   0.0092     H
H       0.4701  0.23505   0.4908     H
Cu     0.47623  0.52377  0.04531    Cu
Cu     0.47623  0.52377  0.45469    Cu
Cu     0.47623  0.95246  0.04531    Cu
Cu     0.47623  0.95246  0.45469    Cu
O      0.48134  0.11035  0.50549     O
O      0.48134  0.11035  0.99451     O
O      0.48134  0.37099  0.50549     O
O      0.48134  0.37099  0.99451     O
O      0.51866  0.62901  0.00549     O
O      0.51866  0.62901  0.49451     O
O      0.51866  0.88965  0.00549     O
O      0.51866  0.88965  0.49451     O
Cu     0.52377  0.04754  0.54531    Cu
Cu     0.52377  0.04754  0.95469    Cu
Cu     0.52377  0.47623  0.54531    Cu
Cu     0.52377  0.47623  0.95469    Cu
H       0.5299  0.76495   0.5092     H
H       0.5299  0.76495   0.9908     H
H       0.5397   0.7182   0.7181     H
H       0.5397   0.7182   0.7819     H
H       0.5397   0.8215   0.7181     H
H       0.5397   0.8215   0.7819     H
C         0.55   0.6405  0.54287     C
C         0.55   0.6405  0.95713     C
C         0.55   0.9095  0.54287     C
C         0.55   0.9095  0.95713     C
C       0.5571  0.77855   0.5435     C
C       0.5571  0.77855   0.9565     C
O      0.55982  0.58919   0.5712     O
O      0.55982  0.58919   0.9288     O
O      0.55982  0.97063   0.5712     O
O      0.55982  0.97063   0.9288     O
N       0.5641   0.7423     0.75     N
N       0.5641   0.8218     0.75     N
C       0.5775   0.7236  0.56923     C
C       0.5775   0.7236  0.93077     C
C       0.5775   0.8539  0.56923     C
C       0.5775   0.8539  0.93077     C
O      0.58919  0.02937   0.0712     O
O      0.58919  0.02937   0.4288     O
O      0.58919  0.55982   0.0712     O
O      0.58919  0.55982   0.4288     O
C       0.6186   0.7444   0.6195     C
C       0.6186   0.7444   0.8805     C
C       0.6186   0.8742   0.6195     C
C       0.6186   0.8742   0.8805     C
O      0.62901  0.11035  0.50549     O
O      0.62901  0.11035  0.99451     O
O      0.62901  0.51866  0.50549     O
O      0.62901  0.51866  0.99451     O
H       0.6324   0.7079   0.6365     H
H       0.6324   0.7079   0.8635     H
H       0.6324   0.9245   0.6365     H
H       0.6324   0.9245   0.8635     H
C       0.6397  0.81985   0.6452     C
C       0.6397  0.81985   0.8548     C
C       0.6405   0.0905  0.04287     C
C       0.6405   0.0905  0.45713     C
C       0.6405     0.55  0.04287     C
C       0.6405     0.55  0.45713     C
C       0.6424   0.8212     0.75     C
C       0.6833  0.84165   0.7005     C
C       0.6833  0.84165   0.7995     C
H       0.7079   0.0755   0.1365     H
H       0.7079   0.0755   0.3635     H
H       0.7079   0.6324   0.1365     H
H       0.7079   0.6324   0.3635     H
H       0.7182   0.1785   0.2181     H
H       0.7182   0.1785   0.2819     H
H       0.7182   0.5397   0.2181     H
H       0.7182   0.5397   0.2819     H
C       0.7236   0.1461  0.06923     C
C       0.7236   0.1461  0.43077     C
C       0.7236   0.5775  0.06923     C
C       0.7236   0.5775  0.43077     C
N       0.7423   0.1782     0.25     N
N       0.7423   0.5641     0.25     N
C       0.7444   0.1258   0.1195     C
C       0.7444   0.1258   0.3805     C
C       0.7444   0.6186   0.1195     C
C       0.7444   0.6186   0.3805     C
N       0.7611   0.8459   0.7007     N
N       0.7611   0.8459   0.7993     N
N       0.7611   0.9152   0.7007     N
N       0.7611   0.9152   0.7993     N
H      0.76495  0.23505   0.0092     H
H      0.76495  0.23505   0.4908     H
H      0.76495   0.5299   0.0092     H
H      0.76495   0.5299   0.4908     H
C      0.77855  0.22145   0.0435     C
C      0.77855  0.22145   0.4565     C
C      0.77855   0.5571   0.0435     C
C      0.77855   0.5571   0.4565     C
C       0.7927   0.8501     0.75     C
C       0.7927   0.9426     0.75     C
C      0.81985  0.18015   0.1452     C
C      0.81985  0.18015   0.3548     C
C      0.81985   0.6397   0.1452     C
C      0.81985   0.6397   0.3548     C
C       0.8212   0.1788     0.25     C
C       0.8212   0.6424     0.25     C
H       0.8215   0.2818   0.2181     H
H       0.8215   0.2818   0.2819     H
H       0.8215   0.5397   0.2181     H
H       0.8215   0.5397   0.2819     H
N       0.8218   0.2577     0.25     N
N       0.8218   0.5641     0.25     N
C      0.84165  0.15835   0.2005     C
C      0.84165  0.15835   0.2995     C
C      0.84165   0.6833   0.2005     C
C      0.84165   0.6833   0.2995     C
N       0.8459   0.0848   0.2007     N
N       0.8459   0.0848   0.2993     N
N       0.8459   0.7611   0.2007     N
N       0.8459   0.7611   0.2993     N
H        0.846   0.8571     0.75     H
H        0.846   0.9889     0.75     H
C       0.8501   0.0574     0.25     C
C       0.8501   0.7927     0.25     C
C       0.8539   0.2764  0.06923     C
C       0.8539   0.2764  0.43077     C
C       0.8539   0.5775  0.06923     C
C       0.8539   0.5775  0.43077     C
H       0.8571   0.0111     0.25     H
H       0.8571    0.846     0.25     H
C       0.8742   0.2556   0.1195     C
C       0.8742   0.2556   0.3805     C
C       0.8742   0.6186   0.1195     C
C       0.8742   0.6186   0.3805     C
O      0.88965  0.37099  0.50549     O
O      0.88965  0.37099  0.99451     O
O      0.88965  0.51866  0.50549     O
O      0.88965  0.51866  0.99451     O
C       0.9095   0.3595  0.04287     C
C       0.9095   0.3595  0.45713     C
C       0.9095     0.55  0.04287     C
C       0.9095     0.55  0.45713     C
N       0.9152   0.1541   0.2007     N
N       0.9152   0.1541   0.2993     N
N       0.9152   0.7611   0.2007     N
N       0.9152   0.7611   0.2993     N
H       0.9245   0.2921   0.1365     H
H       0.9245   0.2921   0.3635     H
H       0.9245   0.6324   0.1365     H
H       0.9245   0.6324   0.3635     H
C       0.9426   0.1499     0.25     C
C       0.9426   0.7927     0.25     C
Cu     0.95246  0.47623  0.54531    Cu
Cu     0.95246  0.47623  0.95469    Cu
O      0.97063  0.41081   0.0712     O
O      0.97063  0.41081   0.4288     O
O      0.97063  0.55982   0.0712     O
O      0.97063  0.55982   0.4288     O
H       0.9889   0.1429     0.25     H
H       0.9889    0.846     0.25     H
