data_I
_chemical_name_common  '/home/zhangsd/repos/MofS-CGCNN/ML/data/SSD/clean_cifs/ETIXIQ_clean'
_cell_length_a 44.26000
_cell_length_b 15.01600
_cell_length_c 14.97400
_cell_angle_alpha 90.00000
_cell_angle_beta  94.01200
_cell_angle_gamma 90.00000
_space_group_name_H-M_alt      'P 1'


loop_
_space_group_symop_operation_xyz
  'x, y, z' 

loop_
_atom_site_label
_atom_site_fract_x
_atom_site_fract_y
_atom_site_fract_z
_atom_site_type_symbol
H       0.0016    0.406   0.4764     H
H       0.0016    0.594   0.9764     H
C      0.00674   0.2937   0.8421     C
C      0.00674   0.7063   0.3421     C
C      0.00704   0.3767   0.5314     C
C      0.00704   0.6233   0.0314     C
C      0.01474   0.3348   0.9211     C
C      0.01474   0.6652   0.4211     C
C      0.01492   0.1529   0.7674     C
C      0.01492   0.8471   0.2674     C
C      0.01496   0.0033   0.2674     C
C      0.01496   0.9967   0.7674     C
C      0.02319   0.2933   0.6924     C
C      0.02319   0.7067   0.1924     C
H       0.0252    0.058   0.2793     H
H       0.0252    0.942   0.7793     H
C       0.0278   0.2461   0.7817     C
C       0.0278   0.7539   0.2817     C
C      0.02958    0.076   0.7846     C
C      0.02958    0.924   0.2846     C
H       0.0353    0.335   0.9439     H
H       0.0353    0.665   0.4439     H
C      0.03653   0.3747   0.5654     C
C      0.03653   0.6253   0.0654     C
C      0.04485   0.3326   0.6451     C
C      0.04485   0.6674   0.1451     C
H         0.05   0.0764   0.8086     H
H         0.05   0.9236   0.3086     H
H       0.0516    0.403   0.5333     H
H       0.0516    0.597   0.0333     H
C      0.05888   0.2459   0.8195     C
C      0.05888   0.7541   0.3195     C
H       0.0655    0.331    0.667     H
H       0.0655    0.669    0.167     H
C      0.08344    0.246   0.8522     C
C      0.08344    0.754   0.3522     C
H       0.1081   0.1814   0.0042     H
H       0.1081   0.8186   0.5042     H
C      0.11386   0.2509   0.8901     C
C      0.11386   0.7491   0.3901     C
C      0.12253   0.2117   0.9713     C
C      0.12253   0.7883   0.4713     C
H       0.1301   0.3216   0.7886     H
H       0.1301   0.6784   0.2886     H
C      0.13534   0.2943   0.8448     C
C      0.13534   0.7057   0.3448     C
C      0.15209    0.217   0.0037     C
C      0.15209    0.783   0.5037     C
H        0.158   0.1897   0.0594     H
H        0.158   0.8103   0.5594     H
H       0.1613   0.3179   0.3237     H
H       0.1613   0.6821   0.8237     H
H       0.1614   0.1033   0.5343     H
H       0.1614   0.8967   0.0343     H
C      0.16424   0.2976   0.8817     C
C      0.16424   0.7024   0.3817     C
H       0.1645   0.4243   0.4355     H
H       0.1645   0.5757   0.9355     H
H       0.1649   0.2148   0.6412     H
H       0.1649   0.7852   0.1412     H
N      0.17294   0.2591     0.96     N
N      0.17294   0.7409     0.46     N
C      0.17706   0.1015    0.581     C
C      0.17706   0.8985    0.081     C
C       0.1779    0.358   0.3281     C
C       0.1779    0.642   0.8281     C
H        0.179   0.3287   0.8505     H
H        0.179   0.6713   0.3505     H
C      0.17912   0.1673   0.6444     C
C      0.17912   0.8327   0.1444     C
C      0.17971   0.4214   0.3938     C
C      0.17971   0.5786   0.8938     C
H       0.1962   0.0133   0.0409     H
H       0.1962   0.9867   0.5409     H
C      0.19768   0.0326   0.5847     C
C      0.19768   0.9674   0.0847     C
H        0.199   0.3071   0.2236     H
H        0.199   0.6929   0.7236     H
C      0.20007   0.3521   0.2682     C
C      0.20007   0.6479   0.7682     C
C      0.20148   0.1652   0.7121     C
C      0.20148   0.8348   0.2121     C
H       0.2027   0.2111    0.756     H
H       0.2027   0.7889    0.256     H
C      0.20347   0.4814      0.4     C
C      0.20347   0.5186      0.9     C
H       0.2046   0.4747   0.9457     H
H       0.2046   0.5253   0.4457     H
Zn     0.21687  0.25056  0.99564    Zn
Zn     0.21687  0.74944  0.49564    Zn
O      0.21934  0.14441   0.0767     O
O      0.21934  0.85559   0.5767     O
C      0.22031   0.0306   0.6521     C
C      0.22031   0.9694   0.1521     C
C      0.22204    0.097   0.7168     C
C      0.22204    0.903   0.2168     C
C      0.22367   0.4116   0.2733     C
C      0.22367   0.5884   0.7733     C
O      0.22433  0.33005  0.10173     O
O      0.22433  0.66995  0.60173     O
C      0.22532    0.477   0.3397     C
C      0.22532    0.523   0.8397     C
O       0.2259  0.16932  0.89309     O
O       0.2259  0.83068  0.39309     O
O       0.2309  0.35124  0.91842     O
O       0.2309  0.64876  0.41842     O
H       0.2443   0.2046   0.2357     H
H       0.2443   0.7954   0.7357     H
H       0.2446   0.2444   0.3858     H
H       0.2446   0.7556   0.8858     H
C      0.24484   0.1152      0.1     C
C      0.24484   0.8848      0.6     C
C      0.24517   0.1598   0.2806     C
C      0.24517   0.8402   0.7806     C
C       0.2452   0.1833   0.3692     C
C       0.2452   0.8167   0.8692     C
H       0.2458   0.1344   0.4949     H
H       0.2458   0.8656   0.9949     H
C       0.2461   0.1184   0.4336     C
C       0.2461   0.8816   0.9336     C
C      0.24645   0.0717   0.2569     C
C      0.24645   0.9283   0.7569     C
C      0.24653   0.0354    0.162     C
C      0.24653   0.9646    0.662     C
C      0.24739   0.0302   0.4096     C
C      0.24739   0.9698   0.9096     C
C      0.24754   0.0069   0.3208     C
C      0.24754   0.9931   0.8208     C
H       0.2482   0.0146   0.9544     H
H       0.2482   0.9854   0.4544     H
C       0.2493   0.0872   0.7841     C
C       0.2493   0.9128   0.2841     C
C      0.24957   0.3508   0.1358     C
C      0.24957   0.6492   0.6358     C
C      0.25043   0.1492   0.8642     C
C      0.25043   0.8508   0.3642     C
C       0.2507   0.4128   0.2159     C
C       0.2507   0.5872   0.7159     C
H       0.2518   0.4854   0.0456     H
H       0.2518   0.5146   0.5456     H
C      0.25246   0.4931   0.6792     C
C      0.25246   0.5069   0.1792     C
C      0.25261   0.4698   0.5904     C
C      0.25261   0.5302   0.0904     C
C      0.25347   0.4646    0.838     C
C      0.25347   0.5354    0.338     C
C      0.25355   0.4283   0.7431     C
C      0.25355   0.5717   0.2431     C
C       0.2539   0.3816   0.5664     C
C       0.2539   0.6184   0.0664     C
H       0.2542   0.3656   0.5051     H
H       0.2542   0.6344   0.0051     H
C       0.2548   0.3167   0.6308     C
C       0.2548   0.6833   0.1308     C
C      0.25483   0.3402   0.7194     C
C      0.25483   0.6598   0.2194     C
C      0.25516   0.3848      0.9     C
C      0.25516   0.6152      0.4     C
H       0.2554   0.2556   0.6142     H
H       0.2554   0.7444   0.1142     H
H       0.2557   0.2954   0.7643     H
H       0.2557   0.7046   0.2643     H
O       0.2691  0.14876  0.08158     O
O       0.2691  0.85124  0.58158     O
O       0.2741  0.33068  0.10691     O
O       0.2741  0.66932  0.60691     O
C      0.27468    0.023   0.6603     C
C      0.27468    0.977   0.1603     C
O      0.27567  0.16995  0.89827     O
O      0.27567  0.83005  0.39827     O
C      0.27633   0.0884   0.7267     C
C      0.27633   0.9116   0.2267     C
C      0.27796    0.403   0.2832     C
C      0.27796    0.597   0.7832     C
C      0.27969   0.4694   0.3479     C
C      0.27969   0.5306   0.8479     C
O      0.28066  0.35559   0.9233     O
O      0.28066  0.64441   0.4233     O
Zn     0.28313  0.24944  0.00436    Zn
Zn     0.28313  0.75056  0.50436    Zn
H       0.2954   0.0253   0.0543     H
H       0.2954   0.9747   0.5543     H
C      0.29653   0.0186      0.6     C
C      0.29653   0.9814      0.1     C
H       0.2973   0.2889    0.244     H
H       0.2973   0.7111    0.744     H
C      0.29852   0.3348   0.2879     C
C      0.29852   0.6652   0.7879     C
C      0.29993   0.1479   0.7318     C
C      0.29993   0.8521   0.2318     C
H        0.301   0.1929   0.7764     H
H        0.301   0.8071   0.2764     H
C      0.30232   0.4674   0.4153     C
C      0.30232   0.5326   0.9153     C
H       0.3038   0.4867   0.9591     H
H       0.3038   0.5133   0.4591     H
C      0.32029   0.0786   0.6062     C
C      0.32029   0.9214   0.1062     C
C      0.32088   0.3327   0.3556     C
C      0.32088   0.6673   0.8556     C
H        0.321   0.1713   0.1495     H
H        0.321   0.8287   0.6495     H
C       0.3221    0.142   0.6719     C
C       0.3221    0.858   0.1719     C
C      0.32294   0.3985    0.419     C
C      0.32294   0.6015    0.919     C
N      0.32706   0.2409     0.04     N
N      0.32706   0.7591     0.54     N
H       0.3351   0.2852   0.3588     H
H       0.3351   0.7148   0.8588     H
H       0.3355   0.0757   0.5645     H
H       0.3355   0.9243   0.0645     H
C      0.33576   0.2024   0.1183     C
C      0.33576   0.7976   0.6183     C
H       0.3386   0.3967   0.4657     H
H       0.3386   0.6033   0.9657     H
H       0.3387   0.1821   0.6763     H
H       0.3387   0.8179   0.1763     H
H        0.342   0.3103   0.9406     H
H        0.342   0.6897   0.4406     H
C      0.34791    0.283   0.9963     C
C      0.34791    0.717   0.4963     C
C      0.36466   0.2057   0.1552     C
C      0.36466   0.7943   0.6552     C
H       0.3699   0.1784   0.2114     H
H       0.3699   0.8216   0.7114     H
C      0.37747   0.2883   0.0287     C
C      0.37747   0.7117   0.5287     C
C      0.38614   0.2491   0.1099     C
C      0.38614   0.7509   0.6099     C
H       0.3919   0.3186   0.9958     H
H       0.3919   0.6814   0.4958     H
C      0.41656    0.254   0.1478     C
C      0.41656    0.746   0.6478     C
H       0.4345    0.169    0.333     H
H       0.4345    0.831    0.833     H
C      0.44112   0.2541   0.1805     C
C      0.44112   0.7459   0.6805     C
H       0.4484    0.097   0.4667     H
H       0.4484    0.903   0.9667     H
H         0.45   0.4236   0.1914     H
H         0.45   0.5764   0.6914     H
C      0.45515   0.1674   0.3549     C
C      0.45515   0.8326   0.8549     C
C      0.46347   0.1253   0.4346     C
C      0.46347   0.8747   0.9346     C
H       0.4647    0.165   0.0561     H
H       0.4647    0.835   0.5561     H
C      0.47042    0.424   0.2154     C
C      0.47042    0.576   0.7154     C
C       0.4722   0.2539   0.2183     C
C       0.4722   0.7461   0.7183     C
H       0.4748    0.442   0.7207     H
H       0.4748    0.558   0.2207     H
C      0.47681   0.2067   0.3076     C
C      0.47681   0.7933   0.8076     C
C      0.48504   0.4967   0.7326     C
C      0.48504   0.5033   0.2326     C
C      0.48508   0.3471   0.2326     C
C      0.48508   0.6529   0.7326     C
C      0.48526   0.1652   0.0789     C
C      0.48526   0.8348   0.5789     C
C      0.49296   0.1233   0.4686     C
C      0.49296   0.8767   0.9686     C
C      0.49326   0.2063   0.1579     C
C      0.49326   0.7937   0.6579     C
H       0.4984    0.094   0.5236     H
H       0.4984    0.906   0.0236     H
H       0.5016    0.094   0.9764     H
H       0.5016    0.906   0.4764     H
C      0.50674   0.2063   0.3421     C
C      0.50674   0.7937   0.8421     C
C      0.50704   0.1233   0.0314     C
C      0.50704   0.8767   0.5314     C
C      0.51474   0.1652   0.4211     C
C      0.51474   0.8348   0.9211     C
C      0.51492   0.3471   0.2674     C
C      0.51492   0.6529   0.7674     C
C      0.51496   0.4967   0.7674     C
C      0.51496   0.5033   0.2674     C
C      0.52319   0.2067   0.1924     C
C      0.52319   0.7933   0.6924     C
H       0.5252    0.442   0.7793     H
H       0.5252    0.558   0.2793     H
C       0.5278   0.2539   0.2817     C
C       0.5278   0.7461   0.7817     C
C      0.52958    0.424   0.2846     C
C      0.52958    0.576   0.7846     C
H       0.5353    0.165   0.4439     H
H       0.5353    0.835   0.9439     H
C      0.53653   0.1253   0.0654     C
C      0.53653   0.8747   0.5654     C
C      0.54485   0.1674   0.1451     C
C      0.54485   0.8326   0.6451     C
H         0.55   0.4236   0.3086     H
H         0.55   0.5764   0.8086     H
H       0.5516    0.097   0.0333     H
H       0.5516    0.903   0.5333     H
C      0.55888   0.2541   0.3195     C
C      0.55888   0.7459   0.8195     C
H       0.5655    0.169    0.167     H
H       0.5655    0.831    0.667     H
C      0.58344    0.254   0.3522     C
C      0.58344    0.746   0.8522     C
H       0.6081   0.3186   0.5042     H
H       0.6081   0.6814   0.0042     H
C      0.61386   0.2491   0.3901     C
C      0.61386   0.7509   0.8901     C
C      0.62253   0.2883   0.4713     C
C      0.62253   0.7117   0.9713     C
H       0.6301   0.1784   0.2886     H
H       0.6301   0.8216   0.7886     H
C      0.63534   0.2057   0.3448     C
C      0.63534   0.7943   0.8448     C
C      0.65209    0.283   0.5037     C
C      0.65209    0.717   0.0037     C
H        0.658   0.3103   0.5594     H
H        0.658   0.6897   0.0594     H
H       0.6613   0.1821   0.8237     H
H       0.6613   0.8179   0.3237     H
H       0.6614   0.3967   0.0343     H
H       0.6614   0.6033   0.5343     H
C      0.66424   0.2024   0.3817     C
C      0.66424   0.7976   0.8817     C
H       0.6645   0.0757   0.9355     H
H       0.6645   0.9243   0.4355     H
H       0.6649   0.2852   0.1412     H
H       0.6649   0.7148   0.6412     H
N      0.67294   0.2409     0.46     N
N      0.67294   0.7591     0.96     N
C      0.67706   0.3985    0.081     C
C      0.67706   0.6015    0.581     C
C       0.6779    0.142   0.8281     C
C       0.6779    0.858   0.3281     C
H        0.679   0.1713   0.3505     H
H        0.679   0.8287   0.8505     H
C      0.67912   0.3327   0.1444     C
C      0.67912   0.6673   0.6444     C
C      0.67971   0.0786   0.8938     C
C      0.67971   0.9214   0.3938     C
H       0.6962   0.4867   0.5409     H
H       0.6962   0.5133   0.0409     H
C      0.69768   0.4674   0.0847     C
C      0.69768   0.5326   0.5847     C
H        0.699   0.1929   0.7236     H
H        0.699   0.8071   0.2236     H
C      0.70007   0.1479   0.7682     C
C      0.70007   0.8521   0.2682     C
C      0.70148   0.3348   0.2121     C
C      0.70148   0.6652   0.7121     C
H       0.7027   0.2889    0.256     H
H       0.7027   0.7111    0.756     H
C      0.70347   0.0186      0.9     C
C      0.70347   0.9814      0.4     C
H       0.7046   0.0253   0.4457     H
H       0.7046   0.9747   0.9457     H
Zn     0.71687  0.24944  0.49564    Zn
Zn     0.71687  0.75056  0.99564    Zn
O      0.71934  0.35559   0.5767     O
O      0.71934  0.64441   0.0767     O
C      0.72031   0.4694   0.1521     C
C      0.72031   0.5306   0.6521     C
C      0.72204    0.403   0.2168     C
C      0.72204    0.597   0.7168     C
C      0.72367   0.0884   0.7733     C
C      0.72367   0.9116   0.2733     C
O      0.72433  0.16995  0.60173     O
O      0.72433  0.83005  0.10173     O
C      0.72532    0.023   0.8397     C
C      0.72532    0.977   0.3397     C
O       0.7259  0.33068  0.39309     O
O       0.7259  0.66932  0.89309     O
O       0.7309  0.14876  0.41842     O
O       0.7309  0.85124  0.91842     O
H       0.7443   0.2954   0.7357     H
H       0.7443   0.7046   0.2357     H
H       0.7446   0.2556   0.8858     H
H       0.7446   0.7444   0.3858     H
C      0.74484   0.3848      0.6     C
C      0.74484   0.6152      0.1     C
C      0.74517   0.3402   0.7806     C
C      0.74517   0.6598   0.2806     C
C       0.7452   0.3167   0.8692     C
C       0.7452   0.6833   0.3692     C
H       0.7458   0.3656   0.9949     H
H       0.7458   0.6344   0.4949     H
C       0.7461   0.3816   0.9336     C
C       0.7461   0.6184   0.4336     C
C      0.74645   0.4283   0.7569     C
C      0.74645   0.5717   0.2569     C
C      0.74653   0.4646    0.662     C
C      0.74653   0.5354    0.162     C
C      0.74739   0.4698   0.9096     C
C      0.74739   0.5302   0.4096     C
C      0.74754   0.4931   0.8208     C
C      0.74754   0.5069   0.3208     C
H       0.7482   0.4854   0.4544     H
H       0.7482   0.5146   0.9544     H
C       0.7493   0.4128   0.2841     C
C       0.7493   0.5872   0.7841     C
C      0.74957   0.1492   0.6358     C
C      0.74957   0.8508   0.1358     C
C      0.75043   0.3508   0.3642     C
C      0.75043   0.6492   0.8642     C
C       0.7507   0.0872   0.7159     C
C       0.7507   0.9128   0.2159     C
H       0.7518   0.0146   0.5456     H
H       0.7518   0.9854   0.0456     H
C      0.75246   0.0069   0.1792     C
C      0.75246   0.9931   0.6792     C
C      0.75261   0.0302   0.0904     C
C      0.75261   0.9698   0.5904     C
C      0.75347   0.0354    0.338     C
C      0.75347   0.9646    0.838     C
C      0.75355   0.0717   0.2431     C
C      0.75355   0.9283   0.7431     C
C       0.7539   0.1184   0.0664     C
C       0.7539   0.8816   0.5664     C
H       0.7542   0.1344   0.0051     H
H       0.7542   0.8656   0.5051     H
C       0.7548   0.1833   0.1308     C
C       0.7548   0.8167   0.6308     C
C      0.75483   0.1598   0.2194     C
C      0.75483   0.8402   0.7194     C
C      0.75516   0.1152      0.4     C
C      0.75516   0.8848      0.9     C
H       0.7554   0.2444   0.1142     H
H       0.7554   0.7556   0.6142     H
H       0.7557   0.2046   0.2643     H
H       0.7557   0.7954   0.7643     H
O       0.7691  0.35124  0.58158     O
O       0.7691  0.64876  0.08158     O
O       0.7741  0.16932  0.60691     O
O       0.7741  0.83068  0.10691     O
C      0.77468    0.477   0.1603     C
C      0.77468    0.523   0.6603     C
O      0.77567  0.33005  0.39827     O
O      0.77567  0.66995  0.89827     O
C      0.77633   0.4116   0.2267     C
C      0.77633   0.5884   0.7267     C
C      0.77796    0.097   0.7832     C
C      0.77796    0.903   0.2832     C
C      0.77969   0.0306   0.8479     C
C      0.77969   0.9694   0.3479     C
O      0.78066  0.14441   0.4233     O
O      0.78066  0.85559   0.9233     O
Zn     0.78313  0.25056  0.50436    Zn
Zn     0.78313  0.74944  0.00436    Zn
H       0.7954   0.4747   0.5543     H
H       0.7954   0.5253   0.0543     H
C      0.79653   0.4814      0.1     C
C      0.79653   0.5186      0.6     C
H       0.7973   0.2111    0.744     H
H       0.7973   0.7889    0.244     H
C      0.79852   0.1652   0.7879     C
C      0.79852   0.8348   0.2879     C
C      0.79993   0.3521   0.2318     C
C      0.79993   0.6479   0.7318     C
H        0.801   0.3071   0.2764     H
H        0.801   0.6929   0.7764     H
C      0.80232   0.0326   0.9153     C
C      0.80232   0.9674   0.4153     C
H       0.8038   0.0133   0.4591     H
H       0.8038   0.9867   0.9591     H
C      0.82029   0.4214   0.1062     C
C      0.82029   0.5786   0.6062     C
C      0.82088   0.1673   0.8556     C
C      0.82088   0.8327   0.3556     C
H        0.821   0.3287   0.6495     H
H        0.821   0.6713   0.1495     H
C       0.8221    0.358   0.1719     C
C       0.8221    0.642   0.6719     C
C      0.82294   0.1015    0.919     C
C      0.82294   0.8985    0.419     C
N      0.82706   0.2591     0.54     N
N      0.82706   0.7409     0.04     N
H       0.8351   0.2148   0.8588     H
H       0.8351   0.7852   0.3588     H
H       0.8355   0.4243   0.0645     H
H       0.8355   0.5757   0.5645     H
C      0.83576   0.2976   0.6183     C
C      0.83576   0.7024   0.1183     C
H       0.8386   0.1033   0.9657     H
H       0.8386   0.8967   0.4657     H
H       0.8387   0.3179   0.1763     H
H       0.8387   0.6821   0.6763     H
H        0.842   0.1897   0.4406     H
H        0.842   0.8103   0.9406     H
C      0.84791    0.217   0.4963     C
C      0.84791    0.783   0.9963     C
C      0.86466   0.2943   0.6552     C
C      0.86466   0.7057   0.1552     C
H       0.8699   0.3216   0.7114     H
H       0.8699   0.6784   0.2114     H
C      0.87747   0.2117   0.5287     C
C      0.87747   0.7883   0.0287     C
C      0.88614   0.2509   0.6099     C
C      0.88614   0.7491   0.1099     C
H       0.8919   0.1814   0.4958     H
H       0.8919   0.8186   0.9958     H
C      0.91656    0.246   0.6478     C
C      0.91656    0.754   0.1478     C
H       0.9345    0.331    0.833     H
H       0.9345    0.669    0.333     H
C      0.94112   0.2459   0.6805     C
C      0.94112   0.7541   0.1805     C
H       0.9484    0.403   0.9667     H
H       0.9484    0.597   0.4667     H
H         0.95   0.0764   0.6914     H
H         0.95   0.9236   0.1914     H
C      0.95515   0.3326   0.8549     C
C      0.95515   0.6674   0.3549     C
C      0.96347   0.3747   0.9346     C
C      0.96347   0.6253   0.4346     C
H       0.9647    0.335   0.5561     H
H       0.9647    0.665   0.0561     H
C      0.97042    0.076   0.7154     C
C      0.97042    0.924   0.2154     C
C       0.9722   0.2461   0.7183     C
C       0.9722   0.7539   0.2183     C
H       0.9748    0.058   0.2207     H
H       0.9748    0.942   0.7207     H
C      0.97681   0.2933   0.8076     C
C      0.97681   0.7067   0.3076     C
C      0.98504   0.0033   0.2326     C
C      0.98504   0.9967   0.7326     C
C      0.98508   0.1529   0.7326     C
C      0.98508   0.8471   0.2326     C
C      0.98526   0.3348   0.5789     C
C      0.98526   0.6652   0.0789     C
C      0.99296   0.3767   0.9686     C
C      0.99296   0.6233   0.4686     C
C      0.99326   0.2937   0.6579     C
C      0.99326   0.7063   0.1579     C
H       0.9984    0.406   0.0236     H
H       0.9984    0.594   0.5236     H
