data_I
_chemical_name_common  '/home/zhangsd/repos/MofS-CGCNN/ML/data/SSD/clean_cifs/EVUQOC_clean'
_cell_length_a 10.13400
_cell_length_b 10.35520
_cell_length_c 10.74360
_cell_angle_alpha 78.16250
_cell_angle_beta  89.43000
_cell_angle_gamma 65.23900
_space_group_name_H-M_alt      'P 1'


loop_
_space_group_symop_operation_xyz
  'x, y, z' 

loop_
_atom_site_label
_atom_site_fract_x
_atom_site_fract_y
_atom_site_fract_z
_atom_site_type_symbol
O       0.0152   0.6641   0.2408     O
La     0.03339   0.2063  0.00051    La
O       0.1084   0.9466   0.9115     O
H       0.1093   0.5025   0.4584     H
C       0.1187    0.696   0.2605     C
H       0.1442   0.3647   0.6808     H
O        0.148   0.5472   0.0091     O
O       0.1585   0.7691   0.1717     O
C       0.1758   0.5387   0.4804     C
C        0.199   0.6431   0.3903     C
O       0.2032   0.3181    0.994     O
H       0.2322   0.7344    0.793     H
C       0.2347   0.4148   0.0228     C
C       0.2348   0.9427   0.8959     C
N       0.2369   0.3748   0.6922     N
C       0.2484   0.4863   0.6023     C
H         0.25   0.3856    0.781     H
O       0.2583   0.0538   0.8925     O
C       0.2955   0.6972   0.4216     C
H       0.3121   0.7679   0.3602     H
C       0.3288   0.7096   0.8248     C
H       0.3431   0.5541   0.1401     H
C       0.3433   0.5442   0.6316     C
C       0.3584   0.8037   0.8841     C
C       0.3679   0.6477   0.5431     C
C       0.3896   0.3677   0.0764     C
O       0.4155    0.485   0.7534     O
C       0.4183   0.4621   0.1354     C
H       0.4338   0.6846   0.5652     H
C        0.441   0.5808   0.8129     C
H       0.4783   0.1692   0.0304     H
C       0.4995   0.2344   0.0682     C
C       0.5005   0.7656   0.9318     C
H       0.5217   0.8308   0.9696     H
C        0.559   0.4192   0.1871     C
H       0.5662   0.3154   0.4348     H
C       0.5817   0.5379   0.8646     C
O       0.5845    0.515   0.2466     O
C       0.6104   0.6323   0.9236     C
C       0.6321   0.3523   0.4569     C
C       0.6416   0.1963   0.1159     C
C       0.6567   0.4558   0.3684     C
H       0.6569   0.4459   0.8599     H
C       0.6712   0.2904   0.1752     C
H       0.6879   0.2321   0.6398     H
C       0.7045   0.3028   0.5784     C
O       0.7417   0.9462   0.1075     O
H         0.75   0.6144    0.219     H
C       0.7516   0.5137   0.3977     C
N       0.7631   0.6252   0.3078     N
C       0.7652   0.0573   0.1041     C
C       0.7653   0.5852   0.9772     C
H       0.7678   0.2656    0.207     H
O       0.7968   0.6819    0.006     O
C        0.801   0.3569   0.6097     C
C       0.8242   0.4613   0.5196     C
O       0.8415   0.2309   0.8283     O
O        0.852   0.4528   0.9909     O
H       0.8558   0.6353   0.3192     H
C       0.8813    0.304   0.7395     C
H       0.8907   0.4975   0.5416     H
O       0.8916   0.0534   0.0885     O
La     0.96661   0.7937  0.99949    La
O       0.9848   0.3359   0.7592     O
