data_I
_chemical_name_common  '/home/zhangsd/repos/MofS-CGCNN/ML/data/SSD/clean_cifs/EVURAP_clean'
_cell_length_a  9.60470
_cell_length_b 10.04270
_cell_length_c 11.45890
_cell_angle_alpha 96.12600
_cell_angle_beta  97.20650
_cell_angle_gamma 111.85900
_space_group_name_H-M_alt      'P 1'


loop_
_space_group_symop_operation_xyz
  'x, y, z' 

loop_
_atom_site_label
_atom_site_fract_x
_atom_site_fract_y
_atom_site_fract_z
_atom_site_type_symbol
C       0.0063   0.1695   0.4517     C
C        0.009   0.6737   0.3826     C
C       0.0137   0.4371    0.146     C
H       0.0502   0.1072   0.4183     H
C       0.0502   0.5789    0.198     C
O       0.0506   0.3922   0.7346     O
O       0.0539   0.8406   0.9839     O
C       0.0593   0.2381   0.5693     C
H       0.0777   0.6384   0.8446     H
C       0.0782    0.253   0.0226     C
C       0.1104   0.8092   0.6182     C
C       0.1131   0.4068   0.0795     C
O       0.1182   0.9824   0.7823     O
C       0.1257   0.6515    0.452     C
H       0.1678   0.1527   0.6815     H
C       0.1704   0.8905   0.7427     C
H        0.171   0.5904   0.4186     H
C       0.1754   0.7189   0.5699     C
C       0.1777   0.6918   0.1809     C
N       0.1821   0.2251   0.6403     N
O        0.183   0.2265   0.9831     O
H        0.196   0.7896   0.2119     H
C       0.2475    0.517    0.068     C
H       0.2542   0.7032   0.6178     H
H       0.2621   0.3038   0.6846     H
O       0.2756   0.8703   0.8079     O
C       0.2795   0.6603   0.1174     C
Ce     0.28676  0.04508  0.99178    Ce
H       0.3177   0.4949   0.0263     H
O       0.4192   0.8997   0.0777     O
C        0.422   0.7789   0.1012     C
O       0.4563   0.2427   0.8901     O
O       0.5437   0.7573   0.1099     O
C        0.578   0.2211   0.8988     C
O       0.5808   0.1003   0.9223     O
H       0.6823   0.5051   0.9737     H
Ce     0.71324  0.95492  0.00822    Ce
C       0.7205   0.3397   0.8826     C
O       0.7244   0.1297   0.1921     O
H       0.7379   0.6962   0.3154     H
H       0.7458   0.2968   0.3822     H
C       0.7525    0.483    0.932     C
H        0.804   0.2104   0.7881     H
O        0.817   0.7735   0.0169     O
N       0.8179   0.7749   0.3597     N
C       0.8223   0.3082   0.8191     C
C       0.8246   0.2811   0.4301     C
H        0.829   0.4096   0.5814     H
C       0.8296   0.1095   0.2573     C
H       0.8322   0.8473   0.3185     H
C       0.8743   0.3485    0.548     C
O       0.8818   0.0176   0.2177     O
C       0.8869   0.5932   0.9205     C
C       0.8896   0.1908   0.3818     C
C       0.9218    0.747   0.9774     C
H       0.9223   0.3616   0.1554     H
C       0.9407   0.7619   0.4307     C
O       0.9461   0.1594   0.0161     O
O       0.9494   0.6078   0.2654     O
C       0.9498   0.4211    0.802     C
H       0.9498   0.8928   0.5817     H
C       0.9863   0.5629    0.854     C
C        0.991   0.3263   0.6174     C
C       0.9937   0.8305   0.5483     C
