data_I
_chemical_name_common  '/home/zhangsd/repos/MofS-CGCNN/ML/data/SSD/clean_cifs/EWETUW_clean'
_cell_length_a  8.25700
_cell_length_b 13.16300
_cell_length_c 14.23800
_cell_angle_alpha 114.26100
_cell_angle_beta  96.49300
_cell_angle_gamma 101.69900
_space_group_name_H-M_alt      'P 1'


loop_
_space_group_symop_operation_xyz
  'x, y, z' 

loop_
_atom_site_label
_atom_site_fract_x
_atom_site_fract_y
_atom_site_fract_z
_atom_site_type_symbol
C       0.0063   0.2876   0.3909     C
C       0.0314   0.7306   0.2061     C
C       0.0349   0.8403   0.6801     C
C       0.0478   0.6665    0.261     C
C       0.0568   0.9951   0.2096     C
O       0.0704   0.5241   0.3584     O
C       0.0718   0.4613   0.6592     C
C       0.0907    0.112   0.2793     C
C        0.091   0.3948   0.7228     C
C       0.1064   0.0735   0.8166     C
O       0.1132   0.6727   0.5754     O
C       0.1262    0.268   0.8349     C
H       0.1276    0.773   0.1968     H
N       0.1411   0.1951   0.8848     N
H       0.1422   0.9644   0.1817     H
H       0.1552   0.6652   0.2874     H
O       0.1594   0.3459   0.4133     O
C       0.1954   0.9102   0.7061     C
O       0.1967   0.4954   0.6281     O
H       0.1981   0.4038   0.0351     H
H       0.2011   0.1592    0.299     H
C       0.2168   0.2412   0.9925     C
C       0.2314   0.0259   0.7739     C
C       0.2338   0.3557   0.0609     C
C       0.2488   0.3944   0.7644     C
H       0.2575   0.0949   0.9903     H
C       0.2661   0.3307     0.82     C
Tb     0.26933  0.54978  0.49918    Tb
C       0.2716   0.1728   0.0343     C
H       0.2806   0.8795   0.6779     H
C       0.3031   0.3986   0.1666     C
H       0.3089   0.4748   0.2118     H
H       0.3414    0.073   0.7913     H
H       0.3448   0.4371   0.7552     H
C       0.3463   0.2173   0.1392     C
C       0.3641    0.332   0.2075     C
H       0.3736   0.3306   0.8475     H
H       0.3853     0.17   0.1647     H
O        0.448   0.4784   0.3868     O
C       0.4485   0.3792    0.322     C
O       0.4804   0.6846   0.6526     O
O       0.5196   0.3154   0.3474     O
C       0.5515   0.6208    0.678     C
O        0.552   0.5216   0.6132     O
H       0.6147     0.83   0.8353     H
H       0.6264   0.6694   0.1525     H
C       0.6359    0.668   0.7925     C
C       0.6537   0.7827   0.8608     C
H       0.6552   0.5629   0.2448     H
H       0.6586    0.927   0.2087     H
H       0.6911   0.5252   0.7882     H
C       0.6969   0.6014   0.8334     C
H       0.7194   0.1205   0.3221     H
C       0.7284   0.8272   0.9657     C
Tb     0.73067  0.45022  0.50082    Tb
C       0.7339   0.6693     0.18     C
H       0.7425   0.9051   0.0097     H
C       0.7512   0.6056   0.2356     C
C       0.7662   0.6443   0.9391     C
C       0.7686   0.9741   0.2261     C
C       0.7832   0.7588   0.0075     C
H       0.7989   0.8408    0.701     H
H       0.8019   0.5962   0.9649     H
O       0.8033   0.5046   0.3719     O
C       0.8046   0.0898   0.2939     C
O       0.8406   0.6541   0.5867     O
H       0.8448   0.3348   0.7126     H
H       0.8578   0.0356   0.8183     H
N       0.8589   0.8049   0.1152     N
H       0.8724    0.227   0.8032     H
C       0.8738    0.732   0.1651     C
O       0.8868   0.3273   0.4246     O
C       0.8936   0.9265   0.1834     C
C        0.909   0.6052   0.2772     C
C       0.9093    0.888   0.7207     C
C       0.9282   0.5387   0.3408     C
O       0.9296   0.4759   0.6416     O
C       0.9432   0.0049   0.7904     C
C       0.9522   0.3335    0.739     C
C       0.9651   0.1597   0.3199     C
C       0.9686   0.2694   0.7939     C
C       0.9937   0.7124   0.6091     C
