data_I
_chemical_name_common  '/home/zhangsd/repos/MofS-CGCNN/ML/data/SSD/clean_cifs/EXEMUR_clean'
_cell_length_a 18.19600
_cell_length_b 18.19600
_cell_length_c 15.12700
_cell_angle_alpha 90.00000
_cell_angle_beta  90.00000
_cell_angle_gamma 120.00000
_space_group_name_H-M_alt      'P 1'


loop_
_space_group_symop_operation_xyz
  'x, y, z' 

loop_
_atom_site_label
_atom_site_fract_x
_atom_site_fract_y
_atom_site_fract_z
_atom_site_type_symbol
C       0.0072   0.4155    0.565     C
C       0.0072   0.5917    0.935     C
H        0.017   0.3217   0.1218     H
H        0.017   0.6953   0.3782     H
H       0.0183   0.1996   0.4137     H
H       0.0183   0.8187   0.0863     H
C        0.026   0.4807   0.0143     C
C        0.026   0.5453   0.4857     C
C       0.0339   0.3055   0.3533     C
C       0.0339   0.7284   0.1467     C
C       0.0415   0.3729   0.0886     C
C       0.0415   0.6686   0.4114     C
C       0.0567   0.3248   0.8219     C
C       0.0567   0.7319   0.6781     C
C       0.0586   0.2567   0.3997     C
C       0.0586   0.8019   0.1003     C
H       0.0645    0.447   0.5841     H
H       0.0645   0.6175   0.9159     H
O       0.0718   0.3772   0.7633     O
O       0.0718   0.6946   0.7367     O
H       0.0734   0.4232   0.3089     H
H       0.0734   0.6502   0.1911     H
C       0.0908   0.3884   0.3386     C
C       0.0908   0.7024   0.1614     C
H       0.0968    0.257   0.0428     H
H       0.0968   0.8398   0.4572     H
C       0.1052    0.509   0.9829     C
C       0.1052   0.5962   0.5171     C
O       0.1139   0.3151   0.8547     O
O       0.1139   0.7988   0.6453     O
N       0.1225   0.4102   0.0649     N
N       0.1225   0.7123   0.4351     N
H       0.1284    0.554   0.9411     H
H       0.1284   0.5744   0.5589     H
C       0.1425   0.2909   0.4262     C
C       0.1425   0.8516   0.0738     C
C       0.1484   0.2909   0.0738     C
C       0.1484   0.8575   0.4262     C
C       0.1523   0.4738   0.0102     C
C       0.1523   0.6785   0.4898     C
H       0.1602    0.257   0.4572     H
H       0.1602   0.9032   0.0428     H
C        0.174    0.423   0.3665     C
C        0.174    0.751   0.1335     C
C       0.1745   0.3737   0.0926     C
C       0.1745   0.8008   0.4074     C
H       0.1813   0.1996   0.0863     H
H       0.1813   0.9817   0.4137     H
C       0.1981   0.2567   0.1003     C
C       0.1981   0.9414   0.3997     C
C       0.1992   0.3737   0.4074     C
C       0.1992   0.8255   0.0926     C
H       0.1996   0.0183   0.9137     H
H       0.1996   0.1813   0.5863     H
O       0.2012   0.3151   0.6453     O
O       0.2012   0.8861   0.8547     O
H       0.2086   0.4965   0.9886     H
H       0.2086   0.7121   0.5114     H
Cd      0.2115    0.423     0.75    Cd
Cd      0.2115   0.7885     0.75    Cd
H       0.2133   0.4814   0.3567     H
H       0.2133   0.7319   0.1433     H
Cl      0.2297  0.54043  0.64607    Cl
Cl      0.2297  0.68927  0.85393    Cl
C        0.249    0.423   0.1335     C
C        0.249    0.826   0.3665     C
C       0.2567   0.0586   0.8997     C
C       0.2567   0.1981   0.6003     C
H        0.257   0.0968   0.5428     H
H        0.257   0.1602   0.9572     H
C       0.2681   0.3248   0.6781     C
H       0.2681   0.4814   0.1433     H
H       0.2681   0.7867   0.3567     H
C       0.2681   0.9433   0.8219     C
C       0.2716   0.3055   0.1467     C
C       0.2716   0.9661   0.3533     C
N       0.2877   0.4102   0.4351     N
N       0.2877   0.8775   0.0649     N
H       0.2879   0.4965   0.5114     H
H       0.2879   0.7914   0.9886     H
C       0.2909   0.1425   0.9262     C
C       0.2909   0.1484   0.5738     C
C       0.2976   0.3884   0.1614     C
C       0.2976   0.9092   0.3386     C
H       0.3047   0.3217   0.3782     H
H       0.3047    0.983   0.1218     H
O       0.3054   0.3772   0.7367     O
O       0.3054   0.9282   0.7633     O
C       0.3055   0.0339   0.8533     C
C       0.3055   0.2716   0.6467     C
Cl     0.31073  0.54043  0.85393    Cl
Cl     0.31073   0.7703  0.64607    Cl
O       0.3151   0.1139   0.3547     O
O       0.3151   0.2012   0.1453     O
C       0.3215   0.4738   0.4898     C
C       0.3215   0.8477   0.0102     C
H       0.3217    0.017   0.6218     H
H       0.3217   0.3047   0.8782     H
C       0.3248   0.0567   0.3219     C
C       0.3248   0.2681   0.1781     C
C       0.3314   0.3729   0.4114     C
C       0.3314   0.9585   0.0886     C
Cd     0.33333  0.66667     0.75    Cd
H       0.3498   0.4232   0.1911     H
H       0.3498   0.9266   0.3089     H
C       0.3729   0.0415   0.5886     C
C       0.3729   0.3314   0.9114     C
C       0.3737   0.1745   0.5926     C
C       0.3737   0.1992   0.9074     C
O       0.3772   0.0718   0.2633     O
O       0.3772   0.3054   0.2367     O
H       0.3825    0.447   0.9159     H
H       0.3825   0.9355   0.5841     H
C       0.3884   0.0908   0.8386     C
C       0.3884   0.2976   0.6614     C
C       0.4038    0.509   0.5171     C
C       0.4038   0.8948   0.9829     C
C       0.4083   0.4155    0.935     C
C       0.4083   0.9928    0.565     C
N       0.4102   0.1225   0.5649     N
N       0.4102   0.2877   0.9351     N
C       0.4155   0.0072    0.065     C
C       0.4155   0.4083    0.435     C
C        0.423    0.174   0.8665     C
Cd       0.423   0.2115     0.25    Cd
C        0.423    0.249   0.6335     C
H       0.4232   0.0734   0.8089     H
H       0.4232   0.3498   0.6911     H
H       0.4256    0.554   0.5589     H
H       0.4256   0.8716   0.9411     H
H        0.446   0.5744   0.9411     H
H        0.446   0.8716   0.5589     H
H        0.447   0.0645   0.0841     H
H        0.447   0.3825   0.4159     H
C       0.4547   0.4807   0.4857     C
C       0.4547    0.974   0.0143     C
Cl     0.45957  0.68927  0.64607    Cl
Cl     0.45957   0.7703  0.85393    Cl
C       0.4738   0.1523   0.5102     C
C       0.4738   0.3215   0.9898     C
C       0.4807    0.026   0.5143     C
C       0.4807   0.4547   0.9857     C
H       0.4814   0.2133   0.8567     H
H       0.4814   0.2681   0.6433     H
C        0.491   0.5962   0.9829     C
C        0.491   0.8948   0.5171     C
H       0.4965   0.2086   0.4886     H
H       0.4965   0.2879   0.0114     H
H       0.5035   0.7121   0.9886     H
H       0.5035   0.7914   0.5114     H
C        0.509   0.1052   0.4829     C
C        0.509   0.4038   0.0171     C
H       0.5186   0.7319   0.3567     H
H       0.5186   0.7867   0.1433     H
C       0.5193   0.5453   0.0143     C
C       0.5193    0.974   0.4857     C
C       0.5262   0.6785   0.0102     C
C       0.5262   0.8477   0.4898     C
Cl     0.54043   0.2297  0.14607    Cl
Cl     0.54043  0.31073  0.35393    Cl
C       0.5453    0.026   0.9857     C
C       0.5453   0.5193   0.5143     C
H        0.553   0.6175   0.5841     H
H        0.553   0.9355   0.9159     H
H        0.554   0.1284   0.4411     H
H        0.554   0.4256   0.0589     H
H       0.5744   0.1284   0.0589     H
H       0.5744    0.446   0.4411     H
H       0.5768   0.6502   0.3089     H
H       0.5768   0.9266   0.1911     H
C        0.577    0.751   0.3665     C
Cd       0.577   0.7885     0.75    Cd
C        0.577    0.826   0.1335     C
C       0.5845   0.5917    0.565     C
C       0.5845   0.9928    0.935     C
N       0.5898   0.7123   0.0649     N
N       0.5898   0.8775   0.4351     N
C       0.5917   0.0072    0.435     C
C       0.5917   0.5845    0.065     C
C       0.5962   0.1052   0.0171     C
C       0.5962    0.491   0.4829     C
C       0.6116   0.7024   0.3386     C
C       0.6116   0.9092   0.1614     C
H       0.6175   0.0645   0.4159     H
H       0.6175    0.553   0.0841     H
O       0.6228   0.6946   0.7633     O
O       0.6228   0.9282   0.7367     O
C       0.6263   0.8008   0.0926     C
C       0.6263   0.8255   0.4074     C
C       0.6271   0.6686   0.0886     C
C       0.6271   0.9585   0.4114     C
H       0.6502   0.0734   0.6911     H
H       0.6502   0.5768   0.8089     H
Cd     0.66667  0.33333     0.25    Cd
C       0.6686   0.0415   0.9114     C
C       0.6686   0.6271   0.5886     C
C       0.6752   0.7319   0.8219     C
C       0.6752   0.9433   0.6781     C
H       0.6783   0.6953   0.1218     H
H       0.6783    0.983   0.3782     H
C       0.6785   0.1523   0.9898     C
C       0.6785   0.5262   0.5102     C
O       0.6849   0.7988   0.8547     O
O       0.6849   0.8861   0.6453     O
Cl     0.68927   0.2297  0.35393    Cl
Cl     0.68927  0.45957  0.14607    Cl
C       0.6945   0.7284   0.3533     C
C       0.6945   0.9661   0.1467     C
O       0.6946   0.0718   0.2367     O
O       0.6946   0.6228   0.2633     O
H       0.6953    0.017   0.8782     H
H       0.6953   0.6783   0.6218     H
C       0.7024   0.0908   0.6614     C
C       0.7024   0.6116   0.8386     C
C       0.7091   0.8516   0.4262     C
C       0.7091   0.8575   0.0738     C
H       0.7121   0.2086   0.0114     H
H       0.7121   0.5035   0.4886     H
N       0.7123   0.1225   0.9351     N
N       0.7123   0.5898   0.5649     N
C       0.7284   0.0339   0.6467     C
C       0.7284   0.6945   0.8533     C
C       0.7319   0.0567   0.1781     C
H       0.7319   0.2133   0.6433     H
H       0.7319   0.5186   0.8567     H
C       0.7319   0.6752   0.3219     C
H        0.743   0.8398   0.0428     H
H        0.743   0.9032   0.4572     H
C       0.7433   0.8019   0.3997     C
C       0.7433   0.9414   0.1003     C
C        0.751    0.174   0.6335     C
C        0.751    0.577   0.8665     C
Cl      0.7703  0.31073  0.14607    Cl
Cl      0.7703  0.45957  0.35393    Cl
H       0.7867   0.2681   0.8567     H
H       0.7867   0.5186   0.6433     H
Cd      0.7885   0.2115     0.25    Cd
Cd      0.7885    0.577     0.25    Cd
H       0.7914   0.2879   0.4886     H
H       0.7914   0.5035   0.0114     H
O       0.7988   0.1139   0.1453     O
O       0.7988   0.6849   0.3547     O
H       0.8004   0.8187   0.4137     H
H       0.8004   0.9817   0.0863     H
C       0.8008   0.1745   0.9074     C
C       0.8008   0.6263   0.5926     C
C       0.8019   0.0586   0.6003     C
C       0.8019   0.7433   0.8997     C
H       0.8187   0.0183   0.5863     H
H       0.8187   0.8004   0.9137     H
C       0.8255   0.1992   0.5926     C
C       0.8255   0.6263   0.9074     C
C        0.826    0.249   0.8665     C
C        0.826    0.577   0.6335     C
H       0.8398   0.0968   0.9572     H
H       0.8398    0.743   0.5428     H
C       0.8477   0.3215   0.5102     C
C       0.8477   0.5262   0.9898     C
C       0.8516   0.1425   0.5738     C
C       0.8516   0.7091   0.9262     C
C       0.8575   0.1484   0.9262     C
C       0.8575   0.7091   0.5738     C
H       0.8716   0.4256   0.4411     H
H       0.8716    0.446   0.0589     H
N       0.8775   0.2877   0.5649     N
N       0.8775   0.5898   0.9351     N
O       0.8861   0.2012   0.3547     O
O       0.8861   0.6849   0.1453     O
C       0.8948   0.4038   0.4829     C
C       0.8948    0.491   0.0171     C
H       0.9032   0.1602   0.5428     H
H       0.9032    0.743   0.9572     H
C       0.9092   0.2976   0.8386     C
C       0.9092   0.6116   0.6614     C
H       0.9266   0.3498   0.8089     H
H       0.9266   0.5768   0.6911     H
O       0.9282   0.3054   0.2633     O
O       0.9282   0.6228   0.2367     O
H       0.9355   0.3825   0.0841     H
H       0.9355    0.553   0.4159     H
C       0.9414   0.1981   0.8997     C
C       0.9414   0.7433   0.6003     C
C       0.9433   0.2681   0.3219     C
C       0.9433   0.6752   0.1781     C
C       0.9585   0.3314   0.5886     C
C       0.9585   0.6271   0.9114     C
C       0.9661   0.2716   0.8533     C
C       0.9661   0.6945   0.6467     C
C        0.974   0.4547   0.5143     C
C        0.974   0.5193   0.9857     C
H       0.9817   0.1813   0.9137     H
H       0.9817   0.8004   0.5863     H
H        0.983   0.3047   0.6218     H
H        0.983   0.6783   0.8782     H
C       0.9928   0.4083    0.065     C
C       0.9928   0.5845    0.435     C
