data_I
_chemical_name_common  '/home/zhangsd/repos/MofS-CGCNN/ML/data/SSD/clean_cifs/EXEWIO_clean'
_cell_length_a 21.95440
_cell_length_b 23.89140
_cell_length_c 17.03980
_cell_angle_alpha 90.00000
_cell_angle_beta  106.56800
_cell_angle_gamma 90.00000
_space_group_name_H-M_alt      'P 1'


loop_
_space_group_symop_operation_xyz
  'x, y, z' 

loop_
_atom_site_label
_atom_site_fract_x
_atom_site_fract_y
_atom_site_fract_z
_atom_site_type_symbol
H       0.0004   0.5407    0.441     H
H       0.0004   0.9593    0.941     H
H       0.0039    0.524   0.5763     H
H       0.0039    0.976   0.0763     H
O      0.00811  0.57027  0.28304     O
C       0.0131   0.5042   0.4651     C
C       0.0131   0.9958   0.9651     C
Zn     0.01786   0.0001  0.27939    Zn
Zn     0.01786   0.4999  0.77939    Zn
C       0.0193   0.1091    0.736     C
C       0.0193   0.3909    0.236     C
O      0.02321  0.61718   0.8283     O
O      0.02321  0.88282   0.3283     O
H        0.027   0.1027     0.39     H
H        0.027   0.3973     0.89     H
O      0.03273  0.06278   0.7734     O
O      0.03273  0.43722   0.2734     O
S      0.03956  0.22414  0.73871     S
S      0.03956  0.27586  0.23871     S
C       0.0426   0.0725   0.4249     C
C       0.0426   0.4275   0.9249     C
N      0.04434  0.01958   0.4003     N
N      0.04434  0.48042   0.9003     N
S      0.04667  0.67055  0.37182     S
C       0.0589  0.15675   0.7761     C
C       0.0589  0.34325   0.2761     C
C       0.0636  0.58123   0.2766     C
H        0.067   0.1267   0.5197     H
H        0.067   0.3733   0.0197     H
C       0.0697   0.0895    0.505     C
C       0.0697   0.4105    0.005     C
C       0.0718   0.5176   0.9573     C
C       0.0718   0.9824   0.4573     C
H       0.0719   0.5551   0.9422     H
H       0.0719   0.9449   0.4422     H
H       0.0781   0.7771   0.4566     H
C       0.0857   0.5004   0.4928     C
C       0.0857   0.9996   0.9928     C
O      0.09007  0.55335   0.2346     O
H       0.0911   0.0836   0.0007     H
H       0.0911   0.4164   0.5007     H
C       0.0962  0.63035   0.3223     C
H        0.097    0.168    0.283     H
H        0.097    0.332    0.783     H
C       0.1001   0.5035   0.0371     C
C       0.1001   0.9965   0.5371     C
C      0.10048  0.05097   0.5625     C
C      0.10048  0.44903   0.0625     C
C      0.10371  0.24781   0.3138     C
C      0.10371  0.25219   0.8138     C
H       0.1056   0.5824   0.4983     H
H       0.1056   0.9176   0.9983     H
N      0.10712  0.51205   0.7632     N
N      0.10712  0.98795   0.2632     N
C       0.1113  0.15513   0.8407     C
C       0.1113  0.34487   0.3407     C
H       0.1115   0.0597   0.2081     H
H       0.1115   0.4403   0.7081     H
C       0.1141   0.7661   0.4424     C
C       0.1152    0.051    0.007     C
C       0.1152    0.449    0.507     C
C       0.1156   0.7171   0.3998     C
H        0.117    0.588    0.819     H
H        0.117    0.912    0.319     H
H       0.1193    0.531   0.0745     H
H       0.1193    0.969   0.5745     H
C       0.1199  0.19166   0.3254     C
C       0.1199  0.30834   0.8254     C
H        0.122   0.0962    0.665     H
H        0.122   0.4038    0.165     H
C       0.1239   0.5469   0.5057     C
C       0.1239   0.9531   0.0057     C
H        0.124    0.033    0.694     H
H        0.124    0.467    0.194     H
H       0.1281   0.1221    0.867     H
H       0.1281   0.3779    0.367     H
C       0.1336   0.0655     0.65     C
C       0.1336   0.4345     0.15     C
C       0.1354  0.02874   0.2319     C
C       0.1354  0.47126   0.7319     C
C       0.1388  0.20921    0.865     C
C       0.1388  0.29079    0.365     C
C       0.1419   0.5567   0.7941     C
C       0.1419   0.9433   0.2941     C
C       0.1702   0.6997   0.3798     C
C       0.1708   0.7986   0.4632     C
S      0.17297  0.86065  0.52602     S
C       0.1734  0.17873   0.3892     C
C       0.1734  0.32127   0.8892     C
C       0.1809   0.0542   0.0305     C
C       0.1809   0.4458   0.5305     C
C        0.189   0.5416   0.5293     C
C        0.189   0.9584   0.0293     C
C        0.192   0.2232   0.9282     C
C        0.192   0.2768   0.4282     C
C       0.1985   0.0264   0.2338     C
C       0.1985   0.4736   0.7338     C
H          0.2   0.0892   0.0396     H
H          0.2   0.4108   0.5396     H
C       0.2051   0.5616   0.7966     C
C       0.2051   0.9384   0.2966     C
S      0.20609  0.11293  0.41694     S
S      0.20609  0.38707  0.91694     S
C      0.20641  0.06509    0.667     C
C      0.20641  0.43491    0.167     C
C       0.2102  0.22078   0.4408     C
C       0.2102  0.27922   0.9408     C
H       0.2139   0.5737   0.5379     H
H       0.2139   0.9263   0.0379     H
H       0.2155   0.1955    0.962     H
H       0.2155   0.3045    0.462     H
H       0.2164   0.0557   0.2119     H
H       0.2164   0.4443   0.7119     H
N      0.21761  0.00896   0.0405     N
N      0.21761  0.49104   0.5405     N
H       0.2185   0.0356   0.6353     H
H       0.2185   0.4644   0.1353     H
H       0.2202   0.1005   0.6501     H
H       0.2202   0.3995   0.1501     H
C       0.2244   0.7824   0.4445     C
H       0.2276   0.5938   0.8178     H
H       0.2276   0.9062   0.3178     H
C       0.2277   0.7322   0.4004     C
H       0.2312   0.5274   0.2528     H
H       0.2312   0.9726   0.7528     H
C       0.2351   0.5186   0.7674     C
C       0.2351   0.9814   0.2674     C
C      0.23864  0.05582   0.7565     C
C      0.23864  0.44418   0.2565     C
C       0.2448  0.00285   0.7878     C
C       0.2448  0.49715   0.2878     C
C       0.2529  0.86623   0.5181     C
H       0.2587   0.1353   0.7934     H
H       0.2587   0.3647   0.2934     H
C       0.2613  0.09845   0.8115     C
C       0.2613  0.40155   0.3115     C
O      0.26207  0.94487   0.6038     O
C       0.2624  0.19735   0.5008     C
C       0.2624  0.30265   0.0008     C
H       0.2639   0.7214   0.3863     H
C       0.2668  0.14135   0.4963     C
C       0.2668  0.35865   0.9963     C
C       0.2708  0.50645   0.3703     C
C       0.2708  0.99355   0.8703     C
H       0.2738   0.5431   0.3896     H
H       0.2738   0.9569   0.8896     H
C       0.2877  0.91473   0.5639     C
C       0.2878  0.08663   0.8937     C
H       0.2878   0.2136    0.533     H
H       0.2878   0.2864    0.033     H
C       0.2878  0.41337   0.3937     C
N      0.29206    0.035   0.9241     N
N      0.29206    0.465   0.4241     N
H       0.3033   0.1161   0.9294     H
H       0.3033   0.3839   0.4294     H
O      0.30392  0.14726   0.0629     O
O      0.30392  0.35274   0.5629     O
C       0.3056   0.5207   0.7775     C
C       0.3056   0.9793   0.2775     C
O      0.30792  0.60825   0.4921     O
O      0.30792  0.89175   0.9921     O
O      0.30948  0.05259   0.5315     O
O      0.30948  0.44741   0.0315     O
Zn     0.31152  0.01769  0.04588    Zn
Zn     0.31152  0.48231  0.54588    Zn
C      0.31501  0.10444   0.5505     C
C      0.31501  0.39556   0.0505     C
H       0.3159   0.5549   0.7534     H
H       0.3159   0.9451   0.2534     H
H       0.3176   0.0108   0.2492     H
H       0.3176   0.4892   0.7492     H
H       0.3284   0.0139   0.3916     H
H       0.3284   0.4861   0.8916     H
H       0.3321   0.5516   0.8939     H
H       0.3321   0.9484   0.3939     H
C       0.3421   0.5185   0.8669     C
C       0.3421   0.9815   0.3669     C
O      0.34431  0.92317  0.55792     O
C       0.3493  0.59691    0.556     C
C       0.3493  0.90309    0.056     C
C       0.3505  0.12517   0.1118     C
C       0.3505  0.37483   0.6118     C
O      0.35632  0.12462   0.6086     O
O      0.35632  0.37538   0.1086     O
O       0.3596   0.5486   0.5902     O
O       0.3596   0.9514   0.0902     O
O      0.36061  0.07279  0.12043     O
O      0.36061  0.42721  0.62043     O
Zn     0.36428  0.50013  0.10377    Zn
Zn     0.36428  0.99987  0.60377    Zn
H        0.375   0.2398   0.1286     H
H        0.375   0.2602   0.6286     H
S      0.37521  0.71017  0.56374     S
S      0.37521  0.78983  0.06374     S
H        0.383    0.584    0.234     H
H        0.383    0.916    0.734     H
N      0.38731  0.00086   0.7276     N
N      0.38731  0.49914   0.2276     N
C       0.3916  0.64219   0.5994     C
C       0.3916  0.85781   0.0994     C
H        0.393    0.082    0.735     H
H        0.393    0.418    0.235     H
C       0.3979   0.5476   0.2678     C
C       0.3979   0.9524   0.7678     C
C       0.3989  0.16132   0.1678     C
C       0.3989  0.33868   0.6678     C
C        0.401   0.0475    0.772     C
C        0.401   0.4525    0.272     C
C       0.4036  0.21741   0.1664     C
C       0.4036  0.28259   0.6664     C
C       0.4127   0.5155   0.8812     C
C       0.4127   0.9845   0.3812     C
C       0.4218   0.5513   0.3512     C
C       0.4218   0.9487   0.8512     C
H       0.4238   0.0666   0.4086     H
H       0.4238   0.4334   0.9086     H
C       0.4252   0.0474   0.8556     C
C       0.4252   0.4526   0.3556     C
H        0.428   0.5971   0.8597     H
H        0.428   0.9029   0.3597     H
H       0.4285   0.5861   0.3766     H
H       0.4285   0.9139   0.8766     H
H        0.434    0.676    0.116     H
H        0.434    0.824    0.616     H
H       0.4343    0.081   0.8841     H
H       0.4343    0.419   0.3841     H
C       0.4359   0.5027   0.3974     C
C       0.4359   0.9973   0.8974     C
C       0.4388  0.73613   0.6423     C
C       0.4388  0.76387   0.1423     C
C       0.4429   0.6382   0.6656     C
C       0.4429   0.8618   0.1656     C
C       0.4454   0.0344   0.4016     C
C       0.4454   0.4656   0.9016     C
H       0.4455   0.0267   0.0126     H
H       0.4455   0.4733   0.5126     H
C       0.4477   0.5625   0.8725     C
C       0.4477   0.9375   0.3725     C
H        0.452   0.1762   0.7118     H
H        0.452   0.3238   0.2118     H
H       0.4534   0.5386   0.5102     H
H       0.4534   0.9614   0.0102     H
C       0.4562  0.70838   0.1559     C
C       0.4562  0.79162   0.6559     C
C      0.45642  0.23956    0.228     C
C      0.45642  0.26044    0.728     C
N      0.45686  0.00871   0.5985     N
N      0.45686  0.49129   0.0985     N
S       0.4595  0.13144  0.24501     S
S       0.4595  0.36856  0.74501     S
H       0.4619   0.6035     0.69     H
H       0.4619   0.8965     0.19     H
H        0.463    0.082    0.616     H
H        0.463    0.418    0.116     H
C       0.4637   0.5035   0.4885     C
C       0.4637   0.9965   0.9885     C
H       0.4694   0.5703   0.0746     H
H       0.4694   0.9297   0.5746     H
C       0.4718  0.69202    0.692     C
C       0.4718  0.80798    0.192     C
C       0.4751  0.20473   0.7441     C
C       0.4751  0.29527   0.2441     C
C       0.4877    0.057   0.6168     C
C       0.4877    0.443   0.1168     C
C       0.4904  0.53642   0.0886     C
C       0.4904  0.96358   0.5886     C
C       0.4916  0.19689    0.278     C
C       0.4916  0.30311    0.778     C
C       0.5084  0.69689    0.222     C
C       0.5084  0.80311    0.722     C
C       0.5096  0.03642   0.4114     C
C       0.5096  0.46358   0.9114     C
C       0.5123    0.557   0.8832     C
C       0.5123    0.943   0.3832     C
C       0.5249  0.70473   0.7559     C
C       0.5249  0.79527   0.2559     C
C       0.5282  0.19202    0.808     C
C       0.5282  0.30798    0.308     C
H       0.5306   0.0703   0.4254     H
H       0.5306   0.4297   0.9254     H
C       0.5363   0.0035   0.0115     C
C       0.5363   0.4965   0.5115     C
H        0.537    0.582    0.884     H
H        0.537    0.918    0.384     H
H       0.5381   0.1035     0.81     H
H       0.5381   0.3965     0.31     H
S       0.5405  0.63144  0.25499     S
S       0.5405  0.86856  0.75499     S
N      0.54314  0.50871   0.9015     N
N      0.54314  0.99129   0.4015     N
C      0.54358  0.73956    0.272     C
C      0.54358  0.76044    0.772     C
C       0.5438  0.20838   0.3441     C
C       0.5438  0.29162   0.8441     C
H       0.5466   0.0386   0.9898     H
H       0.5466   0.4614   0.4898     H
H        0.548   0.6762   0.7882     H
H        0.548   0.8238   0.2882     H
C       0.5523   0.0625   0.6275     C
C       0.5523   0.4375   0.1275     C
H       0.5545   0.5267   0.4874     H
H       0.5545   0.9733   0.9874     H
C       0.5546   0.5344   0.0984     C
C       0.5546   0.9656   0.5984     C
C       0.5571   0.1382   0.8344     C
C       0.5571   0.3618   0.3344     C
C       0.5612  0.23613   0.8577     C
C       0.5612  0.26387   0.3577     C
C       0.5641   0.0027   0.1026     C
C       0.5641   0.4973   0.6026     C
H       0.5657    0.581   0.6159     H
H       0.5657    0.919   0.1159     H
H        0.566    0.176    0.384     H
H        0.566    0.324    0.884     H
H       0.5715   0.0861   0.1234     H
H       0.5715   0.4139   0.6234     H
H        0.572   0.0971   0.6403     H
H        0.572   0.4029   0.1403     H
C       0.5748   0.5474   0.6444     C
C       0.5748   0.9526   0.1444     C
H       0.5762   0.5666   0.0914     H
H       0.5762   0.9334   0.5914     H
C       0.5782   0.0513   0.1488     C
C       0.5782   0.4487   0.6488     C
C       0.5873   0.0155   0.6188     C
C       0.5873   0.4845   0.1188     C
C       0.5964  0.71741   0.3336     C
C       0.5964  0.78259   0.8336     C
C        0.599   0.5475    0.728     C
C        0.599   0.9525    0.228     C
C       0.6011  0.66132   0.3322     C
C       0.6011  0.83868   0.8322     C
C       0.6021   0.0476   0.2322     C
C       0.6021   0.4524   0.7322     C
H        0.607    0.582    0.765     H
H        0.607    0.918    0.265     H
C       0.6084  0.14219   0.9006     C
C       0.6084  0.35781   0.4006     C
N      0.61269  0.50086   0.7724     N
N      0.61269  0.99914   0.2724     N
H        0.617    0.084    0.266     H
H        0.617    0.416    0.766     H
S      0.62479  0.21017  0.93626     S
S      0.62479  0.28983  0.43626     S
H        0.625   0.7398   0.3714     H
H        0.625   0.7602   0.8714     H
Zn     0.63572  0.00013  0.39623    Zn
Zn     0.63572  0.49987  0.89623    Zn
O      0.63939  0.57279  0.37957     O
O      0.63939  0.92721  0.87957     O
O       0.6404   0.0486   0.9098     O
O       0.6404   0.4514   0.4098     O
O      0.64368  0.62462   0.8914     O
O      0.64368  0.87538   0.3914     O
C       0.6495  0.62517   0.3882     C
C       0.6495  0.87483   0.8882     C
C       0.6507  0.09691    0.944     C
C       0.6507  0.40309    0.444     C
O      0.65569  0.07683  0.44208     O
C       0.6579   0.0185   0.6331     C
C       0.6579   0.4815   0.1331     C
H       0.6679   0.0516   0.6061     H
H       0.6679   0.4484   0.1061     H
H       0.6716   0.5139   0.1084     H
H       0.6716   0.9861   0.6084     H
H       0.6824   0.5108   0.2508     H
H       0.6824   0.9892   0.7508     H
H       0.6841   0.0549   0.7466     H
H       0.6841   0.4451   0.2466     H
C      0.68499  0.60444   0.9495     C
C      0.68499  0.89556   0.4495     C
Zn     0.68848  0.51769  0.45412    Zn
Zn     0.68848  0.98231  0.95412    Zn
O      0.69052  0.55259   0.9685     O
O      0.69052  0.94741   0.4685     O
O      0.69208  0.10825   0.0079     O
O      0.69208  0.39175   0.5079     O
C       0.6944   0.0207   0.7225     C
C       0.6944   0.4793   0.2225     C
O      0.69608  0.64726   0.4371     O
O      0.69608  0.85274   0.9371     O
H       0.6967   0.6161   0.5706     H
H       0.6967   0.8839   0.0706     H
N      0.70794    0.535   0.5759     N
N      0.70794    0.965   0.0759     N
C       0.7122  0.58663   0.6063     C
H       0.7122   0.7136    0.967     H
H       0.7122   0.7864    0.467     H
C       0.7122  0.91337   0.1063     C
C       0.7123  0.08527   0.4361     C
H       0.7262   0.0431   0.1104     H
H       0.7262   0.4569   0.6104     H
C       0.7292  0.00645   0.1297     C
C       0.7292  0.49355   0.6297     C
C       0.7332  0.64135   0.0037     C
C       0.7332  0.85865   0.5037     C
H       0.7361   0.2786   0.6137     H
C       0.7376  0.69735   0.9992     C
C       0.7376  0.80265   0.4992     C
O      0.73793  0.05513   0.3962     O
C       0.7387  0.59845   0.6885     C
C       0.7387  0.90155   0.1885     C
H       0.7413   0.6353   0.7066     H
H       0.7413   0.8647   0.2066     H
C       0.7471  0.13377   0.4819     C
C       0.7552  0.50285   0.7122     C
C       0.7552  0.99715   0.2122     C
C      0.76136  0.55582   0.7435     C
C      0.76136  0.94418   0.2435     C
C       0.7649   0.0186   0.7326     C
C       0.7649   0.4814   0.2326     C
H       0.7688   0.0274   0.2472     H
H       0.7688   0.4726   0.7472     H
C       0.7723   0.2678   0.5996     C
H       0.7724   0.0938   0.6822     H
H       0.7724   0.4062   0.1822     H
C       0.7756   0.2176   0.5555     C
H       0.7798   0.6005   0.8499     H
H       0.7798   0.8995   0.3499     H
H       0.7815   0.5356   0.8647     H
H       0.7815   0.9644   0.3647     H
N      0.78239  0.50896   0.4595     N
N      0.78239  0.99104   0.9595     N
H       0.7836   0.5557   0.2881     H
H       0.7836   0.9443   0.7881     H
H       0.7845   0.6955    0.538     H
H       0.7845   0.8045    0.038     H
H       0.7861   0.0737   0.9621     H
H       0.7861   0.4263   0.4621     H
C       0.7898  0.72078   0.0592     C
C       0.7898  0.77922   0.5592     C
C      0.79359  0.56509    0.833     C
C      0.79359  0.93491    0.333     C
S      0.79391  0.61293  0.08306     S
S      0.79391  0.88707  0.58306     S
C       0.7949   0.0616   0.7034     C
C       0.7949   0.4384   0.2034     C
H          0.8   0.5892   0.4604     H
H          0.8   0.9108   0.9604     H
C       0.8015   0.5264   0.2662     C
C       0.8015   0.9736   0.7662     C
C        0.808   0.7232   0.5718     C
C        0.808   0.7768   0.0718     C
C        0.811   0.0416   0.9707     C
C        0.811   0.4584   0.4707     C
C       0.8191   0.5542   0.4695     C
C       0.8191   0.9458   0.9695     C
C       0.8266  0.67873   0.1108     C
C       0.8266  0.82127   0.6108     C
S      0.82703  0.13935  0.47398     S
C       0.8292   0.2014   0.5368     C
C       0.8298   0.3003   0.6202     C
C       0.8581   0.0567   0.7059     C
C       0.8581   0.4433   0.2059     C
C       0.8612  0.70921    0.635     C
C       0.8612  0.79079    0.135     C
C       0.8646  0.52874   0.2681     C
C       0.8646  0.97126   0.7681     C
C       0.8664   0.5655     0.85     C
C       0.8664   0.9345     0.35     C
H       0.8719   0.6221    0.633     H
H       0.8719   0.8779    0.133     H
H        0.876    0.533    0.806     H
H        0.876    0.967    0.306     H
C       0.8761   0.0469   0.9943     C
C       0.8761   0.4531   0.4943     C
H        0.878   0.5962    0.835     H
H        0.878   0.9038    0.335     H
C       0.8801  0.69166   0.1746     C
C       0.8801  0.80834   0.6746     C
H       0.8807    0.031   0.4255     H
H       0.8807    0.469   0.9255     H
H        0.883    0.088    0.681     H
H        0.883    0.412    0.181     H
C       0.8844   0.2829   0.6002     C
C       0.8848    0.551    0.493     C
C       0.8848    0.949    0.993     C
C       0.8859   0.2339   0.5576     C
H       0.8885   0.5597   0.2919     H
H       0.8885   0.9403   0.7919     H
C       0.8887  0.65513   0.6593     C
C       0.8887  0.84487   0.1593     C
N      0.89288  0.01205   0.7368     N
N      0.89288  0.48795   0.2368     N
H       0.8944   0.0824   0.0017     H
H       0.8944   0.4176   0.5017     H
C      0.89629  0.74781   0.1862     C
C      0.89629  0.75219   0.6862     C
C      0.89952  0.55097   0.9375     C
C      0.89952  0.94903   0.4375     C
C       0.8999   0.0035   0.4629     C
C       0.8999   0.4965   0.9629     C
H        0.903    0.668    0.217     H
H        0.903    0.832    0.717     H
C       0.9038  0.36965   0.6777     C
H       0.9089   0.5836   0.4993     H
H       0.9089   0.9164   0.9993     H
O      0.90993  0.44665   0.7654     O
C       0.9143   0.0004   0.0072     C
C       0.9143   0.4996   0.5072     C
H       0.9219   0.2229   0.5434     H
H       0.9281   0.0551   0.5578     H
H       0.9281   0.4449   0.0578     H
C       0.9282   0.0176   0.5427     C
C       0.9282   0.4824   0.0427     C
C       0.9303   0.5895    0.995     C
C       0.9303   0.9105    0.495     C
H        0.933   0.6267   0.9803     H
H        0.933   0.8733   0.4803     H
C       0.9364  0.41877   0.7234     C
C       0.9411  0.65675   0.7239     C
C       0.9411  0.84325   0.2239     C
S      0.95333  0.32945  0.62818     S
N      0.95566  0.51958   0.0997     N
N      0.95566  0.98042   0.5997     N
C       0.9574   0.5725   0.0751     C
C       0.9574   0.9275   0.5751     C
S      0.96044  0.72414  0.76129     S
S      0.96044  0.77586  0.26129     S
O      0.96727  0.56278   0.7266     O
O      0.96727  0.93722   0.2266     O
H        0.973   0.6027     0.11     H
H        0.973   0.8973     0.61     H
O      0.97679  0.11718   0.6717     O
O      0.97679  0.38282   0.1717     O
C       0.9807   0.6091    0.764     C
C       0.9807   0.8909    0.264     C
Zn     0.98214   0.5001  0.22061    Zn
Zn     0.98214   0.9999  0.72061    Zn
C       0.9869   0.0042   0.0349     C
C       0.9869   0.4958   0.5349     C
O      0.99189  0.42973  0.71696     O
H       0.9961    0.024   0.9237     H
H       0.9961    0.476   0.4237     H
H       0.9996   0.0407    0.059     H
H       0.9996   0.4593    0.559     H
