data_I
_chemical_name_common  '/home/zhangsd/repos/MofS-CGCNN/ML/data/SSD/clean_cifs/EZOBUR_clean'
_cell_length_a 15.63990
_cell_length_b 17.98430
_cell_length_c 31.77410
_cell_angle_alpha 95.67420
_cell_angle_beta  104.24700
_cell_angle_gamma 90.00000
_space_group_name_H-M_alt      'P 1'


loop_
_space_group_symop_operation_xyz
  'x, y, z' 

loop_
_atom_site_label
_atom_site_fract_x
_atom_site_fract_y
_atom_site_fract_z
_atom_site_type_symbol
Cu         0.0      0.0      0.0    Cu
Cu         0.0      0.5      0.0    Cu
C      0.00044   0.9677  0.73828     C
C      0.00179    0.176  0.78178     C
C      0.00465   0.8652   0.1499     C
F      0.00495   0.8434   0.5239     F
C      0.00573   0.1513  0.43486     C
O      0.00765    0.088   0.0491     O
C      0.01029   0.0752  0.92018     C
N      0.01096   0.4177  0.40652     N
N      0.01399    0.406  0.23258     N
H       0.0174   0.7513   0.3202     H
C      0.01853   0.4445  0.37026     C
O      0.01882   0.4235  0.69504     O
C       0.0205   0.9927   0.2986     C
F       0.0213   0.9187   0.5798     F
C       0.0228    0.799   0.9166     C
F       0.0269   0.1716   0.2132     F
C      0.02775   0.3538   0.6927     C
O      0.02777   0.7248  0.57154     O
H        0.028   0.4108   0.1514     H
H       0.0288   0.5631   0.6542     H
H        0.033   0.1991    0.765     H
C       0.0334   0.1035   0.2034     C
H       0.0338   0.9595   0.0942     H
F      0.03401   0.6986  0.10422     F
C      0.03472   0.7021  0.32244     C
C      0.03618   0.1279  0.89676     C
O       0.0378   0.4191   0.2748     O
F       0.0392    0.112   0.6804     F
O      0.04145    0.588   0.0491     O
C      0.04181   0.7894  0.59122     C
C        0.043   0.1672   0.8246     C
N      0.04657   0.0721  0.96314     N
C      0.04909   0.8638  0.95158     C
C      0.05097   0.0426  0.68594     C
F       0.0513   0.9181   0.8186     F
F      0.05137    0.734  0.92574     F
F       0.0566   0.8093    0.882     F
H       0.0597    0.961   0.7512     H
H       0.0604   0.4595   0.0942     H
C      0.06079   0.0613  0.24378     C
H        0.061   0.5165   0.8334     H
F      0.07021   0.1986  0.10422     F
F       0.0724   0.0046    0.654     F
H       0.0731   0.4732     0.79     H
C      0.07702   0.3892  0.16824     C
H       0.0773   0.4074   0.4672     H
F       0.0794   0.0832   0.1734     F
C      0.08019   0.4282  0.44198     C
H       0.0807   0.6595   0.8436     H
H        0.081   0.0174   0.5166     H
C      0.08109   0.5866  0.78958     C
C      0.08166    0.381  0.21232     C
C      0.08249   0.8478  0.23658     C
F        0.083   0.2441   0.3388     F
N      0.08343   0.4279  0.03686     N
N      0.08955   0.4816   0.3665     N
C      0.09011   0.4248  0.07982     C
C      0.09122   0.8892  0.16824     C
C      0.09202   0.8101  0.63264     C
C      0.09379   0.5149  0.81138     C
F        0.094   0.5832   0.1734     F
F        0.095   0.1558   0.4434     F
O      0.09633   0.9802  0.32126     O
C      0.09751   0.6362  0.04842     C
H        0.098   0.8608   0.6424     H
Cu     0.09837  0.63533  0.58576    Cu
Cu     0.09963  0.52388  0.31062    Cu
O      0.09986   0.5293  0.97292     O
H       0.1015   0.1826   0.8362     H
C      0.10331   0.1771  0.92082     C
H       0.1036   0.6996    0.806     H
C       0.1062    0.701   0.0834     C
H       0.1079   0.8417   0.2656     H
C      0.10996   0.1215  0.98272     C
H       0.1121   0.5391   0.7336     H
O      0.11275   0.5593   0.2565     O
C      0.11302   0.6559  0.82144     C
C       0.1218   0.3296    0.707     C
H       0.1233   0.3811   0.9878     H
H       0.1234   0.9108   0.1514     H
C      0.12349    0.689  0.34118     C
H       0.1239   0.2135   0.9066     H
H       0.1242   0.9866    0.454     H
F       0.1253   0.7841   0.7336     F
F      0.12563    0.766  0.07426     F
H       0.1266   0.6261   0.7402     H
O      0.12694   0.9707  0.02708     O
C      0.12724   0.3785  0.01728     C
C      0.13066    0.881  0.21232     C
C      0.13181   0.8608  0.98042     C
F        0.132   0.0435   0.7164     F
C      0.13357   0.5813  0.75454     C
O      0.13369   0.6903  0.65398     O
F      0.13464   0.2651  0.72108     F
C      0.13478   0.7598  0.66116     C
H       0.1355   0.1189   0.0122     H
C      0.13942   0.3721  0.10324     C
N      0.13976   0.1743  0.96352     N
C      0.14093   0.0139  0.51786     C
O      0.14375   0.0593   0.2565     O
C      0.14525   0.3652   0.1499     C
H       0.1455   0.4935    0.523     H
C      0.14917   0.5854  0.98494     C
C      0.15139   0.6392  0.01958     C
C      0.15409   0.3478  0.23658     C
C      0.15487   0.4689  0.44154     C
H       0.1552   0.5095   0.8246     H
C       0.1564   0.4942   0.4024     C
F       0.1564   0.8184   0.3484     F
H       0.1577   0.3417   0.2656     H
O      0.15894   0.5405  0.59588     O
O      0.15971    0.627  0.34522     O
F       0.1616   0.3364   0.6722     F
C      0.16423   0.9146  0.01506     C
F       0.1657   0.3801   0.8818     F
C       0.1662   0.9946   0.4804     C
H       0.1671   0.8205   0.9762     H
C         0.17   0.6035   0.2034     C
F       0.1736   0.3821    0.735     F
F       0.1746   0.6907    0.118     F
H       0.1748   0.6521   0.8348     H
N      0.17624   0.3257  0.03648     N
C      0.17755   0.2565   0.3603     C
C      0.18249   0.3229  0.07918     C
H       0.1825   0.0441   0.5828     H
C      0.18275   0.7565   0.3603     C
C      0.18299   0.5613  0.24378     C
C      0.18471   0.7902  0.70602     C
O      0.18551    0.127  0.34522     O
F       0.1863   0.6716   0.2132     F
F       0.1894   0.5626   0.9172     F
H       0.1909   0.6795   0.0238     H
F       0.1917   0.2595   0.4048     F
F        0.192   0.3184   0.3484     F
H       0.1947   0.0213   0.4006     H
H       0.1949   0.5752    0.768     H
C      0.20129   0.0285  0.55778     C
C      0.20401    0.499  0.52182     C
H       0.2044   0.5751   0.6736     H
H       0.2059   0.5213   0.4006     H
H       0.2088   0.4877   0.6704     H
Cu     0.21099  0.02388  0.31062    Cu
F       0.2131   0.7595   0.4048     F
F      0.21373   0.8579  0.71126     F
C      0.21378   0.5958  0.95656     C
H       0.2173   0.2865   0.0934     H
C      0.21769    0.189  0.34118     C
C       0.2184   0.3328   0.1754     C
N      0.21859    0.906  0.23258     N
C      0.22001    0.324  0.21822     C
O      0.22493   0.4802  0.32126     O
C      0.22615   0.4869   0.4819     C
O      0.22669   0.3081  0.95058     O
H       0.2276   0.9835   0.1666     H
H       0.2319   0.9665   0.6276     H
F       0.2327   0.5819   0.1814     F
O        0.237   0.9191   0.2748     O
H       0.2371   0.8405   0.1564     H
C      0.24047   0.3694  0.89194     C
H       0.2408   0.1102   0.6358     H
F        0.242   0.6686   0.9592     F
N       0.2426   0.5333   0.5994     N
C       0.2431   0.5335   0.6768     C
F       0.2436   0.7457   0.7264     F
C        0.246   0.9942   0.4024     C
Cu     0.25296     0.25      1.0    Cu
F       0.2544    0.301   0.8668     F
C      0.25575   0.9869   0.4819     C
F       0.2558   0.7441   0.3388     F
C      0.25722   0.9042  0.04344     C
C      0.26216   0.5323  0.26172     C
H       0.2653   0.3174   0.1638     H
H        0.268   0.3009    0.235     H
C      0.26937   0.5194  0.55994     C
F       0.2722   0.9374   0.0828     F
O      0.27611   0.1919  0.04942     O
N      0.27695   0.9816   0.3665     N
C       0.2781   0.4927   0.2986     C
H       0.2789   0.5366   0.7062     H
C      0.28208   0.3471  0.93856     C
C      0.28241   0.9851  0.18862     C
F       0.2828   0.8314   0.0408     F
H       0.2828   0.9648   0.6766     H
H       0.2831   0.0268     0.21     H
F       0.2839   0.1199   0.1182     F
F       0.2841   0.5545   0.9696     F
F       0.2854   0.4256   0.8832     F
C      0.28667   0.9689  0.44154     C
C      0.28772   0.2021  0.32244     C
C      0.28922   0.9658  0.64744     C
C      0.29057   0.0194  0.55994     C
H       0.2908   0.1104    0.685     H
C      0.29151   0.9134  0.21042     C
C      0.29158   0.8441  0.17856     C
H       0.2976   0.8004    0.194     H
C      0.29768   0.1083  0.65576     C
H       0.3028   0.2513   0.3202     H
C      0.30305   0.5353   0.6449     C
H       0.3085    0.539   0.2488     H
C       0.3142   0.4946   0.4804     C
F       0.3145   0.9455   0.0304     F
C      0.31781    0.999  0.52182     C
H       0.3194     0.65   0.6532     H
H       0.3195   0.9222   0.6396     H
H       0.3201   0.4222   0.6396     H
O      0.32378   0.0765  0.30496     O
H       0.3298   0.4866    0.454     H
H       0.3306   0.9905   0.1754     H
H       0.3338     0.15   0.6532     H
C      0.33505   0.1462   0.3073     C
H         0.34   0.8479   0.1652     H
O      0.34112   0.1816  0.97384     O
C      0.34185   0.0353   0.6449     C
C      0.34352   0.1529  0.06144     C
F       0.3484   0.6558   0.4434     F
C      0.34853   0.1306  0.10806     C
C      0.35173   0.9445  0.37026     C
C      0.35649   0.5285  0.55778     C
N       0.3568   0.0333   0.5994     N
C      0.35808   0.6083  0.65576     C
C      0.35822   0.4658  0.64744     C
F       0.3588    0.388   0.3196     F
C      0.36179   0.9282  0.44198     C
C       0.3643   0.3701   0.9608     C
C      0.36503   0.4574  0.31406     C
O      0.36728   0.3184  0.02616     O
H       0.3746   0.9369   0.3458     H
C      0.37693   0.5139  0.51786     C
H       0.3775   0.9935    0.523     H
H       0.3785   0.9609   0.2664     H
C      0.37903   0.9187  0.24546     C
H       0.3864   0.8739   0.2598     H
F       0.3876    0.199   0.1332     F
H       0.3899   0.9074   0.4672     H
F       0.3917   0.7159   0.2664     F
H       0.3938   0.4648   0.6766     H
H       0.3942   0.6104    0.685     H
H        0.395   0.6102   0.6358     H
N      0.39556   0.9177  0.40652     N
H       0.3957   0.4665   0.6276     H
H        0.397   0.3991   0.9474     H
C       0.3995   0.1472   0.9978     C
H       0.4003   0.5441   0.5828     H
C       0.4017   0.3528   0.0022     C
F       0.4022   0.0744   0.1168     F
C       0.4035   0.1299   0.0392     C
F      0.41356   0.2349  0.27892     F
C       0.4148   0.1704    0.293     C
F       0.4156   0.4565   0.2836     F
F       0.4184   0.4954    0.346     F
H       0.4269   0.9248    0.232     H
H       0.4273   0.0366   0.7062     H
C      0.42913   0.6513  0.43486     C
C       0.4337   0.0335   0.6768     C
H       0.4356   0.5174   0.5166     H
O      0.43694   0.0405  0.59588     O
F       0.4386   0.1179    0.265     F
F       0.4415   0.5813   0.4202     F
H       0.4496   0.1009   0.0526     H
C      0.45059   0.7106  0.40878     C
H       0.4556   0.6392   0.3576     H
O      0.45623   0.7752  0.42846     O
C      0.45938   0.6899  0.36736     C
H       0.4616   0.9877   0.6704     H
H       0.4692   0.0751   0.6736     H
C      0.47362   0.7402  0.33884     C
C      0.47869   0.7098  0.29398     C
O      0.47971   0.8097  0.34602     O
F      0.48105   0.6566   0.4761     F
F       0.4828   0.2457   0.7264     F
Cu     0.48739  0.13533  0.58576    Cu
F       0.4894   0.1636   0.3278     F
F      0.49753   0.3579  0.71126     F
F      0.50247   0.6421  0.28874     F
F       0.5106   0.8364   0.6722     F
Cu     0.51261  0.86467  0.41424    Cu
F       0.5172   0.7543   0.2736     F
F      0.51895   0.3434   0.5239     F
O      0.52029   0.1903  0.65398     O
C      0.52131   0.2902  0.70602     C
C      0.52638   0.2598  0.66116     C
H       0.5308   0.9249   0.3264     H
H       0.5384   0.0123   0.3296     H
C      0.54062   0.3101  0.63264     C
O      0.54377   0.2248  0.57154     O
H       0.5444   0.3608   0.6424     H
C      0.54941   0.2894  0.59122     C
H       0.5504   0.8991   0.9474     H
F       0.5585   0.4187   0.5798     F
F       0.5614   0.8821    0.735     F
O      0.56306   0.9595  0.40412     O
H       0.5644   0.4826   0.4834     H
C       0.5663   0.9665   0.3232     C
C      0.57087   0.3487  0.56514     C
H       0.5727   0.9634   0.2938     H
H       0.5731   0.0752    0.768     H
F       0.5816   0.5046    0.654     F
F       0.5844   0.5435   0.7164     F
C       0.5852   0.8296    0.707     C
F      0.58644   0.7651  0.72108     F
C       0.5965   0.8701   0.9608     C
F       0.5978   0.9256   0.8832     F
C       0.5983   0.6472   0.9978     C
H       0.5997   0.4559   0.4172     H
C       0.6005   0.8528   0.0022     C
H        0.603   0.6009   0.0526     H
H       0.6043   0.5335   0.3724     H
N      0.60444   0.0823  0.59348     N
H        0.605   0.3898   0.3642     H
H       0.6058   0.3896    0.315     H
H       0.6062   0.5352   0.3234     H
F       0.6083   0.2841   0.7336     F
H       0.6101   0.0926   0.5328     H
F       0.6124    0.801   0.8668     F
H       0.6136   0.1261   0.7402     H
C      0.62097   0.0813  0.75454     C
H       0.6215   0.0391   0.7336     H
H       0.6225   0.0065    0.477     H
C      0.62307   0.4861  0.48214     C
H       0.6254   0.0631   0.6542     H
O      0.63272   0.6816  0.97384     O
C      0.63497   0.5426  0.68594     C
C       0.6357   0.6299   0.0392     C
C      0.63821   0.0718  0.55802     C
F       0.6412    0.612   0.6804     F
C      0.64178   0.5342  0.35256     C
C      0.64192   0.3917  0.34424     C
N       0.6432   0.9667   0.4006     N
C      0.64351   0.4715  0.44222     C
C      0.64827   0.0555  0.62974     C
C      0.65147   0.8694  0.89194     C
F       0.6516   0.3442   0.5566     F
C      0.65648   0.8471  0.93856     C
C      0.65815   0.9647   0.3551     C
O      0.65888   0.8184  0.02616     O
H         0.66   0.1521   0.8348     H
C      0.66495   0.8538   0.6927     C
H       0.6662     0.85   0.3468     H
H       0.6694   0.0095   0.8246     H
H       0.6702   0.5134    0.546     H
O      0.67622   0.9235  0.69504     O
H       0.6799   0.5778   0.3604     H
H       0.6805   0.0778   0.3604     H
H       0.6806     0.35   0.3468     H
C      0.68219    0.001  0.47818     C
F       0.6855   0.0545   0.9696     F
C       0.6858   0.5054   0.5196     C
H       0.6915    0.461   0.7512     H
C      0.69695   0.4647   0.3551     C
H       0.6972   0.7487   0.6798     H
C      0.70232   0.8917  0.34424     C
H       0.7024   0.1996    0.806     H
C      0.70842   0.1559  0.82144     C
C      0.70849   0.0866  0.78958     C
H       0.7092   0.8896    0.315     H
C      0.70943   0.9806  0.44006     C
C      0.71078   0.0342  0.35256     C
C      0.71228   0.7979  0.67756     C
C      0.71333   0.0311  0.55846     C
F       0.7146   0.5744   0.1168     F
F       0.7159   0.4455   0.0304     F
F       0.7161   0.8801   0.8818     F
H       0.7169   0.9732     0.79     H
H       0.7172   0.0352   0.3234     H
F       0.7172   0.1686   0.9592     F
C      0.71759   0.0149  0.81138     C
C      0.71792   0.6529  0.06144     C
H       0.7211   0.4634   0.2938     H
C       0.7219   0.5073   0.7014     C
N      0.72305   0.0184   0.6335     N
O      0.72389   0.8081  0.95058     O
F       0.7278   0.0626   0.9172     F
C      0.73063   0.4806  0.44006     C
H        0.732   0.6991    0.765     H
H       0.7347   0.6826   0.8362     H
C      0.73784   0.4677  0.73828     C
C      0.74278   0.0958  0.95656     C
F       0.7442   0.2559   0.6612     F
C      0.74425   0.0131   0.5181     C
F       0.7456    0.699   0.1332     F
Cu     0.74704     0.75      0.0    Cu
C        0.754   0.0058   0.5976     C
F       0.7564   0.2543   0.2736     F
C       0.7569   0.4665   0.3232     C
N       0.7574   0.4667   0.4006     N
F        0.758   0.3314   0.0408     F
H       0.7592   0.8898   0.3642     H
C      0.75953   0.6306  0.10806     C
H       0.7629   0.1595   0.8436     H
O        0.763   0.0809   0.7252     O
F       0.7673   0.4181   0.8186     F
H       0.7681   0.0335   0.3724     H
H       0.7724   0.0165   0.8334     H
O      0.77331   0.6919  0.04942     O
C      0.77385   0.5131   0.5181     C
O      0.77507   0.5198  0.67874     O
C      0.77999    0.676  0.78178     C
N      0.78141    0.094  0.76742     N
C       0.7816   0.6672   0.8246     C
C      0.78231    0.811  0.65882     C
H       0.7827   0.7135   0.9066     H
C      0.78622   0.4042  0.04344     C
F      0.78627   0.1421  0.28874     F
F       0.7869   0.2405   0.5952     F
Cu     0.78901  0.97612  0.68938    Cu
H       0.7912   0.5123   0.3296     H
H       0.7941   0.4787   0.5994     H
H       0.7956   0.4249   0.3264     H
C      0.79599    0.501  0.47818     C
C      0.79871   0.9715  0.44222     C
H       0.8051   0.4248    0.232     H
H       0.8053   0.9787   0.5994     H
F        0.808   0.6816   0.6516     F
F       0.8083   0.7405   0.5952     F
H       0.8091   0.3205   0.9762     H
F       0.8106   0.4374   0.0828     F
F       0.8137   0.3284   0.7868     F
O      0.81449    0.873  0.65478     O
C      0.81529   0.2098  0.29398     C
C      0.81701   0.4387  0.75622     C
C      0.81725   0.2435   0.6397     C
H       0.8175   0.9559   0.4172     H
C      0.81751   0.6771  0.92082     C
C      0.82245   0.7435   0.6397     C
N      0.82376   0.6743  0.96352     N
H       0.8252   0.3479   0.1652     H
F       0.8254   0.3093    0.882     F
F       0.8264   0.6179    0.265     F
C         0.83   0.3965   0.7966     C
H       0.8329   0.1795   0.0238     H
C       0.8338   0.0054   0.5196     C
F       0.8343   0.6199   0.1182     F
C      0.83577   0.0854  0.98494     C
F       0.8384   0.6636   0.3278     F
O      0.84029    0.373  0.65478     O
O      0.84106   0.4595  0.40412     O
H       0.8423   0.6583   0.7344     H
F       0.8436   0.1816   0.6516     F
C       0.8436   0.5058   0.5976     C
H       0.8448   0.4905   0.1754     H
C      0.84513   0.5311  0.55846     C
C      0.84591   0.6522  0.76342     C
C      0.84861   0.3608  0.98042     C
C      0.85083   0.4146  0.01506     C
H       0.8545   0.5065    0.477     H
C      0.85475   0.6348   0.8501     C
O      0.85625   0.9407   0.7435     O
C      0.85907   0.9861  0.48214     C
N      0.86024   0.8257  0.03648     N
C      0.86058   0.6279  0.89676     C
H       0.8645   0.8811   0.9878     H
C      0.86522   0.2402  0.33884     C
F      0.86536   0.7349  0.27892     F
O      0.86631   0.3097  0.34602     O
C      0.86643   0.4187  0.24546     C
F        0.868   0.9565   0.2836     F
C      0.86819   0.1392  0.01958     C
C      0.86934    0.119  0.78768     C
C      0.87276   0.6215  0.98272     C
O      0.87306   0.0293  0.97292     O
H       0.8734   0.3739   0.2598     H
F      0.87437    0.234  0.92574     F
F       0.8747   0.2159   0.2664     F
H       0.8758   0.0134    0.546     H
H       0.8761   0.7865   0.0934     H
C      0.87651    0.311  0.65882     C
H       0.8766   0.0892   0.8486     H
H       0.8767   0.6189   0.0122     H
C       0.8782   0.6704    0.293     C
C      0.88698   0.3441  0.17856     C
O      0.88725   0.4407   0.7435     O
H       0.8879   0.4609   0.2664     H
C      0.89004   0.8785  0.01728     C
H       0.8921   0.1583   0.7344     H
C       0.8938    0.299   0.9166     C
H       0.8964   0.3004    0.194     H
C      0.89669   0.8229  0.07918     C
H       0.8985   0.8174   0.1638     H
O      0.90014   0.4707  0.02708     O
Cu     0.90037  0.47612  0.68938    Cu
Cu     0.90163  0.36467  0.41424    Cu
H        0.902   0.1392   0.3576     H
C      0.90249   0.3638  0.95158     C
O      0.90367   0.0198  0.67874     O
F        0.905   0.8442   0.5566     F
F        0.906   0.4168   0.8266     F
C      0.90621   0.4851  0.18862     C
C      0.90798   0.1899  0.36736     C
C      0.90878   0.1108  0.83176     C
C      0.90989   0.5752  0.92018     C
N      0.91045   0.5184   0.6335     N
N      0.91657   0.5721  0.96314     N
F        0.917   0.7559   0.6612     F
C      0.91751   0.1522  0.76342     C
C      0.91834    0.619  0.78768     C
C      0.91891   0.4134  0.21042     C
H        0.919   0.9826   0.4834     H
H       0.9193   0.3405   0.1564     H
C      0.91981   0.5718  0.55802     C
F       0.9206   0.9168   0.8266     F
H       0.9227   0.5926   0.5328     H
C      0.92298   0.6108  0.83176     C
H       0.9269   0.5268     0.21     H
F       0.9276   0.9954    0.346     F
F      0.92979   0.8014  0.89578     F
H        0.939   0.4835   0.1666     H
C      0.93921   0.9387  0.75622     C
H       0.9396   0.5405   0.9058     H
H       0.9403    0.039   0.2488     H
F       0.9434   0.1907    0.118     F
F      0.94863    0.266  0.07426     F
F       0.9487   0.0819   0.1814     F
C      0.94903   0.9574  0.31406     C
C      0.95091   0.1362  0.04842     C
N      0.95343   0.9279  0.03686     N
C        0.957   0.8328   0.1754     C
C      0.95819   0.2106  0.40878     C
O      0.95855    0.412   0.9509     O
F       0.9608    0.888   0.3196     F
O       0.9622   0.5809   0.7252     O
C      0.96382   0.8721  0.10324     C
C      0.96528   0.2979  0.67756     C
F      0.96599   0.3014  0.89578     F
H       0.9662   0.0405   0.9058     H
C       0.9666   0.8965   0.7966     C
H        0.967   0.8009    0.235     H
H       0.9712   0.4369   0.3458     H
H        0.972   0.5892   0.8486     H
O      0.97223   0.2752  0.42846     O
C      0.97225   0.6462   0.3073     C
F       0.9731   0.8284   0.7868     F
C       0.9772    0.201   0.0834     C
F       0.9787   0.0813   0.4202     F
C       0.9795   0.0073   0.7014     C
O      0.98118   0.5765  0.30496     O
C      0.98147   0.5555  0.62974     C
H       0.9826   0.2487   0.6798     H
N      0.98601    0.594  0.76742     N
N      0.98904   0.5823  0.59348     N
C      0.98971   0.9248  0.07982     C
O      0.99235    0.912   0.9509     O
C      0.99427   0.8487  0.56514     C
F      0.99505   0.1566   0.4761     F
C      0.99535   0.1348   0.8501     C
C      0.99821    0.824  0.21822     C
C      0.99956   0.0323  0.26172     C
