data_I
_chemical_name_common  '/home/zhangsd/repos/MofS-CGCNN/ML/data/SSD/clean_cifs/FAHBIC_clean'
_cell_length_a  8.73830
_cell_length_b 18.16040
_cell_length_c  6.70720
_cell_angle_alpha 90.00000
_cell_angle_beta  90.00000
_cell_angle_gamma 90.00000
_space_group_name_H-M_alt      'P 1'


loop_
_space_group_symop_operation_xyz
  'x, y, z' 

loop_
_atom_site_label
_atom_site_fract_x
_atom_site_fract_y
_atom_site_fract_z
_atom_site_type_symbol
O       0.0061  0.92954    0.262     O
C       0.0133   0.2467   0.8431     C
C        0.016   0.5041   0.6625     C
C       0.0289  0.02193   0.6467     C
O       0.0302  0.43759   0.0925     O
H        0.054   0.0017   0.0879     H
H       0.0553   0.5338   0.1704     H
O      0.05826  0.30829   0.8978     O
H       0.0705   0.2221   0.7472     H
O      0.10311  0.78412   0.4082     O
O       0.1459  0.48966   0.7238     O
O       0.1541  0.99832   0.5936     O
O       0.2215   0.8459   0.7373     O
C       0.2381  0.87781   0.9018     C
H       0.2392    0.929   0.8996     H
Dy     0.24415  0.89446  0.40591    Dy
O        0.247   0.3482   0.5656     O
O        0.253   0.8482   0.0656     O
Dy     0.25585  0.39446  0.90591    Dy
H       0.2608    0.429   0.3996     H
C       0.2619  0.37781   0.4018     C
O       0.2785   0.3459   0.2373     O
O       0.3459  0.49832   0.0936     O
O       0.3541  0.98966   0.2238     O
O      0.39689  0.28412   0.9082     O
H       0.4295   0.7221   0.2472     H
O      0.44174  0.80829   0.3978     O
H       0.4447   0.0338   0.6704     H
H        0.446   0.5017   0.5879     H
O       0.4698  0.93759   0.5925     O
C       0.4711  0.52193   0.1467     C
C        0.484   0.0041   0.1625     C
C       0.4867   0.7467   0.3431     C
O       0.4939  0.42954    0.762     O
O       0.5061  0.57046    0.262     O
C       0.5133   0.2533   0.8431     C
C        0.516   0.9959   0.6625     C
C       0.5289  0.47807   0.6467     C
O       0.5302  0.06241   0.0925     O
H        0.554   0.4983   0.0879     H
H       0.5553   0.9662   0.1704     H
O      0.55826  0.19171   0.8978     O
H       0.5705   0.2779   0.7472     H
O      0.60311  0.71588   0.4082     O
O       0.6459  0.01034   0.7238     O
O       0.6541  0.50168   0.5936     O
O       0.7215   0.6541   0.7373     O
C       0.7381  0.62219   0.9018     C
H       0.7392    0.571   0.8996     H
Dy     0.74415  0.60554  0.40591    Dy
O        0.747   0.1518   0.5656     O
O        0.753   0.6518   0.0656     O
Dy     0.75585  0.10554  0.90591    Dy
H       0.7608    0.071   0.3996     H
C       0.7619  0.12219   0.4018     C
O       0.7785   0.1541   0.2373     O
O       0.8459  0.00168   0.0936     O
O       0.8541  0.51034   0.2238     O
O      0.89689  0.21588   0.9082     O
H       0.9295   0.7779   0.2472     H
O      0.94174  0.69171   0.3978     O
H       0.9447   0.4662   0.6704     H
H        0.946   0.9983   0.5879     H
O       0.9698  0.56241   0.5925     O
C       0.9711  0.97807   0.1467     C
C        0.984   0.4959   0.1625     C
C       0.9867   0.7533   0.3431     C
O       0.9939  0.07046    0.762     O
