data_I
_chemical_name_common  '/home/zhangsd/repos/MofS-CGCNN/ML/data/SSD/clean_cifs/FALQOA_clean'
_cell_length_a  7.38170
_cell_length_b 13.63190
_cell_length_c 13.63190
_cell_angle_alpha 120.00000
_cell_angle_beta  90.00000
_cell_angle_gamma 90.00000
_space_group_name_H-M_alt      'P 1'


loop_
_space_group_symop_operation_xyz
  'x, y, z' 

loop_
_atom_site_label
_atom_site_fract_x
_atom_site_fract_y
_atom_site_fract_z
_atom_site_type_symbol
Cu         0.0      0.0      0.5    Cu
Cu         0.0      0.5      0.0    Cu
Cu         0.0      0.5      0.5    Cu
H       0.0026   0.0015   0.2097     H
H       0.0026   0.2082   0.9985     H
H       0.0026   0.7903   0.7918     H
C       0.0353   0.0902   0.7383     C
C       0.0353   0.2617   0.3519     C
C       0.0353   0.6481   0.9098     C
H       0.0479   0.3492   0.1448     H
H       0.0479   0.7956   0.6508     H
H       0.0479   0.8552   0.2044     H
C        0.084   0.0531   0.7946     C
C        0.084   0.2054   0.2585     C
C        0.084   0.7415   0.9469     C
H       0.0946   0.1132   0.8717     H
H       0.0946   0.1283   0.2415     H
H       0.0946   0.7585   0.8868     H
N        0.106  0.38732  0.03706     N
N        0.106  0.64974  0.61268     N
N        0.106  0.96294  0.35026     N
O       0.1211  0.18181  0.63414     O
O       0.1211  0.36586  0.54767     O
O       0.1211  0.45233  0.81819     O
C       0.1383   0.1795   0.7243     C
C       0.1383   0.2757   0.4552     C
C       0.1383   0.5448   0.8205     C
H       0.1398   0.0291   0.3543     H
H       0.1398   0.3252   0.9709     H
H       0.1398   0.6457   0.6748     H
H       0.1995   0.0172   0.7682     H
H       0.1995   0.2318    0.249     H
H       0.1995    0.751   0.9828     H
O       0.2127  0.48572  0.40707     O
O       0.2127  0.59293  0.07865     O
O       0.2127  0.92135  0.51428     O
H       0.2334   0.4517   0.1822     H
H       0.2334   0.7305   0.5483     H
H       0.2334   0.8178   0.2695     H
O       0.2428  0.19966  0.44439     O
O       0.2428  0.24473  0.80034     O
O       0.2428  0.55561  0.75527     O
C         0.27    0.436   0.1066     C
C         0.27   0.6706    0.564     C
C         0.27   0.8934   0.3294     C
C       0.3157   0.5515    0.123     C
C       0.3157   0.5715   0.4485     C
C       0.3157    0.877   0.4285     C
Nd     0.33992  0.33333  0.66666    Nd
H       0.3576   0.2805   0.0661     H
H       0.3576   0.7856   0.7195     H
H       0.3576   0.9339   0.2144     H
C       0.4105   0.3477   0.0724     C
C       0.4105   0.7247   0.6523     C
C       0.4105   0.9276   0.2753     C
O       0.4504   0.5804   0.3993     O
O       0.4504   0.6007   0.1811     O
O       0.4504   0.8189   0.4196     O
H       0.4603   0.3309   0.0006     H
H       0.4603   0.6697   0.6691     H
H       0.4603   0.9994   0.3303     H
H       0.4951   0.1283   0.7538     H
H       0.4951   0.2462   0.3745     H
H       0.4951   0.6255   0.8717     H
H       0.5049   0.3745   0.1283     H
H       0.5049   0.7538   0.6255     H
H       0.5049   0.8717   0.2462     H
H       0.5397   0.0006   0.6697     H
H       0.5397   0.3303   0.3309     H
H       0.5397   0.6691   0.9994     H
O       0.5496   0.1811   0.5804     O
O       0.5496   0.3993   0.8189     O
O       0.5496   0.4196   0.6007     O
C       0.5895   0.0724   0.7247     C
C       0.5895   0.2753   0.3477     C
C       0.5895   0.6523   0.9276     C
H       0.6424   0.0661   0.7856     H
H       0.6424   0.2144   0.2805     H
H       0.6424   0.7195   0.9339     H
Nd     0.66008  0.66667  0.33334    Nd
C       0.6843    0.123   0.5715     C
C       0.6843   0.4285   0.5515     C
C       0.6843   0.4485    0.877     C
C         0.73   0.1066   0.6706     C
C         0.73   0.3294    0.436     C
C         0.73    0.564   0.8934     C
O       0.7572  0.44439  0.24473     O
O       0.7572  0.75527  0.19966     O
O       0.7572  0.80034  0.55561     O
H       0.7666   0.1822   0.7305     H
H       0.7666   0.2695   0.4517     H
H       0.7666   0.5483   0.8178     H
O       0.7873  0.07865  0.48572     O
O       0.7873  0.40707  0.92135     O
O       0.7873  0.51428  0.59293     O
H       0.8005    0.249   0.0172     H
H       0.8005   0.7682    0.751     H
H       0.8005   0.9828   0.2318     H
H       0.8602   0.3543   0.3252     H
H       0.8602   0.6748   0.0291     H
H       0.8602   0.9709   0.6457     H
C       0.8617   0.4552   0.1795     C
C       0.8617   0.7243   0.5448     C
C       0.8617   0.8205   0.2757     C
O       0.8789  0.54767  0.18181     O
O       0.8789  0.63414  0.45233     O
O       0.8789  0.81819  0.36586     O
N        0.894  0.03706  0.64974     N
N        0.894  0.35026  0.38732     N
N        0.894  0.61268  0.96294     N
H       0.9054   0.2415   0.1132     H
H       0.9054   0.8717   0.7585     H
H       0.9054   0.8868   0.1283     H
C        0.916   0.2585   0.0531     C
C        0.916   0.7946   0.7415     C
C        0.916   0.9469   0.2054     C
H       0.9521   0.1448   0.7956     H
H       0.9521   0.2044   0.3492     H
H       0.9521   0.6508   0.8552     H
C       0.9647   0.3519   0.0902     C
C       0.9647   0.7383   0.6481     C
C       0.9647   0.9098   0.2617     C
H       0.9974   0.2097   0.2082     H
H       0.9974   0.7918   0.0015     H
H       0.9974   0.9985   0.7903     H
