data_I
_chemical_name_common  '/home/zhangsd/repos/MofS-CGCNN/ML/data/SSD/clean_cifs/FAWCEN_SL'
_cell_length_a 14.59330
_cell_length_b 14.59330
_cell_length_c 14.59330
_cell_angle_alpha 109.47120
_cell_angle_beta  109.47120
_cell_angle_gamma 109.47120
_space_group_name_H-M_alt      'P 1'


loop_
_space_group_symop_operation_xyz
  'x, y, z' 

loop_
_atom_site_label
_atom_site_fract_x
_atom_site_fract_y
_atom_site_fract_z
_atom_site_type_symbol
C         -0.0   0.3154   0.5124     C
C         -0.0   0.3707   0.6187     C
C          0.0   0.5124   0.3154     C
C          0.0   0.6187   0.3707     C
H      0.00833  0.37236  0.47435     H
H      0.02247  0.48183   0.3776     H
C       0.0564   0.4812   0.7928     C
C       0.0564   0.7928   0.4812     C
H      0.06442  0.52815   0.2865     H
H      0.07362   0.2993   0.5309     H
N       0.0944   0.4474   0.7184     N
N       0.0944   0.7184   0.4474     N
H       0.1018   0.5341   0.8689     H
H       0.1018   0.8689   0.5341     H
H       0.1021  0.62708  0.63671     H
H       0.1311   0.2329   0.6652     H
H       0.1311   0.6652   0.2329     H
C        0.197   0.6846   0.6846     C
C       0.2072   0.2636   0.6884     C
C       0.2072   0.6884   0.2636     C
H      0.21734  0.76713  0.68464     H
H      0.22635  0.45641  0.92522     H
H      0.23226  0.91805  0.45068     H
H      0.23256  0.70187  0.77473     H
H       0.2329   0.1311   0.6652     H
H       0.2329   0.6652   0.1311     H
C        0.248   0.6293   0.6293     C
Zn        0.25      0.5     0.75    Zn
Zn        0.25     0.75      0.5    Zn
C       0.2636   0.2072   0.6884     C
C       0.2636   0.6884   0.2072     C
N        0.271   0.5526    0.647     N
N        0.271    0.647   0.5526     N
N       0.2816    0.376    0.729     N
N       0.2816    0.729    0.376     N
H       0.2993  0.07362   0.5309     H
C       0.3116   0.5188   0.5752     C
C       0.3116   0.5752   0.5188     C
H      0.31239   0.5325  0.08107     H
C       0.3154      0.0   0.5124     C
C       0.3154   0.5124     -0.0     C
H       0.3348   0.4659   0.5677     H
H       0.3348   0.5677   0.4659     H
N        0.353    0.624   0.9056     N
N        0.353   0.9056    0.624     N
H      0.36518  0.46701  0.99371     H
C       0.3707      0.0   0.6187     C
C       0.3707   0.6187     -0.0     C
H      0.37236  0.00833  0.47435     H
N        0.376   0.2816    0.729     N
N        0.376    0.729   0.2816     N
C       0.3813   0.3813    0.752     C
C       0.3813    0.752   0.3813     C
C       0.4248   0.7364   0.9436     C
C       0.4248   0.9436   0.7364     C
H       0.4323   0.7671   0.8982     H
H       0.4323   0.8982   0.7671     H
H      0.44594  0.91311  0.23982     H
N       0.4474   0.0944   0.7184     N
N       0.4474   0.7184   0.0944     N
H      0.45641  0.22635  0.92522     H
H       0.4659   0.3348   0.5677     H
H       0.4659   0.5677   0.3348     H
H      0.46701  0.36518  0.99371     H
H      0.46959  0.55979    0.816     H
H      0.47156  0.82518   0.5612     H
C       0.4812   0.0564   0.7928     C
C       0.4812   0.7928   0.0564     C
H      0.48183  0.02247   0.3776     H
C       0.4876   0.4876    0.803     C
C       0.4876    0.803   0.4876     C
Zn         0.5     0.25     0.75    Zn
Zn         0.5     0.75     0.25    Zn
C       0.5124     -0.0   0.3154     C
C       0.5124   0.3154     -0.0     C
C       0.5188   0.3116   0.5752     C
C       0.5188   0.5752   0.3116     C
H      0.51883  0.74052  0.48272     H
H      0.52409  0.47899  0.74466     H
H      0.52815  0.06442   0.2865     H
H       0.5325  0.31239  0.08107     H
H       0.5341   0.1018   0.8689     H
H       0.5341   0.8689   0.1018     H
H       0.5504   0.5053  0.88733     H
N       0.5526    0.271    0.647     N
N       0.5526    0.647    0.271     N
H      0.55368   0.8823  0.50015     H
H       0.5677   0.3348   0.4659     H
H       0.5677   0.4659   0.3348     H
C       0.5752   0.3116   0.5188     C
C       0.5752   0.5188   0.3116     C
C       0.6187     -0.0   0.3707     C
C       0.6187   0.3707      0.0     C
N        0.624    0.353   0.9056     N
N        0.624   0.9056    0.353     N
H      0.62708   0.1021  0.63671     H
C       0.6293    0.248   0.6293     C
C       0.6293   0.6293    0.248     C
N        0.647    0.271   0.5526     N
N        0.647   0.5526    0.271     N
H      0.65359   0.7438    0.184     H
H      0.66306  0.61796  0.11267     H
H       0.6652   0.1311   0.2329     H
H       0.6652   0.2329   0.1311     H
C       0.6846    0.197   0.6846     C
C       0.6846   0.6846    0.197     C
C       0.6884   0.2072   0.2636     C
C       0.6884   0.2636   0.2072     C
H      0.70187  0.23256  0.77473     H
N       0.7184   0.0944   0.4474     N
N       0.7184   0.4474   0.0944     N
N        0.729   0.2816    0.376     N
N        0.729    0.376   0.2816     N
C       0.7364   0.4248   0.9436     C
C       0.7364   0.9436   0.4248     C
H      0.74052  0.51883  0.48272     H
Zn        0.75     0.25      0.5    Zn
Zn        0.75      0.5     0.25    Zn
C        0.752   0.3813   0.3813     C
H       0.7671   0.4323   0.8982     H
H       0.7671   0.8982   0.4323     H
H      0.76713  0.21734  0.68464     H
H      0.77943  0.73432  0.25534     H
C       0.7928   0.0564   0.4812     C
C       0.7928   0.4812   0.0564     C
C        0.803   0.4876   0.4876     C
H      0.82518  0.47156   0.5612     H
H       0.8689   0.1018   0.5341     H
H       0.8689   0.5341   0.1018     H
H       0.8823  0.55368  0.50015     H
H       0.8982   0.4323   0.7671     H
H       0.8982   0.7671   0.4323     H
N       0.9056    0.353    0.624     N
N       0.9056    0.624    0.353     N
H      0.91311  0.44594  0.23982     H
H      0.91805  0.23226  0.45068     H
C       0.9436   0.4248   0.7364     C
C       0.9436   0.7364   0.4248     C
