data_I
_chemical_name_common  '/home/zhangsd/repos/MofS-CGCNN/ML/data/SSD/clean_cifs/FAWCEN03_SL'
_cell_length_a 14.73070
_cell_length_b 14.73070
_cell_length_c 14.73070
_cell_angle_alpha 109.47100
_cell_angle_beta  109.47100
_cell_angle_gamma 109.47100
_space_group_name_H-M_alt      'P 1'


loop_
_space_group_symop_operation_xyz
  'x, y, z' 

loop_
_atom_site_label
_atom_site_fract_x
_atom_site_fract_y
_atom_site_fract_z
_atom_site_type_symbol
C         -0.0   0.3179   0.5077     C
C         -0.0   0.3681   0.6147     C
C         -0.0   0.6147   0.3681     C
H      0.02357  0.50305  0.25087     H
H      0.03764  0.26185  0.50945     H
H      0.05137  0.38696  0.49727     H
C       0.0551   0.4678   0.7873     C
C       0.0551   0.7873   0.4678     C
H      0.06286  0.50421  0.38534     H
N       0.0923   0.4405   0.7136     N
N       0.0923   0.7136   0.4405     N
H      0.10249  0.52632  0.88103     H
H      0.10249  0.88103  0.52632     H
H      0.11897  0.22146  0.64529     H
H      0.11897  0.64529  0.22146     H
H      0.13039  0.61918  0.69286     H
H      0.14112  0.70558  0.62494     H
C       0.1898   0.6821   0.6821     C
C       0.2127   0.2678   0.6805     C
C       0.2127   0.6805   0.2678     C
H      0.22146  0.11897  0.64529     H
H      0.22146  0.64529  0.11897     H
H      0.23779  0.00222  0.49276     H
C       0.2466   0.6319   0.6319     C
Zn        0.25      0.5     0.75    Zn
Zn        0.25     0.75      0.5    Zn
H      0.25476  0.75966  0.76661     H
H      0.25881  0.43623  0.91067     H
C       0.2678   0.2127   0.6805     C
C       0.2678   0.6805   0.2127     C
H      0.27002  0.51334  0.04661     H
N       0.2731   0.5595   0.6518     N
N       0.2731   0.6518   0.5595     N
N       0.2864   0.3787   0.7269     N
N       0.2864   0.7269   0.3787     N
H      0.29874  0.92152   0.4361     H
C       0.3179      0.0   0.5077     C
C       0.3179   0.5077      0.0     C
C       0.3195   0.5322   0.5873     C
C       0.3195   0.5873   0.5322     C
N       0.3482   0.6213   0.9077     N
N       0.3482   0.9077   0.6213     N
H      0.35471  0.47368  0.57617     H
H      0.35471  0.57617  0.47368     H
C       0.3681      0.0   0.6147     C
C       0.3681   0.6147      0.0     C
N       0.3787   0.2864   0.7269     N
N       0.3787   0.7269   0.2864     N
H      0.37906  0.07625  0.51299     H
C       0.3853   0.3853   0.7534     C
C       0.3853   0.7534   0.3853     C
H      0.38675  0.49229  0.04272     H
C       0.4127   0.7322   0.9449     C
C       0.4127   0.9449   0.7322     C
H      0.42383  0.77854  0.89751     H
H      0.42383  0.89751  0.77854     H
H      0.43465   0.9144  0.28207     H
H      0.43817  0.31019  0.92826     H
N       0.4405   0.0923   0.7136     N
N       0.4405   0.7136   0.0923     N
C       0.4678   0.0551   0.7873     C
C       0.4678   0.7873   0.0551     C
H      0.47368  0.35471  0.57617     H
H      0.47368  0.57617  0.35471     H
H      0.48276  0.85618  0.56477     H
H      0.48645  0.23197  0.98973     H
C       0.4923   0.4923   0.8102     C
C       0.4923   0.8102   0.4923     C
H      0.49444  0.55946  0.87917     H
H      0.49835  0.51893  0.74714     H
Zn         0.5     0.25     0.75    Zn
Zn         0.5     0.75     0.25    Zn
H      0.50165  0.02058  0.24879     H
H      0.50556  0.06502  0.38472     H
C       0.5077     -0.0   0.3179     C
C       0.5077   0.3179      0.0     C
H      0.51355  0.74553  0.50329     H
H      0.51724  0.37342  0.08201     H
H      0.52632  0.10249  0.88103     H
H      0.52632  0.88103  0.10249     H
C       0.5322   0.3195   0.5873     C
C       0.5322   0.5873   0.3195     C
N       0.5595   0.2731   0.6518     N
N       0.5595   0.6518   0.2731     N
H      0.56183  0.87202  0.49009     H
H      0.56535  0.47975  0.84742     H
H      0.57617  0.35471  0.47368     H
H      0.57617  0.47368  0.35471     H
C       0.5873   0.3195   0.5322     C
C       0.5873   0.5322   0.3195     C
H      0.61325  0.10553  0.65597     H
C       0.6147      0.0   0.3681     C
C       0.6147   0.3681      0.0     C
H      0.62094   0.6972  0.13394     H
N       0.6213   0.3482   0.9077     N
N       0.6213   0.9077   0.3482     N
C       0.6319   0.2466   0.6319     C
C       0.6319   0.6319   0.2466     C
H      0.64529  0.11897  0.22146     H
H      0.64529  0.22146  0.11897     H
N       0.6518   0.2731   0.5595     N
N       0.6518   0.5595   0.2731     N
C       0.6805   0.2127   0.2678     C
C       0.6805   0.2678   0.2127     C
C       0.6821   0.1898   0.6821     C
C       0.6821   0.6821   0.1898     C
H      0.70126  0.62278  0.13736     H
N       0.7136   0.0923   0.4405     N
N       0.7136   0.4405   0.0923     N
N       0.7269   0.2864   0.3787     N
N       0.7269   0.3787   0.2864     N
H      0.72997  0.24331  0.77659     H
C       0.7322   0.4127   0.9449     C
C       0.7322   0.9449   0.4127     C
H       0.7412  0.17743  0.65186     H
H      0.74524   0.5049  0.51186     H
Zn        0.75     0.25      0.5    Zn
Zn        0.75      0.5     0.25    Zn
C       0.7534   0.3853   0.3853     C
H      0.76221  0.76443  0.25497     H
H      0.77854  0.42383  0.89751     H
H      0.77854  0.89751  0.42383     H
C       0.7873   0.0551   0.4678     C
C       0.7873   0.4678   0.0551     C
C       0.8102   0.4923   0.4923     C
H      0.85888  0.56445  0.48382     H
H      0.86961  0.48879  0.56246     H
H      0.88103  0.10249  0.52632     H
H      0.88103  0.52632  0.10249     H
H      0.89751  0.42383  0.77854     H
H      0.89751  0.77854  0.42383     H
N       0.9077   0.3482   0.6213     N
N       0.9077   0.6213   0.3482     N
H      0.91099  0.26677  0.43514     H
H      0.91357   0.4346  0.27938     H
C       0.9449   0.4127   0.7322     C
C       0.9449   0.7322   0.4127     C
C          1.0   0.5077   0.3179     C
