data_I
_chemical_name_common  '/home/zhangsd/repos/MofS-CGCNN/ML/data/SSD/clean_cifs/FIFNUE_clean'
_cell_length_a  8.13090
_cell_length_b 10.51080
_cell_length_c 11.41940
_cell_angle_alpha 62.59900
_cell_angle_beta  84.40850
_cell_angle_gamma 77.77700
_space_group_name_H-M_alt      'P 1'


loop_
_space_group_symop_operation_xyz
  'x, y, z' 

loop_
_atom_site_label
_atom_site_fract_x
_atom_site_fract_y
_atom_site_fract_z
_atom_site_type_symbol
C       0.0137  0.31277  0.69226     C
C       0.0156  0.31599  0.81122     C
H       0.0367   0.3934   0.6162     H
H       0.0381   0.3975   0.8144     H
C        0.046  0.29953  0.07214     C
C       0.0481  0.29541  0.19498     C
H       0.0835   0.3747   0.9986     H
H       0.0878   0.3689    0.201     H
O       0.1388  0.98769  0.59502     O
H       0.2024   0.9359   0.4584     H
C       0.2253  0.91143  0.54514     C
O       0.3405  0.80461  0.60338     O
H       0.3986   0.1788     0.83     H
H       0.4055   0.3781    0.635     H
H        0.419   0.7929    0.216     H
H        0.423   0.9867   0.0112     H
C       0.4371  0.25762  0.82676     C
C       0.4419  0.37768  0.70984     C
C       0.4457  0.87771  0.20958     C
C       0.4467  0.99463  0.08534     C
N       0.4808  0.87971  0.32038     N
C       0.4832   0.1231   0.0722     C
C        0.489  0.25145   0.9415     C
Co     0.48993  0.68825  0.50758    Co
N       0.4965  0.49661  0.69578     N
C       0.5137  0.00503  0.30774     C
C       0.5156  0.12721  0.18878     C
H       0.5367   0.0096   0.3838     H
H       0.5381   0.2119   0.1856     H
C        0.546  0.37167  0.92786     C
C       0.5481  0.49039  0.80502     C
H       0.5835   0.3733   0.0014     H
H       0.5878   0.5699    0.799     H
O       0.6388  0.58271  0.40498     O
H       0.7024   0.3943   0.5416     H
C       0.7253  0.45657  0.45486     C
O       0.8405  0.40799  0.39662     O
H       0.8986   0.0088     0.17     H
H       0.9055   0.0131    0.365     H
H        0.919   0.0089    0.784     H
H        0.923   0.9979   0.9888     H
C       0.9371  0.08438  0.17324     C
C       0.9419  0.08752  0.29016     C
C       0.9457  0.08729  0.79042     C
C       0.9467  0.07997  0.91466     C
N       0.9808  0.20009  0.67962     N
C       0.9832   0.1953   0.9278     C
C        0.989  0.19295   0.0585     C
Co     0.98993  0.19583  0.49242    Co
N       0.9965  0.19239  0.30422     N
