data_I
_chemical_name_common  '/home/zhangsd/repos/MofS-CGCNN/ML/data/SSD/clean_cifs/FIJDIM12_clean'
_cell_length_a 10.71150
_cell_length_b 13.50900
_cell_length_c 14.39200
_cell_angle_alpha 76.73450
_cell_angle_beta  68.15280
_cell_angle_gamma 66.64310
_space_group_name_H-M_alt      'P 1'


loop_
_space_group_symop_operation_xyz
  'x, y, z' 

loop_
_atom_site_label
_atom_site_fract_x
_atom_site_fract_y
_atom_site_fract_z
_atom_site_type_symbol
C       0.0007   0.0443   0.7937     C
C        0.002   0.0229   0.8997     C
Mn     0.00572  0.96088  0.39062    Mn
C       0.0273   0.5957   0.4693     C
H       0.0459   0.6619   0.4485     H
C       0.0474   0.4256   0.4314     C
C       0.0754   0.5229   0.3997     C
H       0.0798   0.3743   0.3847     H
O      0.08052  0.86616   0.2342     O
O      0.08141  0.97308   0.7347     O
C       0.0923   0.9043   0.0307     C
C       0.0956   0.9256   0.9314     C
O      0.09575  0.89843  0.52447     O
H       0.1563   0.8381   0.0515     H
H       0.1612   0.8743   0.8847     H
C       0.1613   0.5443   0.2937     C
C       0.1673   0.8052    0.496     C
O      0.17125   0.7835    0.414     O
O      0.18088  0.63384   0.2658     O
O      0.18299  0.00812   0.3081     O
H       0.2016    0.187   0.2484     H
O      0.21081  0.47308   0.2347     O
H       0.2288   0.8198   0.6538     H
C       0.2447   0.7185   0.5615     C
C       0.2669   0.7464   0.6396     C
Mn     0.28246     0.75     0.25    Mn
H       0.2843   0.5902   0.4894     H
C       0.2913    0.167   0.1968     C
H       0.2976   0.3198   0.1538     H
C        0.298   0.6101   0.5431     C
C       0.2983   0.9749   0.2405     C
C       0.3449    0.667   0.6968     C
C       0.3471   0.2464   0.1396     C
Mn     0.35722  0.53912  0.10938    Mn
H        0.363    0.687   0.7484     H
O      0.36331  0.87868   0.2167     O
H       0.3639   0.9098   0.0106     H
C       0.3644   0.0591   0.1799     C
O      0.36875   0.7165    0.086     O
C       0.3707   0.5314   0.6034     C
C       0.3966   0.5591   0.6799     C
H       0.4034   0.4574   0.5924     H
C       0.4512   0.8899   0.9569     C
H       0.4532   0.0426   0.9076     H
O      0.45869  0.62132   0.2833     O
C       0.4685   0.6948    0.004     C
C       0.4753   0.2185   0.0615     C
O      0.48135  0.39843  0.02447     O
C       0.4863   0.4749   0.7405     C
C       0.4945   0.0314   0.1034     C
O      0.49921  0.49188   0.1919     O
O      0.50079  0.50812   0.8081     O
C       0.5055   0.9686   0.8966     C
C       0.5137   0.5251   0.2595     C
O      0.51865  0.60157  0.97553     O
C       0.5247   0.7815   0.9385     C
C       0.5315   0.3052    0.996     C
O      0.54131  0.37868   0.7167     O
H       0.5468   0.9574   0.0924     H
C       0.5488   0.1101   0.0431     C
H       0.5966   0.5426   0.4076     H
C       0.6034   0.4409   0.3201     C
C       0.6293   0.4686   0.3966     C
O      0.63125   0.2835    0.914     O
C       0.6356   0.9409   0.8201     C
H       0.6361   0.0902   0.9894     H
O      0.63669  0.12132   0.7833     O
H        0.637    0.313   0.2516     H
Mn     0.64278  0.46088  0.89062    Mn
C       0.6529   0.7536   0.8604     C
C       0.6551    0.333   0.3032     C
C       0.7017   0.0251   0.7595     C
C        0.702   0.3899   0.4569     C
H       0.7024   0.6802   0.8462     H
C       0.7087    0.833   0.8032     C
H       0.7157   0.4098   0.5106     H
Mn     0.71754     0.25     0.75    Mn
C       0.7331   0.2536   0.3604     C
C       0.7553   0.2815   0.4385     C
H       0.7712   0.1802   0.3462     H
O      0.78919  0.52692   0.7653     O
H       0.7984    0.813   0.7516     H
O      0.81701  0.99188   0.6919     O
O      0.81912  0.36616   0.7342     O
O      0.82875   0.2165    0.586     O
C       0.8327   0.1948    0.504     C
C       0.8387   0.4557   0.7063     C
H       0.8388   0.1257   0.1153     H
H       0.8437   0.1619   0.9485     H
O      0.90425  0.10157  0.47553     O
C       0.9044   0.0744   0.0686     C
C       0.9077   0.0957   0.9693     C
O      0.91859  0.02692   0.2653     O
O      0.91948  0.13384   0.7658     O
H       0.9202   0.6257   0.6153     H
C       0.9246   0.4771   0.6003     C
C       0.9526   0.5744   0.5686     C
H       0.9541   0.3381   0.5515     H
C       0.9727   0.4043   0.5307     C
Mn     0.99428  0.03912  0.60938    Mn
C        0.998   0.9771   0.1003     C
C       0.9993   0.9557   0.2063     C
