data_I
_chemical_name_common  '/home/zhangsd/repos/MofS-CGCNN/ML/data/SSD/clean_cifs/FIRNIF_clean'
_cell_length_a 15.68800
_cell_length_b 15.68800
_cell_length_c 18.67800
_cell_angle_alpha 90.00000
_cell_angle_beta  90.00000
_cell_angle_gamma 120.00000
_space_group_name_H-M_alt      'P 1'


loop_
_space_group_symop_operation_xyz
  'x, y, z' 

loop_
_atom_site_label
_atom_site_fract_x
_atom_site_fract_y
_atom_site_fract_z
_atom_site_type_symbol
N          0.0   0.2463  0.16667     N
C          0.0   0.4161  0.16667     C
C          0.0   0.5103  0.16667     C
N          0.0   0.6898  0.16667     N
Ni         0.0  0.82365  0.16667    Ni
H       0.0041   0.8974   0.3182     H
C       0.0162   0.4359  0.70417     C
C       0.0217   0.2858  0.70137     C
C       0.0327    0.309  0.11042     C
O       0.0328   0.1588  0.58497     O
N       0.0334   0.3946   0.1075     N
C       0.0358   0.2112  0.74367     C
C       0.0359   0.6628  0.11287     C
F       0.0392   0.5225  0.73217     F
C       0.0393    0.576  0.10937     C
C       0.0397   0.3715  0.73867     C
H        0.047   0.1496  0.08477     H
H       0.0611   0.7055  0.07407     H
C       0.0643   0.8993  0.31796     C
C       0.0654   0.2772  0.04563     C
H       0.0663   0.3845  0.78457     H
H       0.0669   0.5621  0.07017     H
C       0.0677   0.1906  0.04487     C
N        0.091   0.8698  0.25941     N
H       0.0964   0.3955  0.98467     H
C       0.0965   0.3363  0.98589     C
C       0.1007    0.165  0.98463     C
H       0.1026   0.1067  0.98487     H
H       0.1026    0.953   0.4181     H
H       0.1067   0.1026   0.6818     H
O      0.11918  0.24456   0.7702     O
C       0.1229   0.9323   0.3782     C
O      0.12538  0.88082  0.10353     O
O        0.126   0.9672   0.9183     O
C        0.128   0.3042  0.92707     C
N       0.1302   0.2212  0.92608     N
H       0.1486   0.3436  0.88637     H
H       0.1496    0.047   0.5819     H
O       0.1588   0.0328   0.0817     O
C        0.165   0.1007  0.68204     C
C       0.1754   0.9642    0.077     C
C       0.1762    0.872   0.2604     C
Ni     0.17635  0.17635  0.83333    Ni
C       0.1906   0.0677   0.6218     C
H        0.195   0.8514   0.2197     H
C       0.2112   0.0358    0.923     C
C       0.2118   0.9346  0.37896     C
N       0.2212   0.1302  0.74059     N
C       0.2398   0.9035  0.31922     C
O      0.24456  0.11918  0.89647     O
N       0.2463     -0.0      0.5     N
C       0.2641   0.9783   0.0347     C
C       0.2763   0.9673  0.44375     C
C       0.2772   0.0654  0.62104     C
C       0.2858   0.0217   0.9653     C
H       0.2945   0.3556  0.74073     H
H       0.2991   0.9036    0.318     H
C       0.3042    0.128   0.7396     C
C        0.309   0.0327  0.55625     C
N       0.3102   0.3102  0.83333     N
H       0.3182   0.9337   0.1179     H
C       0.3318   0.9603    0.072     C
C       0.3363   0.0965  0.68078     C
C       0.3372   0.3731  0.77953     C
H       0.3436   0.1486   0.7803     H
H       0.3556   0.2945  0.92593     H
N       0.3612   0.9666  0.44083     N
C       0.3715   0.0397    0.928     C
C       0.3731   0.3372  0.88713     C
H       0.3845   0.0663   0.8821     H
N       0.3946   0.0334  0.55917     N
H       0.3955   0.0964    0.682     H
C       0.4161     -0.0      0.5     C
C       0.4197   0.9838   0.0375     C
C        0.424   0.4633  0.77603     C
C       0.4359   0.0162   0.9625     C
H       0.4379   0.5048  0.73683     H
C       0.4633    0.424  0.89063     C
F       0.4775   0.5167  0.39883     F
F       0.4833   0.9608   0.0655     F
C       0.4897   0.4897  0.83333     C
H       0.4952   0.9331   0.4035     H
H       0.5048   0.4379  0.92983     H
C       0.5103     -0.0      0.5     C
F       0.5167   0.4775  0.26783     F
F       0.5225   0.0392   0.9345     F
C       0.5367   0.9607   0.4427     C
H       0.5621   0.0669   0.5965     H
C       0.5641   0.5803  0.37083     C
C        0.576   0.0393   0.5573     C
C       0.5803   0.5641  0.29583     C
C       0.5839   0.5839  0.83333     C
H       0.6045   0.7009  0.65133     H
N       0.6054   0.6388  0.77416     N
H       0.6155   0.6818  0.45123     H
C       0.6269   0.9641   0.4462     C
C       0.6285   0.6682  0.40533     C
N       0.6388   0.6054   0.8925     N
H       0.6444   0.9389   0.4074     H
H       0.6564    0.805  0.55303     H
C       0.6628   0.0359   0.5538     C
C       0.6637   0.7602  0.65255     C
C       0.6682   0.6285  0.26133     C
H       0.6818   0.6155  0.21543     H
N       0.6898     -0.0      0.5     N
C        0.691   0.7237  0.77708     C
C       0.6958   0.8238  0.59373     C
H       0.7009   0.6045  0.01533     H
H       0.7055   0.0611   0.5926     H
C       0.7142   0.7359  0.36803     C
C       0.7228   0.7882  0.71229     C
C       0.7237    0.691  0.88958     C
C       0.7359   0.7142  0.29863     C
N       0.7537   0.7537  0.83333     N
O      0.75544  0.87462  0.43686     O
C       0.7602   0.6637  0.01411     C
N       0.7788    0.909  0.59274     N
C       0.7882   0.7228  0.95437     C
C       0.7888   0.8246  0.41033     C
H        0.805   0.6564  0.11363     H
C       0.8094   0.8771  0.71153     C
Ni     0.82365     -0.0      0.5    Ni
C       0.8238   0.6958  0.07293     C
C       0.8246   0.7888  0.25633     C
C        0.835   0.9357  0.65129     C
O       0.8412    0.874  0.25163     O
H       0.8504   0.8974  0.75143     H
H       0.8514    0.195  0.44697     H
N       0.8698    0.091  0.40726     N
C        0.872   0.1762  0.40627     C
O        0.874   0.8412  0.41503     O
O      0.87462  0.75544   0.2298     O
C       0.8771   0.8094  0.95513     C
O      0.88082  0.12538  0.56314     O
H       0.8933   0.9959  0.65153     H
H       0.8974   0.0041  0.34847     H
H       0.8974   0.8504  0.91523     H
C       0.8993   0.0643  0.34871     C
C       0.9035   0.2398  0.34745     C
H       0.9036   0.2991  0.34867     H
N        0.909   0.7788  0.07392     N
C       0.9323   0.1229  0.28847     C
H       0.9331   0.4952  0.26317     H
H       0.9337   0.3182  0.54877     H
C       0.9346   0.2118  0.28771     C
C       0.9357    0.835  0.01537     C
H       0.9389   0.6444  0.25927     H
H        0.953   0.1026  0.24857     H
C       0.9603   0.3318  0.59467     C
C       0.9607   0.5367  0.22397     C
F       0.9608   0.4833  0.60117     F
C       0.9641   0.6269  0.22047     C
C       0.9642   0.1754  0.58967     C
N       0.9666   0.3612  0.22584     N
O       0.9672    0.126  0.74837     O
C       0.9673   0.2763  0.22292     C
C       0.9783   0.2641  0.63197     C
C       0.9838   0.4197  0.62917     C
H       0.9959   0.8933  0.01513     H
