data_I
_chemical_name_common  '/home/zhangsd/repos/MofS-CGCNN/ML/data/SSD/clean_cifs/FIRNAX01_clean'
_cell_length_a 15.69800
_cell_length_b 15.69800
_cell_length_c 18.55700
_cell_angle_alpha 90.00000
_cell_angle_beta  90.00000
_cell_angle_gamma 120.00000
_space_group_name_H-M_alt      'P 1'


loop_
_space_group_symop_operation_xyz
  'x, y, z' 

loop_
_atom_site_label
_atom_site_fract_x
_atom_site_fract_y
_atom_site_fract_z
_atom_site_type_symbol
N          0.0   0.2476  0.83333     N
C          0.0   0.4169  0.83333     C
C          0.0   0.5118  0.83333     C
N          0.0   0.6881  0.83333     N
Ni         0.0  0.82207  0.83333    Ni
H       0.0052   0.8963   0.6804     H
C       0.0183   0.2834  0.29853     C
C       0.0218   0.4402   0.2987     C
O       0.0301   0.1557  0.41487     O
C       0.0333   0.3107  0.88857     C
N      0.03504  0.39548  0.89153     N
C       0.0354   0.3684   0.2654     C
C       0.0364   0.2103  0.25619     C
C        0.038   0.6625  0.88817     C
C        0.039   0.5765  0.89003     C
H       0.0407   0.5001   0.2764     H
H       0.0457   0.1503  0.91453     H
H       0.0649   0.7057  0.92683     H
C       0.0652   0.8978  0.68093     C
F       0.0658   0.3921   0.1988     F
H       0.0659   0.5615  0.92933     H
C       0.0684   0.1922  0.95408     C
C       0.0686     0.28  0.95327     C
N      0.08994  0.86699  0.74018     N
C       0.0999   0.3386  0.01419     C
H       0.1003    0.398  0.01573     H
C       0.1022   0.1674  0.01426     C
H       0.1037   0.1089  0.01373     H
H       0.1046   0.9543   0.5812     H
H       0.1089   0.1037   0.3196     H
O      0.12049  0.24403  0.23039     O
O      0.12354  0.87951  0.89706     O
C       0.1238   0.9316  0.62075     C
O       0.1256   0.9699  0.08153     O
C       0.1305   0.3066  0.07255     C
N      0.13301  0.22295  0.07351     N
H       0.1503   0.0457   0.4188     H
H       0.1506   0.3456  0.11373     H
O       0.1557   0.0301  0.91847     O
C       0.1674   0.1022  0.31907     C
C       0.1739   0.9636  0.92286     C
C       0.1761   0.8695  0.73922     C
Ni     0.17793  0.17793  0.16667    Ni
C       0.1922   0.0684  0.37925     C
H        0.195   0.8494   0.7804     H
C       0.2103   0.0364  0.07714     C
C       0.2114   0.9314  0.61994     C
N      0.22295  0.13301  0.25982     N
C       0.2387   0.9001  0.68086     C
O      0.24403  0.12049  0.10294     O
N       0.2476     -0.0      0.5     N
C       0.2651   0.9817   0.9652     C
C       0.2774   0.9667  0.55524     C
C         0.28   0.0686  0.38006     C
C       0.2834   0.0183   0.0348     C
H       0.2943   0.3592  0.26017     H
H       0.2977   0.8997   0.6824     H
C       0.3066   0.1305  0.26078     C
C       0.3107   0.0333  0.44476     C
N       0.3119   0.3119  0.16667     N
F       0.3263   0.9342  0.86547     F
C        0.333   0.9646  0.93207     C
C       0.3375   0.3755  0.22151     C
C       0.3386   0.0999  0.31914     C
H       0.3456   0.1506   0.2196     H
H       0.3592   0.2943  0.07317     H
N      0.36044  0.96496   0.5582     N
C       0.3684   0.0354  0.06793     C
C       0.3755   0.3375  0.11183     C
F       0.3921   0.0658  0.13453     F
N      0.39548  0.03504   0.4418     N
H        0.398   0.1003   0.3176     H
C       0.4169     -0.0      0.5     C
C       0.4184   0.9782  0.96537     C
C       0.4235   0.4625  0.22337     C
H       0.4385   0.5044  0.26267     H
C       0.4402   0.0218  0.03463     C
H       0.4594   0.9593  0.94307     H
C       0.4625   0.4235  0.10997     C
C       0.4882   0.4882  0.16667     C
H       0.4956   0.9341    0.596     H
H       0.4999   0.5406  0.60973     H
H       0.5001   0.0407  0.05693     H
H       0.5044   0.4385  0.07067     H
C       0.5118     -0.0      0.5     C
C       0.5375    0.961   0.5567     C
H       0.5406   0.4999   0.7236     H
C       0.5598   0.5816  0.63203     C
H       0.5615   0.0659    0.404     H
C       0.5765    0.039   0.4433     C
C       0.5816   0.5598   0.7013     C
C       0.5831   0.5831  0.16667     C
H        0.602   0.7023  0.34907     H
N      0.60452  0.63956  0.22487     N
F       0.6079   0.6737  0.53213     F
C       0.6245    0.962  0.55484     C
C       0.6316    0.667  0.59873     C
N      0.63956  0.60452  0.10847     N
H       0.6408   0.9351   0.5935     H
H       0.6544    0.805  0.44707     H
C       0.6614   0.7613  0.34753     C
C       0.6625    0.038  0.44516     C
C        0.667   0.6316   0.7346     C
F       0.6737   0.6079   0.8012     F
N       0.6881     -0.0      0.5     N
C       0.6893   0.7226  0.22191     C
C       0.6934   0.8239  0.40589     C
H       0.7023    0.602  0.98427     H
H       0.7057   0.0649   0.4065     H
C       0.7166   0.7349  0.63186     C
C         0.72   0.7886  0.28661     C
C       0.7226   0.6893  0.11143     C
C       0.7349   0.7166  0.70147     C
N       0.7524   0.7524  0.16667     N
O      0.75597  0.87646  0.56372     O
C       0.7613   0.6614  0.98581     C
N      0.77705  0.91006  0.40685     N
C       0.7886     0.72  0.04673     C
C       0.7897   0.8261  0.58952     C
H        0.805   0.6544  0.88627     H
C       0.8078   0.8762  0.28742     C
Ni     0.82207     -0.0      0.5    Ni
C       0.8239   0.6934  0.92745     C
C       0.8261   0.7897  0.74381     C
C       0.8326   0.9348   0.3476     C
O       0.8443   0.8744   0.7482     O
H       0.8494    0.195  0.55293     H
H       0.8497   0.8954  0.24787     H
N      0.86699  0.08994  0.59315     N
C       0.8695   0.1761  0.59411     C
O       0.8744   0.8443  0.58513     O
C       0.8762   0.8078  0.04592     C
O      0.87646  0.75597  0.76961     O
O      0.87951  0.12354  0.43628     O
H       0.8911   0.9948  0.34707     H
H       0.8954   0.8497  0.08547     H
H       0.8963   0.0052  0.65293     H
C       0.8978   0.0652   0.6524     C
H       0.8997   0.2977  0.65093     H
C       0.9001   0.2387  0.65247     C
N      0.91006  0.77705  0.92649     N
C       0.9314   0.2114  0.71339     C
C       0.9316   0.1238  0.71258     C
H       0.9341   0.4956  0.73733     H
F       0.9342   0.3263  0.46787     F
C       0.9348   0.8326  0.98574     C
H       0.9351   0.6408  0.73983     H
H       0.9543   0.1046  0.75213     H
H       0.9593   0.4594  0.39027     H
C        0.961   0.5375  0.77663     C
C        0.962   0.6245  0.77849     C
C       0.9636   0.1739  0.41048     C
C       0.9646    0.333  0.40127     C
N      0.96496  0.36044  0.77513     N
C       0.9667   0.2774  0.77809     C
O       0.9699   0.1256   0.2518     O
C       0.9782   0.4184  0.36797     C
C       0.9817   0.2651  0.36814     C
H       0.9948   0.8911  0.98627     H
