data_I
_chemical_name_common  '/home/zhangsd/repos/MofS-CGCNN/ML/data/SSD/clean_cifs/FIXVUE_clean'
_cell_length_a 32.74900
_cell_length_b 32.74900
_cell_length_c 32.74900
_cell_angle_alpha 90.00000
_cell_angle_beta  90.00000
_cell_angle_gamma 90.00000
_space_group_name_H-M_alt      'P 1'


loop_
_space_group_symop_operation_xyz
  'x, y, z' 

loop_
_atom_site_label
_atom_site_fract_x
_atom_site_fract_y
_atom_site_fract_z
_atom_site_type_symbol
C       0.0019    0.381   0.8431     C
C       0.0021   0.5369   0.6403     C
C       0.0024   0.6979   0.1075     C
C        0.003    0.672   0.8353     C
Au     0.00343  0.02165  0.15203    Au
Ag     0.00362  0.44299  0.94206    Ag
C       0.0039   0.4017   0.0936     C
O       0.0044   0.7663   0.9875     O
C       0.0045   0.0724   0.2425     C
C       0.0053   0.0355   0.7517     C
O       0.0054   0.1101   0.8475     O
C        0.006   0.8875   0.0191     C
Au     0.00613  0.59969  0.05554    Au
C       0.0063   0.3688   0.4392     C
C       0.0065   0.7058   0.9072     C
O       0.0086   0.0381   0.2619     O
O       0.0092   0.5878   0.1633     O
C       0.0092   0.7003   0.0611     C
Ag     0.00949  0.47605  0.42204    Ag
C         0.01   0.4695   0.6083     C
O       0.0113   0.5696   0.7558     O
Ag     0.01232  0.11674   0.0957    Ag
O       0.0125   0.5044   0.7337     O
N       0.0135   0.3484   0.0172     N
C        0.016   0.4135   0.3205     C
N       0.0172   0.0135   0.3484     N
N       0.0172   0.6365   0.8089     N
O       0.0187   0.8204   0.5579     O
O       0.0188   0.6979   0.3096     O
C       0.0191    0.006   0.8875     C
C       0.0192   0.8177   0.5967     C
S      0.01964  0.64164  0.55291     S
S      0.02139  0.62202  0.90302     S
Au     0.02165  0.15203  0.00343    Au
C       0.0227   0.0756   0.8457     C
C       0.0232   0.6741   0.8773     C
Ag     0.02374  0.53763  0.87372    Ag
Ag     0.02395  0.57796  0.50949    Ag
C       0.0241   0.3187   0.8832     C
Cu     0.02532  0.64517  0.28245    Cu
S        0.026  0.02776  0.93862     S
Cu     0.02664  0.10928  0.71995    Cu
S      0.02756  0.03888  0.43754     S
S      0.02776  0.93862    0.026     S
C       0.0278   0.0887   0.3455     C
O        0.029   0.5908   0.2658     O
C       0.0295   0.2243   0.0887     C
C       0.0302   0.7406   0.0513     C
C       0.0305   0.3917     0.51     C
Cu     0.03124  0.53469  0.17744    Cu
C       0.0317   0.1977   0.4626     C
N       0.0335    0.136    0.212     N
Cu     0.03469  0.32256  0.96876    Cu
C       0.0355   0.7517   0.0053     C
C       0.0364   0.3611    0.869     C
C       0.0369   0.8597   0.9979     C
C       0.0374   0.7248   0.5544     C
C       0.0374   0.9683   0.6977     C
Ag     0.03763  0.62628  0.97626    Ag
O       0.0381   0.2619   0.0086     O
S      0.03888  0.43754  0.02756     S
N       0.0426   0.5509   0.6238     N
S      0.04305  0.65864  0.04575     S
Au     0.04397  0.11043  0.57455    Au
C       0.0443   0.3982   0.0684     C
C       0.0451    0.095   0.2306     C
C       0.0451    0.168   0.6642     C
S      0.04575  0.04305  0.65864     S
C       0.0472    0.356   0.0477     C
C       0.0477   0.0472    0.356     C
Ag      0.0481  0.16736  0.91777    Ag
Cl      0.0499   0.2176   0.8642    Cl
O       0.0506   0.8142   0.6185     O
Cu     0.05067  0.61049   0.6332    Cu
N       0.0509   0.8762   0.9574     N
C       0.0513   0.0302   0.7406     C
S       0.0513  0.39335  0.91206     S
O        0.052   0.1194   0.3436     O
C       0.0528   0.7096   0.3241     C
S      0.05291  0.48036  0.35836     S
S      0.05341  0.61381  0.36326     S
C       0.0544   0.4626   0.2752     C
N       0.0549    0.303    0.914     N
C       0.0554   0.4405   0.3172     C
Au     0.05554  0.00613  0.59969    Au
N        0.057   0.6704   0.6296     N
Ag     0.05701  0.05794  0.50362    Ag
O       0.0575   0.0712    0.829     O
O       0.0579   0.4813   0.1796     O
S      0.05793  0.06534  0.15327     S
Ag     0.05794  0.50362  0.05701    Ag
O       0.0592    0.743   0.3438     O
C       0.0595   0.6828   0.5554     C
C       0.0608   0.9937   0.8688     C
C       0.0611   0.0092   0.7003     C
S      0.06138    0.526  0.47224     S
O        0.062   0.1414   0.6865     O
Au      0.0623  0.57131  0.41875    Au
S      0.06246  0.97244  0.53888     S
O        0.065   0.1938   0.6435     O
S      0.06534  0.15327  0.05793     S
C       0.0684   0.0443   0.3982     C
N       0.0692   0.0725   0.7424     N
C       0.0696   0.6815   0.8689     C
O       0.0696   0.7442   0.9887     O
O       0.0712    0.829   0.0575     O
Au     0.07131  0.08125   0.9377    Au
C        0.072    0.206    0.077     C
C       0.0724   0.2425   0.0045     C
N       0.0725   0.7424   0.0692     N
Ag     0.07415  0.62699  0.10963    Ag
Au     0.07455  0.45603  0.88957    Au
C       0.0748   0.3583   0.8418     C
C       0.0756   0.8457   0.0227     C
O       0.0763   0.3516   0.3523     O
C        0.077    0.072    0.206     C
Ag     0.07796  0.99051  0.97605    Ag
Au     0.08125   0.9377  0.07131    Au
Ag     0.08223   0.5481  0.33264    Ag
C       0.0831   0.4101   0.0946     C
C       0.0844   0.6792   0.5943     C
N        0.086   0.5549    0.197     N
N       0.0861   0.6532   0.2884     N
C       0.0865   0.6795    0.516     C
O       0.0878   0.3367   0.9908     O
S      0.08794   0.5513  0.10665     S
C       0.0887   0.0295   0.2243     C
C       0.0887   0.3455   0.0278     C
C       0.0888    0.678   0.3267     C
C       0.0899   0.9054   0.5831     C
O       0.0908   0.2342    0.971     O
C       0.0912   0.6782    0.405     C
C       0.0928   0.5065   0.7942     C
C       0.0936   0.0039   0.4017     C
C        0.094   0.3865   0.3586     C
C       0.0943   0.4156   0.3208     C
C       0.0946   0.0831   0.4101     C
C        0.095   0.2306   0.0451     C
C        0.095   0.6527   0.3655     C
C        0.095   0.9088   0.1782     C
Ag      0.0957  0.01232  0.11674    Ag
C       0.0967   0.4808   0.1823     C
S      0.09698  0.52139  0.87798     S
C       0.0983   0.9064   0.5039     C
Au     0.09969  0.44446  0.99387    Au
C       0.1008   0.2027    0.115     C
O        0.101   0.6082   0.6081     O
C       0.1018   0.9316   0.5443     C
S      0.10665  0.08794   0.5513     S
C       0.1075   0.0024   0.6979     C
O       0.1081    0.399   0.3918     O
O       0.1082   0.8919    0.899     O
C       0.1083     0.49   0.5305     C
Cu     0.10928  0.71995  0.02664    Cu
Ag     0.10963  0.07415  0.62699    Ag
O       0.1101   0.8475   0.0054     O
Au     0.11043  0.57455  0.04397    Au
Cu     0.11049   0.8668  0.94933    Cu
C       0.1125   0.5191    0.494     C
C       0.1135   0.6414    0.594     C
S      0.11381  0.13674  0.94659     S
C        0.115   0.1008   0.2027     C
Ag     0.11674   0.0957  0.01232    Ag
C       0.1168   0.5241   0.1813     C
O       0.1185   0.4494   0.1858     O
C        0.119   0.1569   0.5019     C
O       0.1194   0.3436    0.052     O
S      0.12202  0.59698  0.97861     S
C       0.1227   0.5232   0.8259     C
N       0.1238   0.4574   0.4491     N
Ag     0.12628  0.52374  0.96237    Ag
Ag     0.12699  0.39037  0.92585    Ag
N       0.1296    0.443   0.3296     N
C       0.1299   0.1328   0.8637     C
C        0.131   0.5364   0.1389     C
C       0.1311   0.5696   0.8185     C
C       0.1312   0.5608   0.5063     C
C       0.1328   0.8637   0.1299     C
Cu      0.1332  0.44933  0.38951    Cu
C       0.1345    0.905   0.1527     C
Cl      0.1358   0.5499   0.2824    Cl
N        0.136    0.212   0.0335     N
C       0.1363   0.6299   0.3672     C
N       0.1365   0.6911   0.9828     N
S      0.13674  0.94659  0.11381     S
C       0.1389    0.131   0.5364     C
C       0.1403   0.4979   0.4631     C
O       0.1414   0.6865    0.062     O
C       0.1414    0.906   0.8865     C
S      0.14164  0.94709  0.98036     S
C       0.1417   0.1582   0.5748     C
O       0.1435    0.435   0.8062     O
C        0.144   0.9523   0.5472     C
Cu     0.14517  0.21755  0.97468    Cu
O       0.1477   0.9237   0.8516     O
O       0.1484   0.6477   0.5763     O
N       0.1516   0.9828   0.5135     N
Au     0.15203  0.00343  0.02165    Au
O       0.1525   0.5054   0.3899     O
C       0.1527   0.1345    0.905     C
N       0.1532   0.2116   0.9139     N
S      0.15327  0.05793  0.06534     S
C       0.1543   0.5227   0.4244     C
C       0.1545   0.9722   0.5887     C
O       0.1562   0.9408    0.243     O
O       0.1564    0.948   0.6194     O
C       0.1569   0.5019    0.119     C
C       0.1582   0.5748   0.1417     C
S      0.15864  0.45425  0.95695     S
O       0.1633   0.0092   0.5878     O
C       0.1642   0.4549    0.832     C
C       0.1647    0.503    0.828     C
Ag     0.16736  0.91777   0.0481    Ag
C        0.168   0.6642   0.0451     C
N       0.1704   0.8704    0.943     N
O        0.171   0.5575   0.4288     O
C        0.172   0.6647    0.997     C
C       0.1733   0.9112    0.178     C
C       0.1741   0.6227   0.9768     C
C       0.1759   0.9472   0.2096     C
Cu     0.17744  0.03124  0.53469    Cu
C        0.178   0.1733   0.9112     C
C       0.1782    0.095   0.9088     C
C       0.1792   0.9057   0.9156     C
C       0.1795    0.984   0.9135     C
O       0.1796   0.0579   0.4813     O
C       0.1813   0.1168   0.5241     C
C       0.1815   0.6311   0.9304     C
C       0.1823   0.0967   0.4808     C
C       0.1828   0.9446   0.9405     C
O       0.1858   0.1185   0.4494     O
O       0.1865    0.438   0.8586     O
O       0.1904   0.9812   0.1979     O
N       0.1911   0.5172   0.8635     N
O       0.1938   0.6435    0.065     O
N        0.197    0.086   0.5549     N
C       0.1977   0.4626   0.0317     C
O       0.1979   0.1904   0.9812     O
C       0.1979   0.3925   0.9976     C
C       0.2003   0.4389   0.9908     C
C       0.2027    0.115   0.1008     C
C       0.2058   0.5928   0.9935     C
C        0.206    0.077    0.072     C
C       0.2096   0.1759   0.9472     C
N       0.2116   0.9139   0.1532     N
N        0.212   0.0335    0.136     N
Cu     0.21755  0.97468  0.14517    Cu
Cl      0.2176   0.8642   0.0499    Cl
Cu     0.21995  0.47336  0.89072    Cu
C       0.2243   0.0887   0.0295     C
C       0.2248   0.9456   0.9626     C
C       0.2306   0.0451    0.095     C
O       0.2337   0.4875   0.4956     O
O       0.2342    0.971   0.0908     O
O       0.2381   0.9914   0.5381     O
C       0.2406   0.4487   0.9698     C
N       0.2424   0.4308   0.9275     N
C       0.2425   0.0045   0.0724     C
O        0.243   0.1562   0.9408     O
O       0.2442   0.5113   0.9304     O
C       0.2483   0.5053   0.4645     C
C       0.2517   0.4947   0.9645     C
O       0.2558   0.4887   0.4304     O
O        0.257   0.8438   0.4408     O
C       0.2575   0.9955   0.5724     C
N       0.2576   0.5692   0.4275     N
C       0.2594   0.5513   0.4698     C
O       0.2619   0.0086   0.0381     O
O       0.2658    0.029   0.5908     O
O       0.2663   0.5125   0.9956     O
C       0.2694   0.9549    0.595     C
C       0.2752   0.0544   0.4626     C
C       0.2757   0.9113   0.5295     C
Cu     0.28005  0.52664  0.39072    Cu
Cl      0.2824   0.1358   0.5499    Cl
Cu     0.28245  0.02532  0.64517    Cu
N        0.288   0.9665    0.636     N
N       0.2884   0.0861   0.6532     N
C       0.2904   0.8241   0.4472     C
C        0.294    0.923    0.572     C
C       0.2942   0.4072   0.4935     C
C       0.2973    0.885   0.6008     C
C       0.2997   0.5611   0.4908     C
C       0.3021   0.6075   0.4976     C
O       0.3021   0.8096   0.4812     O
C       0.3023   0.5374   0.5317     C
N        0.303    0.914   0.0549     N
O       0.3062   0.3565    0.565     O
N       0.3089   0.4828   0.3635     N
O       0.3096   0.0188   0.6979     O
O       0.3135    0.562   0.3586     O
O       0.3142   0.8815   0.9494     O
C       0.3172   0.0554   0.4405     C
C       0.3177   0.9033   0.9808     C
C       0.3185   0.3689   0.4304     C
C       0.3187   0.8832   0.0241     C
O       0.3204   0.9421   0.9813     O
C       0.3205    0.016   0.4135     C
C       0.3208   0.0943   0.4156     C
C       0.3218    0.905   0.4088     C
C        0.322   0.8267   0.4112     C
Cu     0.32256  0.96876  0.03469    Cu
C       0.3241   0.0528   0.7096     C
C       0.3259   0.3773   0.4768     C
C       0.3267   0.0888    0.678     C
C        0.328   0.3353    0.497     C
O        0.329   0.4425   0.9288     O
N       0.3296   0.1296    0.443     N
C        0.332   0.3358   0.5451     C
Ag     0.33264  0.08223   0.5481    Ag
C       0.3353    0.497    0.328     C
C       0.3358   0.5451    0.332     C
O       0.3367   0.9908   0.0878     O
S      0.34136  0.54575  0.45695     S
C       0.3418   0.4252   0.6417     C
C       0.3431   0.4981    0.619     C
O       0.3436    0.052   0.1194     O
O       0.3438   0.0592    0.743     O
C       0.3455   0.0278   0.0887     C
C       0.3457   0.4773   0.9244     C
S      0.34673  0.94207  0.56534     S
N       0.3468   0.7884   0.4139     N
C       0.3473   0.8655    0.405     C
O       0.3475   0.4946   0.8899     O
Au     0.34797  0.99657  0.52165    Au
N       0.3484   0.0172   0.0135     N
O       0.3516   0.3523   0.0763     O
O       0.3523   0.0763   0.3516     O
Cu     0.35483  0.78245  0.47468    Cu
C        0.356   0.0477   0.0472     C
O       0.3565    0.565   0.3062     O
C       0.3583   0.8418   0.0748     C
S      0.35836  0.05291  0.48036     S
C       0.3586    0.094   0.3865     C
O       0.3586   0.3135    0.562     O
C       0.3597   0.5021   0.9631     C
C       0.3611    0.869   0.0364     C
S      0.36326  0.05341  0.61381     S
N       0.3635   0.3089   0.4828     N
C       0.3637   0.3701   0.8672     C
N        0.364    0.788   0.5335     N
Cl      0.3642   0.4501   0.7824    Cl
C       0.3655    0.095   0.6527     C
Cu      0.3668  0.55067  0.88951    Cu
C       0.3672   0.1363   0.6299     C
C       0.3688   0.4392   0.0063     C
C       0.3689   0.4304   0.3185     C
C        0.369   0.4636   0.6389     C
C       0.3701   0.8672   0.3637     C
N       0.3704    0.557   0.8296     N
Ag     0.37301  0.60963  0.42585    Ag
Ag     0.37372  0.47626  0.46237    Ag
N       0.3762   0.5426   0.9491     N
C       0.3773   0.4768   0.3259     C
S      0.37798  0.40302  0.47861     S
O       0.3806   0.6564    0.552     O
C        0.381   0.8431   0.0019     C
O       0.3815   0.5506   0.6858     O
C       0.3832   0.4759   0.6813     C
Ag     0.38326   0.9043  0.51232    Ag
C        0.385   0.8992   0.7027     C
S      0.38619  0.86326  0.44659     S
C       0.3865   0.3586    0.094     C
C       0.3875   0.4809    0.994     C
Cu     0.38951   0.1332  0.44933    Cu
Au     0.38957  0.42545  0.54397    Au
O       0.3899   0.1525   0.5054     O
Ag     0.39037  0.92585  0.12699    Ag
Cu     0.39072  0.28005  0.52664    Cu
C       0.3917     0.51   0.0305     C
O       0.3918   0.1081    0.399     O
O       0.3919    0.601   0.8918     O
C       0.3925   0.9976   0.1979     C
S      0.39335  0.91206   0.0513     S
C       0.3982   0.0684   0.0443     C
O        0.399   0.3918   0.1081     O
C       0.3992   0.7973    0.615     C
Au     0.40031  0.55554  0.49387    Au
C       0.4017   0.0936   0.0039     C
S      0.40302  0.47861  0.37798     S
C       0.4033   0.5192   0.6823     C
Ag      0.4043  0.98768  0.61674    Ag
C        0.405   0.0912   0.6782     C
C        0.405   0.3473   0.8655     C
C        0.405   0.7694   0.5451     C
C       0.4054   0.9169   0.9101     C
C       0.4057   0.5844   0.8208     C
C        0.406   0.6135   0.8586     C
C       0.4064   0.9961   0.9017     C
C       0.4072   0.4935   0.2942     C
C       0.4088   0.3218    0.905     C
O       0.4092   0.7658    0.471     O
C       0.4101   0.0946   0.0831     C
C       0.4112    0.322   0.8267     C
C       0.4113   0.6545   0.5278     C
C       0.4113   0.9705   0.7243     C
S      0.41206   0.4487  0.60665     S
O       0.4122   0.6633   0.4908     O
C       0.4135   0.3205    0.016     C
N       0.4139   0.3468   0.7884     N
N        0.414   0.4451    0.697     N
C       0.4156   0.3208   0.0943     C
C       0.4169   0.5899   0.5946     C
Ag     0.41777   0.4519  0.83264    Ag
Au     0.41875   0.0623  0.57131    Au
Ag     0.42204  0.00949  0.47605    Ag
C        0.423    0.928    0.706     C
O       0.4237   0.6484   0.8523     O
C       0.4244   0.1543   0.5227     C
C       0.4252   0.6417   0.3418     C
Au     0.42545  0.54397  0.38957    Au
Ag     0.42585  0.37301  0.60963    Ag
N       0.4275   0.2576   0.5692     N
C       0.4276   0.7575   0.5045     C
C        0.428    0.794    0.577     C
Au     0.42869  0.91875   0.4377    Au
O       0.4288    0.171   0.5575     O
O       0.4304   0.2558   0.4887     O
C       0.4304   0.3185   0.3689     C
N       0.4308   0.9275   0.2424     N
C       0.4316   0.9557   0.8982     C
S      0.43466  0.84673  0.55793     S
O        0.435   0.8062   0.1435     O
S      0.43754  0.02756  0.03888     S
Au      0.4377  0.42869  0.91875    Au
O        0.438   0.8586   0.1865     O
S      0.43862    0.474  0.97224     S
C       0.4389   0.9908   0.2003     C
C       0.4392   0.0063   0.3688     C
C       0.4405   0.3172   0.0554     C
O       0.4408    0.257   0.8438     O
Ag     0.44206  0.49638  0.55701    Ag
S      0.44207  0.93466  0.65327     S
O       0.4421   0.5187   0.6796     O
O       0.4425   0.9288    0.329     O
Ag     0.44299  0.94206  0.00362    Ag
N        0.443   0.3296   0.1296     N
Au     0.44446  0.99387  0.09969    Au
C       0.4446   0.5595   0.8172     C
N       0.4451    0.697    0.414     N
C       0.4456   0.5374   0.7752     C
S      0.44659  0.38619  0.86326     S
S      0.44709  0.51964  0.85836     S
C       0.4472   0.2904   0.8241     C
O        0.448   0.8806   0.8436     O
S       0.4487  0.60665  0.41206     S
C       0.4487   0.9698   0.2406     C
N       0.4491   0.1238   0.4574     N
Cu     0.44933  0.38951   0.1332    Cu
O       0.4494   0.1858   0.1185     O
Cl      0.4501   0.7824   0.3642    Cl
Ag      0.4519  0.83264  0.41777    Ag
C       0.4523   0.9528    0.856     C
C       0.4528    0.644   0.5477     C
S      0.45425  0.95695  0.15864     S
C       0.4549    0.832   0.1642     C
C       0.4549    0.905   0.7306     C
C       0.4557   0.6018   0.5684     C
Au     0.45603  0.88957  0.07455    Au
S      0.45695  0.34136  0.54575     S
N       0.4574   0.4491   0.1238     N
S      0.46112  0.56246  0.52756     S
O       0.4619   0.7381   0.5086     O
Ag     0.46237  0.37372  0.47626    Ag
C       0.4626   0.0317   0.1977     C
C       0.4626   0.2752   0.0544     C
C       0.4631   0.1403   0.4979     C
C       0.4636   0.6389    0.369     C
C       0.4645   0.2483   0.5053     C
Cu     0.46531  0.67744  0.46876    Cu
N       0.4665    0.864    0.712     N
C       0.4683   0.8023   0.9626     C
Cu     0.46876  0.46531  0.67744    Cu
C       0.4695   0.6083     0.01     C
C       0.4698   0.2594   0.5513     C
C       0.4705   0.7757   0.5887     C
O        0.471   0.4092   0.7658     O
C       0.4722   0.9113   0.8455     C
S      0.47224  0.06138    0.526     S
S      0.47244  0.96112  0.93754     S
Cu     0.47336  0.89072  0.21995    Cu
S        0.474  0.97224  0.43862     S
Cu     0.47468  0.35483  0.78245    Cu
C       0.4759   0.6813   0.3832     C
Ag     0.47605  0.42204  0.00949    Ag
Ag     0.47626  0.46237  0.37372    Ag
C       0.4768   0.3259   0.3773     C
C       0.4773   0.9244   0.3457     C
Au     0.47835  0.84797  0.50343    Au
S      0.47861  0.37798  0.40302     S
S      0.48036  0.35836  0.05291     S
C       0.4808   0.1823   0.0967     C
C       0.4809    0.994   0.3875     C
O       0.4812   0.3021   0.8096     O
O       0.4813   0.1796   0.0579     O
N       0.4828   0.3635   0.3089     N
N       0.4828   0.9865   0.8484     N
C        0.484   0.5865   0.8205     C
N       0.4865   0.6516   0.5172     N
O       0.4875   0.4956   0.2337     O
Ag     0.48768  0.88326   0.5957    Ag
O       0.4887   0.4304   0.2558     O
C         0.49   0.5305   0.1083     C
Ag     0.49051  0.52395  0.92204    Ag
C       0.4908   0.2997   0.5611     C
O       0.4908   0.4122   0.6633     O
O       0.4914   0.9619   0.7619     O
C       0.4935   0.2942   0.4072     C
C       0.4937   0.6312   0.9392     C
Au     0.49387  0.40031  0.55554    Au
C        0.494   0.1125   0.5191     C
O       0.4946   0.8899   0.3475     O
C       0.4947   0.9645   0.2517     C
C       0.4955   0.9276   0.7425     C
O       0.4956   0.2337   0.4875     O
C       0.4961   0.5983   0.5936     C
Ag     0.49638  0.55701  0.44206    Ag
Au     0.49657  0.97835  0.65203    Au
C        0.497    0.328   0.3353     C
C       0.4976   0.3021   0.6075     C
C       0.4979   0.4631   0.1403     C
C       0.4981    0.619   0.3431     C
C       0.5019    0.119   0.1569     C
C       0.5021   0.9631   0.3597     C
C       0.5024   0.8021   0.8925     C
C        0.503    0.828   0.1647     C
Au     0.50343  0.47835  0.84797    Au
Ag     0.50362  0.05701  0.05794    Ag
C       0.5039   0.0983   0.9064     C
O       0.5044   0.7337   0.0125     O
C       0.5045   0.4276   0.7575     C
C       0.5053   0.4645   0.2483     C
O       0.5054   0.3899   0.1525     O
C        0.506   0.6125   0.9809     C
Au     0.50613  0.90031  0.94446    Au
C       0.5063   0.1312   0.5608     C
C       0.5065   0.7942   0.0928     C
O       0.5086   0.4619   0.7381     O
C       0.5092   0.7997   0.9389     C
O       0.5092   0.9122   0.8367     O
Ag     0.50949  0.02395  0.57796    Ag
C         0.51   0.0305   0.3917     C
O       0.5113   0.9304   0.2442     O
Ag     0.51232  0.38326   0.9043    Ag
O       0.5125   0.9956   0.2663     O
N       0.5135   0.1516   0.9828     N
C        0.516   0.0865   0.6795     C
N       0.5172   0.4865   0.6516     N
N       0.5172   0.8635   0.1911     N
O       0.5187   0.6796   0.4421     O
O       0.5188   0.8021   0.6904     O
C       0.5191    0.494   0.1125     C
C       0.5192   0.6823   0.4033     C
S      0.51964  0.85836  0.44709     S
S      0.52139  0.87798  0.09698     S
Au     0.52165  0.34797  0.99657    Au
C       0.5227   0.4244   0.1543     C
C       0.5232   0.8259   0.1227     C
Ag     0.52374  0.96237  0.12628    Ag
Ag     0.52395  0.92204  0.49051    Ag
C       0.5241   0.1813   0.1168     C
Cu     0.52532  0.85483  0.71755    Cu
S        0.526  0.47224  0.06138     S
Cu     0.52664  0.39072  0.28005    Cu
S      0.52756  0.46112  0.56246     S
S      0.52776  0.56138    0.974     S
C       0.5278   0.4113   0.6545     C
O        0.529   0.9092   0.7342     O
C       0.5295   0.2757   0.9113     C
C       0.5302   0.7594   0.9487     C
C       0.5305   0.1083     0.49     C
Cu     0.53124  0.96531  0.82256    Cu
C       0.5317   0.3023   0.5374     C
N       0.5335    0.364    0.788     N
Cu     0.53469  0.17744  0.03124    Cu
C       0.5355   0.7483   0.9947     C
C       0.5364   0.1389    0.131     C
C       0.5369   0.6403   0.0021     C
C       0.5374   0.5317   0.3023     C
C       0.5374   0.7752   0.4456     C
Ag     0.53763  0.87372  0.02374    Ag
O       0.5381   0.2381   0.9914     O
S      0.53888  0.06246  0.97244     S
N       0.5426   0.9491   0.3762     N
S      0.54305  0.84136  0.95425     S
Au     0.54397  0.38957  0.42545    Au
C       0.5443   0.1018   0.9316     C
C       0.5451    0.332   0.3358     C
C       0.5451    0.405   0.7694     C
S      0.54575  0.45695  0.34136     S
C       0.5472    0.144   0.9523     C
C       0.5477   0.4528    0.644     C
Ag      0.5481  0.33264  0.08223    Ag
Cl      0.5499   0.2824   0.1358    Cl
O       0.5506   0.6858   0.3815     O
Cu     0.55067  0.88951   0.3668    Cu
N       0.5509   0.6238   0.0426     N
S       0.5513  0.10665  0.08794     S
C       0.5513   0.4698   0.2594     C
O        0.552   0.3806   0.6564     O
C       0.5528   0.7904   0.6759     C
S      0.55291  0.01964  0.64164     S
S      0.55341  0.88619  0.63674     S
C       0.5544   0.0374   0.7248     C
N       0.5549    0.197    0.086     N
C       0.5554   0.0595   0.6828     C
Au     0.55554  0.49387  0.40031    Au
N        0.557   0.8296   0.3704     N
Ag     0.55701  0.44206  0.49638    Ag
O       0.5575   0.4288    0.171     O
O       0.5579   0.0187   0.8204     O
S      0.55793  0.43466  0.84673     S
Ag     0.55794  0.99638  0.94299    Ag
O       0.5592    0.757   0.6562     O
C       0.5595   0.8172   0.4446     C
C       0.5608   0.5063   0.1312     C
C       0.5611   0.4908   0.2997     C
S      0.56138    0.974  0.52776     S
O        0.562   0.3586   0.3135     O
Au      0.5623  0.92869  0.58125    Au
S      0.56246  0.52756  0.46112     S
O        0.565   0.3062   0.3565     O
S      0.56534  0.34673  0.94207     S
C       0.5684   0.4557   0.6018     C
N       0.5692   0.4275   0.2576     N
O       0.5696   0.7558   0.0113     O
C       0.5696   0.8185   0.1311     C
O       0.5712    0.671   0.9425     O
Au     0.57131  0.41875   0.0623    Au
C        0.572    0.294    0.923     C
C       0.5724   0.2575   0.9955     C
N       0.5725   0.7576   0.9308     N
Ag     0.57415  0.87301  0.89037    Ag
Au     0.57455  0.04397  0.11043    Au
C       0.5748   0.1417   0.1582     C
C       0.5756   0.6543   0.9773     C
O       0.5763   0.1484   0.6477     O
C        0.577    0.428    0.794     C
Ag     0.57796  0.50949  0.02395    Ag
Au     0.58125   0.5623  0.92869    Au
Ag     0.58223   0.9519  0.66736    Ag
C       0.5831   0.0899   0.9054     C
C       0.5844   0.8208   0.4057     C
N        0.586   0.9451    0.803     N
N       0.5861   0.8468   0.7116     N
C       0.5865   0.8205    0.484     C
O       0.5878   0.1633   0.0092     O
S      0.58794   0.9487  0.89335     S
C       0.5887   0.1545   0.9722     C
C       0.5887   0.4705   0.7757     C
C       0.5888    0.822   0.6733     C
C       0.5899   0.5946   0.4169     C
O       0.5908   0.2658    0.029     O
C       0.5912   0.8218    0.595     C
C       0.5928   0.9935   0.2058     C
C       0.5936   0.4961   0.5983     C
C        0.594   0.1135   0.6414     C
C       0.5943   0.0844   0.6792     C
C       0.5946   0.4169   0.5899     C
C        0.595   0.2694   0.9549     C
C        0.595   0.5912   0.8218     C
C        0.595   0.8473   0.6345     C
Ag      0.5957  0.48768  0.88326    Ag
C       0.5967   0.0192   0.8177     C
S      0.59698  0.97861  0.12202     S
C       0.5983   0.5936   0.4961     C
Au     0.59969  0.05554  0.00613    Au
C       0.6008   0.2973    0.885     C
O        0.601   0.8918   0.3919     O
C       0.6018   0.5684   0.4557     C
S      0.60665  0.41206   0.4487     S
C       0.6075   0.4976   0.3021     C
O       0.6081    0.101   0.6082     O
O       0.6082   0.6081    0.101     O
C       0.6083     0.01   0.4695     C
Cu     0.60928  0.78005  0.97336    Cu
Ag     0.60963  0.42585  0.37301    Ag
O       0.6101   0.6525   0.9946     O
Au     0.61043  0.92545  0.95603    Au
Cu     0.61049   0.6332  0.05067    Cu
C       0.6125   0.9809    0.506     C
C       0.6135   0.8586    0.406     C
S      0.61381  0.36326  0.05341     S
C        0.615   0.3992   0.7973     C
Ag     0.61674   0.4043  0.98768    Ag
C       0.6168   0.9759   0.8187     C
O       0.6185   0.0506   0.8142     O
C        0.619   0.3431   0.4981     C
O       0.6194   0.1564    0.948     O
S      0.62202  0.90302  0.02139     S
C       0.6227   0.9768   0.1741     C
N       0.6238   0.0426   0.5509     N
Ag     0.62628  0.97626  0.03763    Ag
Ag     0.62699  0.10963  0.07415    Ag
N       0.6296    0.057   0.6704     N
C       0.6299   0.3672   0.1363     C
C        0.631   0.9636   0.8611     C
C       0.6311   0.9304   0.1815     C
C       0.6312   0.9392   0.4937     C
C       0.6328   0.6363   0.8701     C
Cu      0.6332  0.05067  0.61049    Cu
C       0.6345    0.595   0.8473     C
Cl      0.6358   0.9501   0.7176    Cl
N        0.636    0.288   0.9665     N
C       0.6363   0.8701   0.6328     C
N       0.6365   0.8089   0.0172     N
S      0.63674  0.55341  0.88619     S
C       0.6389    0.369   0.4636     C
C       0.6403   0.0021   0.5369     C
C       0.6414    0.594   0.1135     C
O       0.6414   0.8135    0.938     O
S      0.64164  0.55291  0.01964     S
C       0.6417   0.3418   0.4252     C
O       0.6435    0.065   0.1938     O
C        0.644   0.5477   0.4528     C
Cu     0.64517  0.28245  0.02532    Cu
O       0.6477   0.5763   0.1484     O
O       0.6484   0.8523   0.4237     O
N       0.6516   0.5172   0.4865     N
Au     0.65203  0.49657  0.97835    Au
O       0.6525   0.9946   0.6101     O
C       0.6527   0.3655    0.095     C
N       0.6532   0.2884   0.0861     N
S      0.65327  0.44207  0.93466     S
C       0.6543   0.9773   0.5756     C
C       0.6545   0.5278   0.4113     C
O       0.6562   0.5592    0.757     O
O       0.6564    0.552   0.3806     O
C       0.6569   0.9981    0.881     C
C       0.6582   0.9252   0.8583     C
S      0.65864  0.04575  0.04305     S
O       0.6633   0.4908   0.4122     O
C       0.6642   0.0451    0.168     C
C       0.6647    0.997    0.172     C
Ag     0.66736  0.58223   0.9519    Ag
C        0.668   0.8358   0.9549     C
N       0.6704   0.6296    0.057     N
O        0.671   0.9425   0.5712     O
C        0.672   0.8353    0.003     C
C       0.6733   0.5888    0.822     C
C       0.6741   0.8773   0.0232     C
C       0.6759   0.5528   0.7904     C
Cu     0.67744  0.46876  0.46531    Cu
C        0.678   0.3267   0.0888     C
C       0.6782    0.405   0.0912     C
C       0.6792   0.5943   0.0844     C
C       0.6795    0.516   0.0865     C
O       0.6796   0.4421   0.5187     O
C       0.6813   0.3832   0.4759     C
C       0.6815   0.8689   0.0696     C
C       0.6823   0.4033   0.5192     C
C       0.6828   0.5554   0.0595     C
O       0.6858   0.3815   0.5506     O
O       0.6865    0.062   0.1414     O
O       0.6904   0.5188   0.8021     O
N       0.6911   0.9828   0.1365     N
O       0.6938   0.8565    0.935     O
N        0.697    0.414   0.4451     N
C       0.6977   0.0374   0.9683     C
C       0.6979   0.1075   0.0024     C
O       0.6979   0.3096   0.0188     O
C       0.7003   0.0611   0.0092     C
C       0.7027    0.385   0.8992     C
C       0.7058   0.9072   0.0065     C
C        0.706    0.423    0.928     C
C       0.7096   0.3241   0.0528     C
N       0.7116   0.5861   0.8468     N
N        0.712   0.4665    0.864     N
Cu     0.71755  0.52532  0.85483    Cu
Cl      0.7176   0.6358   0.9501    Cl
Cu     0.71995  0.02664  0.10928    Cu
C       0.7243   0.4113   0.9705     C
C       0.7248   0.5544   0.0374     C
C       0.7306   0.4549    0.905     C
O       0.7337   0.0125   0.5044     O
O       0.7342    0.529   0.9092     O
O       0.7381   0.5086   0.4619     O
C       0.7406   0.0513   0.0302     C
N       0.7424   0.0692   0.0725     N
C       0.7425   0.4955   0.9276     C
O        0.743   0.3438   0.0592     O
O       0.7442   0.9887   0.0696     O
C       0.7483   0.9947   0.5355     C
C       0.7517   0.0053   0.0355     C
O       0.7558   0.0113   0.5696     O
O        0.757   0.6562   0.5592     O
C       0.7575   0.5045   0.4276     C
N       0.7576   0.9308   0.5725     N
C       0.7594   0.9487   0.5302     C
O       0.7619   0.4914   0.9619     O
O       0.7658    0.471   0.4092     O
O       0.7663   0.9875   0.0044     O
C       0.7694   0.5451    0.405     C
C       0.7752   0.4456   0.5374     C
C       0.7757   0.5887   0.4705     C
Cu     0.78005  0.97336  0.60928    Cu
Cl      0.7824   0.3642   0.4501    Cl
Cu     0.78245  0.47468  0.35483    Cu
N        0.788   0.5335    0.364     N
N       0.7884   0.4139   0.3468     N
C       0.7904   0.6759   0.5528     C
C        0.794    0.577    0.428     C
C       0.7942   0.0928   0.5065     C
C       0.7973    0.615   0.3992     C
C       0.7997   0.9389   0.5092     C
O       0.8021   0.6904   0.5188     O
C       0.8021   0.8925   0.5024     C
C       0.8023   0.9626   0.4683     C
N        0.803    0.586   0.9451     N
O       0.8062   0.1435    0.435     O
N       0.8089   0.0172   0.6365     N
O       0.8096   0.4812   0.3021     O
O       0.8135    0.938   0.6414     O
O       0.8142   0.6185   0.0506     O
C       0.8172   0.4446   0.5595     C
C       0.8177   0.5967   0.0192     C
C       0.8185   0.1311   0.5696     C
C       0.8187   0.6168   0.9759     C
O       0.8204   0.5579   0.0187     O
C       0.8205    0.484   0.5865     C
C       0.8208   0.4057   0.5844     C
C       0.8218    0.595   0.5912     C
C        0.822   0.6733   0.5888     C
Cu     0.82256  0.53124  0.96531    Cu
C       0.8241   0.4472   0.2904     C
C       0.8259   0.1227   0.5232     C
C       0.8267   0.4112    0.322     C
C        0.828   0.1647    0.503     C
O        0.829   0.0575   0.0712     O
N       0.8296   0.3704    0.557     N
C        0.832   0.1642   0.4549     C
Ag     0.83264  0.41777   0.4519    Ag
C       0.8353    0.003    0.672     C
C       0.8358   0.9549    0.668     C
O       0.8367   0.5092   0.9122     O
S      0.84136  0.95425  0.54305     S
C       0.8418   0.0748   0.3583     C
C       0.8431   0.0019    0.381     C
O       0.8436    0.448   0.8806     O
O       0.8438   0.4408    0.257     O
C       0.8455   0.4722   0.9113     C
C       0.8457   0.0227   0.0756     C
S      0.84673  0.55793  0.43466     S
N       0.8468   0.7116   0.5861     N
C       0.8473   0.6345    0.595     C
O       0.8475   0.0054   0.1101     O
Au     0.84797  0.50343  0.47835    Au
N       0.8484   0.4828   0.9865     N
O       0.8516   0.1477   0.9237     O
O       0.8523   0.4237   0.6484     O
Cu     0.85483  0.71755  0.52532    Cu
C        0.856   0.4523   0.9528     C
O       0.8565    0.935   0.6938     O
C       0.8583   0.6582   0.9252     C
S      0.85836  0.44709  0.51964     S
O       0.8586   0.1865    0.438     O
C       0.8586    0.406   0.6135     C
C       0.8597   0.9979   0.0369     C
C       0.8611    0.631   0.9636     C
S      0.86326  0.44659  0.38619     S
N       0.8635   0.1911   0.5172     N
C       0.8637   0.1299   0.1328     C
N        0.864    0.712   0.4665     N
Cl      0.8642   0.0499   0.2176    Cl
C       0.8655    0.405   0.3473     C
Cu      0.8668  0.94933  0.11049    Cu
C       0.8672   0.3637   0.3701     C
C       0.8688   0.0608   0.9937     C
C       0.8689   0.0696   0.6815     C
C        0.869   0.0364   0.3611     C
C       0.8701   0.6328   0.6363     C
N       0.8704    0.943   0.1704     N
Ag     0.87301  0.89037  0.57415    Ag
Ag     0.87372  0.02374  0.53763    Ag
N       0.8762   0.9574   0.0509     N
C       0.8773   0.0232   0.6741     C
S      0.87798  0.09698  0.52139     S
O       0.8806   0.8436    0.448     O
C        0.881   0.6569   0.9981     C
O       0.8815   0.9494   0.3142     O
C       0.8832   0.0241   0.3187     C
Ag     0.88326   0.5957  0.48768    Ag
C        0.885   0.6008   0.2973     C
S      0.88619  0.63674  0.55341     S
C       0.8865   0.1414    0.906     C
C       0.8875   0.0191    0.006     C
Cu     0.88951   0.3668  0.55067    Cu
Au     0.88957  0.07455  0.45603    Au
O       0.8899   0.3475   0.4946     O
Ag     0.89037  0.57415  0.87301    Ag
Cu     0.89072  0.21995  0.47336    Cu
C       0.8917     0.99   0.9695     C
O       0.8918   0.3919    0.601     O
O       0.8919    0.899   0.1082     O
C       0.8925   0.5024   0.8021     C
S      0.89335  0.58794   0.9487     S
C       0.8982   0.4316   0.9557     C
O        0.899   0.1082   0.8919     O
C       0.8992   0.7027    0.385     C
Au     0.90031  0.94446  0.50613    Au
C       0.9017   0.4064   0.9961     C
S      0.90302  0.02139  0.62202     S
C       0.9033   0.9808   0.3177     C
Ag      0.9043  0.51232  0.38326    Ag
C        0.905   0.1527   0.1345     C
C        0.905   0.4088   0.3218     C
C        0.905   0.7306   0.4549     C
C       0.9054   0.5831   0.0899     C
C       0.9057   0.9156   0.1792     C
C        0.906   0.8865   0.1414     C
C       0.9064   0.5039   0.0983     C
C       0.9072   0.0065   0.7058     C
C       0.9088   0.1782    0.095     C
O       0.9092   0.7342    0.529     O
C       0.9101   0.4054   0.9169     C
C       0.9112    0.178   0.1733     C
C       0.9113   0.5295   0.2757     C
C       0.9113   0.8455   0.4722     C
S      0.91206   0.0513  0.39335     S
O       0.9122   0.8367   0.5092     O
C       0.9135   0.1795    0.984     C
N       0.9139   0.1532   0.2116     N
N        0.914   0.0549    0.303     N
C       0.9156   0.1792   0.9057     C
C       0.9169   0.9101   0.4054     C
Ag     0.91777   0.0481  0.16736    Ag
Au     0.91875   0.4377  0.42869    Au
Ag     0.92204  0.49051  0.52395    Ag
C        0.923    0.572    0.294     C
O       0.9237   0.8516   0.1477     O
C       0.9244   0.3457   0.4773     C
C       0.9252   0.8583   0.6582     C
Au     0.92545  0.95603  0.61043    Au
Ag     0.92585  0.12699  0.39037    Ag
N       0.9275   0.2424   0.4308     N
C       0.9276   0.7425   0.4955     C
C        0.928    0.706    0.423     C
Au     0.92869  0.58125   0.5623    Au
O       0.9288    0.329   0.4425     O
C       0.9304   0.1815   0.6311     C
O       0.9304   0.2442   0.5113     O
N       0.9308   0.5725   0.7576     N
C       0.9316   0.5443   0.1018     C
S      0.93466  0.65327  0.44207     S
O        0.935   0.6938   0.8565     O
S      0.93754  0.47244  0.96112     S
Au      0.9377  0.07131  0.08125    Au
O        0.938   0.6414   0.8135     O
S      0.93862    0.026  0.02776     S
C       0.9389   0.5092   0.7997     C
C       0.9392   0.4937   0.6312     C
C       0.9405   0.1828   0.9446     C
O       0.9408    0.243   0.1562     O
Ag     0.94206  0.00362  0.44299    Ag
S      0.94207  0.56534  0.34673     S
O       0.9421   0.9813   0.3204     O
O       0.9425   0.5712    0.671     O
Ag     0.94299  0.55794  0.99638    Ag
N        0.943   0.1704   0.8704     N
Au     0.94446  0.50613  0.90031    Au
C       0.9446   0.9405   0.1828     C
N       0.9451    0.803    0.586     N
C       0.9456   0.9626   0.2248     C
S      0.94659  0.11381  0.13674     S
S      0.94709  0.98036  0.14164     S
C       0.9472   0.2096   0.1759     C
O        0.948   0.6194   0.1564     O
C       0.9487   0.5302   0.7594     C
S       0.9487  0.89335  0.58794     S
N       0.9491   0.3762   0.5426     N
Cu     0.94933  0.11049   0.8668    Cu
O       0.9494   0.3142   0.8815     O
Cl      0.9501   0.7176   0.6358    Cl
Ag      0.9519  0.66736  0.58223    Ag
C       0.9523   0.5472    0.144     C
C       0.9528    0.856   0.4523     C
S      0.95425  0.54305  0.84136     S
C       0.9549    0.595   0.2694     C
C       0.9549    0.668   0.8358     C
C       0.9557   0.8982   0.4316     C
Au     0.95603  0.61043  0.92545    Au
S      0.95695  0.15864  0.45425     S
N       0.9574   0.0509   0.8762     N
S      0.96112  0.93754  0.47244     S
O       0.9619   0.7619   0.4914     O
Ag     0.96237  0.12628  0.52374    Ag
C       0.9626   0.2248   0.9456     C
C       0.9626   0.4683   0.8023     C
C       0.9631   0.3597   0.5021     C
C       0.9636   0.8611    0.631     C
C       0.9645   0.2517   0.4947     C
Cu     0.96531  0.82256  0.53124    Cu
N       0.9665    0.636    0.288     N
C       0.9683   0.6977   0.0374     C
Cu     0.96876  0.03469  0.32256    Cu
C       0.9695   0.8917     0.99     C
C       0.9698   0.2406   0.4487     C
C       0.9705   0.7243   0.4113     C
O        0.971   0.0908   0.2342     O
C       0.9722   0.5887   0.1545     C
S      0.97224  0.43862    0.474     S
S      0.97244  0.53888  0.06246     S
Cu     0.97336  0.60928  0.78005    Cu
S        0.974  0.52776  0.56138     S
Cu     0.97468  0.14517  0.21755    Cu
C       0.9759   0.8187   0.6168     C
Ag     0.97605  0.07796  0.99051    Ag
Ag     0.97626  0.03763  0.62628    Ag
C       0.9768   0.1741   0.6227     C
C       0.9773   0.5756   0.6543     C
Au     0.97835  0.65203  0.49657    Au
S      0.97861  0.12202  0.59698     S
S      0.98036  0.14164  0.94709     S
C       0.9808   0.3177   0.9033     C
C       0.9809    0.506   0.6125     C
O       0.9812   0.1979   0.1904     O
O       0.9813   0.3204   0.9421     O
N       0.9828   0.1365   0.6911     N
N       0.9828   0.5135   0.1516     N
C        0.984   0.9135   0.1795     C
N       0.9865   0.8484   0.4828     N
O       0.9875   0.0044   0.7663     O
Ag     0.98768  0.61674   0.4043    Ag
O       0.9887   0.0696   0.7442     O
C         0.99   0.9695   0.8917     C
Ag     0.99051  0.97605  0.07796    Ag
O       0.9908   0.0878   0.3367     O
C       0.9908   0.2003   0.4389     C
O       0.9914   0.5381   0.2381     O
C       0.9935   0.2058   0.5928     C
C       0.9937   0.8688   0.0608     C
Au     0.99387  0.09969  0.44446    Au
C        0.994   0.3875   0.4809     C
O       0.9946   0.6101   0.6525     O
C       0.9947   0.5355   0.7483     C
C       0.9955   0.5724   0.2575     C
O       0.9956   0.2663   0.5125     O
C       0.9961   0.9017   0.4064     C
Ag     0.99638  0.94299  0.55794    Ag
Au     0.99657  0.52165  0.34797    Au
C        0.997    0.172   0.6647     C
C       0.9976   0.1979   0.3925     C
C       0.9979   0.0369   0.8597     C
C       0.9981    0.881   0.6569     C
