data_I
_chemical_name_common  '/home/zhangsd/repos/MofS-CGCNN/ML/data/SSD/clean_cifs/FORKUU_clean'
_cell_length_a 19.73900
_cell_length_b 19.73900
_cell_length_c  7.47680
_cell_angle_alpha 90.00000
_cell_angle_beta  90.00000
_cell_angle_gamma 90.00000
_space_group_name_H-M_alt      'P 1'


loop_
_space_group_symop_operation_xyz
  'x, y, z' 

loop_
_atom_site_label
_atom_site_fract_x
_atom_site_fract_y
_atom_site_fract_z
_atom_site_type_symbol
Zn         0.0      0.0      0.0    Zn
F          0.0      0.0   0.2715     F
Si         0.0      0.0      0.5    Si
F          0.0      0.0   0.7285     F
N          0.0   0.1096      0.0     N
H          0.0   0.1205   0.2563     H
H          0.0   0.1205   0.7437     H
C          0.0   0.1445   0.1462     C
C          0.0   0.1445   0.8538     C
C          0.0   0.2141   0.1528     C
C          0.0   0.2141   0.8472     C
H          0.0   0.2369   0.2646     H
H          0.0   0.2369   0.7354     H
C          0.0   0.2491      0.0     C
N          0.0   0.3226      0.0     N
C          0.0   0.4643      0.0     C
C          0.0   0.5357      0.0     C
N          0.0   0.6774      0.0     N
C          0.0   0.7509      0.0     C
H          0.0   0.7631   0.2646     H
H          0.0   0.7631   0.7354     H
C          0.0   0.7859   0.1528     C
C          0.0   0.7859   0.8472     C
C          0.0   0.8555   0.1462     C
C          0.0   0.8555   0.8538     C
H          0.0   0.8795   0.2563     H
H          0.0   0.8795   0.7437     H
N          0.0   0.8904      0.0     N
F      0.05982  0.05982      0.5     F
F      0.05982  0.94018      0.5     F
C       0.0625   0.3546      0.0     C
C       0.0625   0.6454      0.0     C
C       0.0628   0.4297      0.0     C
C       0.0628   0.5703      0.0     C
N       0.1096      0.0      0.0     N
O       0.1149   0.3217      0.0     O
O       0.1149   0.6783      0.0     O
H       0.1205      0.0   0.2563     H
H       0.1205      0.0   0.7437     H
C       0.1211   0.4642      0.0     C
C       0.1211   0.5358      0.0     C
C       0.1445      0.0   0.1462     C
C       0.1445      0.0   0.8538     C
H       0.1629   0.4404      0.0     H
H       0.1629   0.5596      0.0     H
C       0.2141      0.0   0.1528     C
C       0.2141      0.0   0.8472     C
H       0.2369      0.0   0.2646     H
H       0.2369      0.0   0.7354     H
C       0.2491      0.0      0.0     C
O       0.3217   0.1149      0.0     O
O       0.3217   0.8851      0.0     O
N       0.3226      0.0      0.0     N
C       0.3546   0.0625      0.0     C
C       0.3546   0.9375      0.0     C
C       0.4297   0.0628      0.0     C
C       0.4297   0.9372      0.0     C
H       0.4404   0.1629      0.0     H
H       0.4404   0.8371      0.0     H
C       0.4642   0.1211      0.0     C
C       0.4642   0.8789      0.0     C
C       0.4643      0.0      0.0     C
C       0.5357      0.0      0.0     C
C       0.5358   0.1211      0.0     C
C       0.5358   0.8789      0.0     C
H       0.5596   0.1629      0.0     H
H       0.5596   0.8371      0.0     H
C       0.5703   0.0628      0.0     C
C       0.5703   0.9372      0.0     C
C       0.6454   0.0625      0.0     C
C       0.6454   0.9375      0.0     C
N       0.6774      0.0      0.0     N
O       0.6783   0.1149      0.0     O
O       0.6783   0.8851      0.0     O
C       0.7509      0.0      0.0     C
H       0.7631      0.0   0.2646     H
H       0.7631      0.0   0.7354     H
C       0.7859      0.0   0.1528     C
C       0.7859      0.0   0.8472     C
H       0.8371   0.4404      0.0     H
H       0.8371   0.5596      0.0     H
C       0.8555      0.0   0.1462     C
C       0.8555      0.0   0.8538     C
C       0.8789   0.4642      0.0     C
C       0.8789   0.5358      0.0     C
H       0.8795      0.0   0.2563     H
H       0.8795      0.0   0.7437     H
O       0.8851   0.3217      0.0     O
O       0.8851   0.6783      0.0     O
N       0.8904      0.0      0.0     N
C       0.9372   0.4297      0.0     C
C       0.9372   0.5703      0.0     C
C       0.9375   0.3546      0.0     C
C       0.9375   0.6454      0.0     C
F      0.94018  0.05982      0.5     F
F      0.94018  0.94018      0.5     F
