data_I
_chemical_name_common  '/home/zhangsd/repos/MofS-CGCNN/ML/data/SSD/clean_cifs/FOVPOX_clean'
_cell_length_a 24.54200
_cell_length_b 12.64100
_cell_length_c 15.44600
_cell_angle_alpha 90.00000
_cell_angle_beta  90.00000
_cell_angle_gamma 90.00000
_space_group_name_H-M_alt      'P 1'


loop_
_space_group_symop_operation_xyz
  'x, y, z' 

loop_
_atom_site_label
_atom_site_fract_x
_atom_site_fract_y
_atom_site_fract_z
_atom_site_type_symbol
H       0.0021   0.4716   0.4104     H
H       0.0021   0.5284   0.9104     H
C       0.0064   0.4765   0.5454     C
C       0.0064   0.5235   0.0454     C
H       0.0162   0.4148   0.9447     H
H       0.0162   0.5852   0.4447     H
H       0.0542   0.0854   0.4268     H
H       0.0542   0.9146   0.9268     H
H       0.0571   0.3001   0.4989     H
H       0.0571   0.6999   0.9989     H
C       0.0651   0.4459   0.5521     C
C       0.0651   0.5541   0.0521     C
C       0.0821   0.3479   0.5214     C
C       0.0821   0.6521   0.0214     C
H       0.0871   0.1309   0.2909     H
H       0.0871   0.8691   0.7909     H
C       0.0908   0.0757   0.4135     C
C       0.0908   0.9243   0.9135     C
H       0.0942   0.4252   0.1113     H
H       0.0942   0.5748   0.6113     H
H       0.1026   0.4424   0.3107     H
H       0.1026   0.5576   0.8107     H
C       0.1038   0.4903   0.0878     C
C       0.1038   0.5097   0.5878     C
C       0.1106   0.1022   0.3319     C
C       0.1106   0.8978   0.8319     C
H       0.1128   0.0172   0.5283     H
H       0.1128   0.9828   0.0283     H
H       0.1178    0.401   0.8877     H
H       0.1178    0.599   0.3877     H
C       0.1256   0.0354   0.4737     C
C       0.1256   0.9646   0.9737     C
C        0.137   0.3228   0.5247     C
C        0.137   0.6772   0.0247     C
C       0.1379   0.4624   0.3251     C
C       0.1379   0.5376   0.8251     C
C       0.1471   0.4426   0.8699     C
C       0.1471   0.5574   0.3699     C
H       0.1482   0.2588   0.5009     H
H       0.1482   0.7412   0.0009     H
O       0.1558   0.1687   0.1735     O
O       0.1558   0.8313   0.6735     O
C        0.157   0.4771   0.5888     C
C        0.157   0.5229   0.0888     C
C       0.1641   0.0868   0.3111     C
C       0.1641   0.9132   0.8111     C
O      0.17269   0.2693   0.9795     O
O      0.17269   0.7307   0.4795     O
H       0.1742   0.3356   0.2756     H
H       0.1742   0.6644   0.7756     H
N       0.1746   0.3849   0.5599     N
N       0.1746   0.6151   0.0599     N
N        0.178   0.0222   0.4543     N
N        0.178   0.9778   0.9543     N
C       0.1804      0.4   0.3029     C
C       0.1804      0.6   0.8029     C
H       0.1828   0.4766   0.1116     H
H       0.1828   0.5234   0.6116     H
C       0.1852    0.118   0.2225     C
C       0.1852    0.882   0.7225     C
C       0.1985   0.0456   0.3737     C
C       0.1985   0.9544   0.8737     C
C       0.1994   0.4116   0.8872     C
C       0.1994   0.5884   0.3872     C
C        0.212   0.3128   0.9396     C
C        0.212   0.6872   0.4396     C
O       0.2121   0.0073   0.0157     O
O       0.2121   0.9927   0.5157     O
O       0.2266   0.1291   0.7963     O
O       0.2266   0.8709   0.2963     O
N       0.2321    0.431   0.3202     N
N       0.2321    0.569   0.8202     N
O        0.233   0.0921   0.2036     O
O        0.233   0.9079   0.7036     O
Cd     0.23548  0.17365  0.06751    Cd
Cd     0.23548  0.82635  0.56751    Cd
O      0.23989   0.2185   0.4449     O
O      0.23989   0.7815   0.9449     O
C       0.2423   0.4758   0.8608     C
C       0.2423   0.5242   0.3608     C
C       0.2577   0.0242   0.3608     C
C       0.2577   0.9758   0.8608     C
O      0.26011   0.2815   0.9449     O
O      0.26011   0.7185   0.4449     O
Cd     0.26452  0.32635  0.56751    Cd
Cd     0.26452  0.67365  0.06751    Cd
O        0.267   0.4079   0.7036     O
O        0.267   0.5921   0.2036     O
N       0.2679    0.069   0.8202     N
N       0.2679    0.931   0.3202     N
O       0.2734   0.3709   0.2963     O
O       0.2734   0.6291   0.7963     O
O       0.2879   0.4927   0.5157     O
O       0.2879   0.5073   0.0157     O
C        0.288   0.1872   0.4396     C
C        0.288   0.8128   0.9396     C
C       0.3006   0.0884   0.3872     C
C       0.3006   0.9116   0.8872     C
C       0.3015   0.4544   0.8737     C
C       0.3015   0.5456   0.3737     C
C       0.3148    0.382   0.7225     C
C       0.3148    0.618   0.2225     C
H       0.3172   0.0234   0.6116     H
H       0.3172   0.9766   0.1116     H
C       0.3196      0.1   0.8029     C
C       0.3196      0.9   0.3029     C
N        0.322   0.4778   0.9543     N
N        0.322   0.5222   0.4543     N
N       0.3254   0.1151   0.0599     N
N       0.3254   0.8849   0.5599     N
H       0.3258   0.1644   0.7756     H
H       0.3258   0.8356   0.2756     H
O      0.32731   0.2307   0.4795     O
O      0.32731   0.7693   0.9795     O
C       0.3359   0.4132   0.8111     C
C       0.3359   0.5868   0.3111     C
C        0.343   0.0229   0.0888     C
C        0.343   0.9771   0.5888     C
O       0.3442   0.3313   0.6735     O
O       0.3442   0.6687   0.1735     O
H       0.3518   0.2412   0.0009     H
H       0.3518   0.7588   0.5009     H
C       0.3529   0.0574   0.3699     C
C       0.3529   0.9426   0.8699     C
C       0.3621   0.0376   0.8251     C
C       0.3621   0.9624   0.3251     C
C        0.363   0.1772   0.0247     C
C        0.363   0.8228   0.5247     C
C       0.3744   0.4646   0.9737     C
C       0.3744   0.5354   0.4737     C
H       0.3822    0.099   0.3877     H
H       0.3822    0.901   0.8877     H
H       0.3872   0.4828   0.0283     H
H       0.3872   0.5172   0.5283     H
C       0.3894   0.3978   0.8319     C
C       0.3894   0.6022   0.3319     C
C       0.3962   0.0097   0.5878     C
C       0.3962   0.9903   0.0878     C
H       0.3974   0.0576   0.8107     H
H       0.3974   0.9424   0.3107     H
H       0.4058   0.0748   0.6113     H
H       0.4058   0.9252   0.1113     H
C       0.4092   0.4243   0.9135     C
C       0.4092   0.5757   0.4135     C
H       0.4129   0.3691   0.7909     H
H       0.4129   0.6309   0.2909     H
C       0.4179   0.1521   0.0214     C
C       0.4179   0.8479   0.5214     C
C       0.4349   0.0541   0.0521     C
C       0.4349   0.9459   0.5521     C
H       0.4429   0.1999   0.9989     H
H       0.4429   0.8001   0.4989     H
H       0.4458   0.4146   0.9268     H
H       0.4458   0.5854   0.4268     H
H       0.4838   0.0852   0.4447     H
H       0.4838   0.9148   0.9447     H
C       0.4936   0.0235   0.0454     C
C       0.4936   0.9765   0.5454     C
H       0.4979   0.0284   0.9104     H
H       0.4979   0.9716   0.4104     H
H       0.5021   0.0284   0.5896     H
H       0.5021   0.9716   0.0896     H
C       0.5064   0.0235   0.4546     C
C       0.5064   0.9765   0.9546     C
H       0.5162   0.0852   0.0553     H
H       0.5162   0.9148   0.5553     H
H       0.5542   0.4146   0.5732     H
H       0.5542   0.5854   0.0732     H
H       0.5571   0.1999   0.5011     H
H       0.5571   0.8001   0.0011     H
C       0.5651   0.0541   0.4479     C
C       0.5651   0.9459   0.9479     C
C       0.5821   0.1521   0.4786     C
C       0.5821   0.8479   0.9786     C
H       0.5871   0.3691   0.7091     H
H       0.5871   0.6309   0.2091     H
C       0.5908   0.4243   0.5865     C
C       0.5908   0.5757   0.0865     C
H       0.5942   0.0748   0.8887     H
H       0.5942   0.9252   0.3887     H
H       0.6026   0.0576   0.6893     H
H       0.6026   0.9424   0.1893     H
C       0.6038   0.0097   0.9122     C
C       0.6038   0.9903   0.4122     C
C       0.6106   0.3978   0.6681     C
C       0.6106   0.6022   0.1681     C
H       0.6128   0.4828   0.4717     H
H       0.6128   0.5172   0.9717     H
H       0.6178    0.099   0.1123     H
H       0.6178    0.901   0.6123     H
C       0.6256   0.4646   0.5263     C
C       0.6256   0.5354   0.0263     C
C        0.637   0.1772   0.4753     C
C        0.637   0.8228   0.9753     C
C       0.6379   0.0376   0.6749     C
C       0.6379   0.9624   0.1749     C
C       0.6471   0.0574   0.1301     C
C       0.6471   0.9426   0.6301     C
H       0.6482   0.2412   0.4991     H
H       0.6482   0.7588   0.9991     H
O       0.6558   0.3313   0.8265     O
O       0.6558   0.6687   0.3265     O
C        0.657   0.0229   0.4112     C
C        0.657   0.9771   0.9112     C
C       0.6641   0.4132   0.6889     C
C       0.6641   0.5868   0.1889     C
O      0.67269   0.2307   0.0205     O
O      0.67269   0.7693   0.5205     O
H       0.6742   0.1644   0.7244     H
H       0.6742   0.8356   0.2244     H
N       0.6746   0.1151   0.4401     N
N       0.6746   0.8849   0.9401     N
N        0.678   0.4778   0.5457     N
N        0.678   0.5222   0.0457     N
C       0.6804      0.1   0.6971     C
C       0.6804      0.9   0.1971     C
H       0.6828   0.0234   0.8884     H
H       0.6828   0.9766   0.3884     H
C       0.6852    0.382   0.7775     C
C       0.6852    0.618   0.2775     C
C       0.6985   0.4544   0.6263     C
C       0.6985   0.5456   0.1263     C
C       0.6994   0.0884   0.1128     C
C       0.6994   0.9116   0.6128     C
C        0.712   0.1872   0.0604     C
C        0.712   0.8128   0.5604     C
O       0.7121   0.4927   0.9843     O
O       0.7121   0.5073   0.4843     O
O       0.7266   0.3709   0.2037     O
O       0.7266   0.6291   0.7037     O
N       0.7321    0.069   0.6798     N
N       0.7321    0.931   0.1798     N
O        0.733   0.4079   0.7964     O
O        0.733   0.5921   0.2964     O
Cd     0.73548  0.32635  0.93249    Cd
Cd     0.73548  0.67365  0.43249    Cd
O      0.73989   0.2815   0.5551     O
O      0.73989   0.7185   0.0551     O
C       0.7423   0.0242   0.1392     C
C       0.7423   0.9758   0.6392     C
C       0.7577   0.4758   0.6392     C
C       0.7577   0.5242   0.1392     C
O      0.76011   0.2185   0.0551     O
O      0.76011   0.7815   0.5551     O
Cd     0.76452  0.17365  0.43249    Cd
Cd     0.76452  0.82635  0.93249    Cd
O        0.767   0.0921   0.2964     O
O        0.767   0.9079   0.7964     O
N       0.7679    0.431   0.1798     N
N       0.7679    0.569   0.6798     N
O       0.7734   0.1291   0.7037     O
O       0.7734   0.8709   0.2037     O
O       0.7879   0.0073   0.4843     O
O       0.7879   0.9927   0.9843     O
C        0.788   0.3128   0.5604     C
C        0.788   0.6872   0.0604     C
C       0.8006   0.4116   0.6128     C
C       0.8006   0.5884   0.1128     C
C       0.8015   0.0456   0.1263     C
C       0.8015   0.9544   0.6263     C
C       0.8148    0.118   0.2775     C
C       0.8148    0.882   0.7775     C
H       0.8172   0.4766   0.3884     H
H       0.8172   0.5234   0.8884     H
C       0.8196      0.4   0.1971     C
C       0.8196      0.6   0.6971     C
N        0.822   0.0222   0.0457     N
N        0.822   0.9778   0.5457     N
N       0.8254   0.3849   0.9401     N
N       0.8254   0.6151   0.4401     N
H       0.8258   0.3356   0.2244     H
H       0.8258   0.6644   0.7244     H
O      0.82731   0.2693   0.5205     O
O      0.82731   0.7307   0.0205     O
C       0.8359   0.0868   0.1889     C
C       0.8359   0.9132   0.6889     C
C        0.843   0.4771   0.9112     C
C        0.843   0.5229   0.4112     C
O       0.8442   0.1687   0.3265     O
O       0.8442   0.8313   0.8265     O
H       0.8518   0.2588   0.9991     H
H       0.8518   0.7412   0.4991     H
C       0.8529   0.4426   0.6301     C
C       0.8529   0.5574   0.1301     C
C       0.8621   0.4624   0.1749     C
C       0.8621   0.5376   0.6749     C
C        0.863   0.3228   0.9753     C
C        0.863   0.6772   0.4753     C
C       0.8744   0.0354   0.0263     C
C       0.8744   0.9646   0.5263     C
H       0.8822    0.401   0.6123     H
H       0.8822    0.599   0.1123     H
H       0.8872   0.0172   0.9717     H
H       0.8872   0.9828   0.4717     H
C       0.8894   0.1022   0.1681     C
C       0.8894   0.8978   0.6681     C
C       0.8962   0.4903   0.4122     C
C       0.8962   0.5097   0.9122     C
H       0.8974   0.4424   0.1893     H
H       0.8974   0.5576   0.6893     H
H       0.9058   0.4252   0.3887     H
H       0.9058   0.5748   0.8887     H
C       0.9092   0.0757   0.0865     C
C       0.9092   0.9243   0.5865     C
H       0.9129   0.1309   0.2091     H
H       0.9129   0.8691   0.7091     H
C       0.9179   0.3479   0.9786     C
C       0.9179   0.6521   0.4786     C
C       0.9349   0.4459   0.9479     C
C       0.9349   0.5541   0.4479     C
H       0.9429   0.3001   0.0011     H
H       0.9429   0.6999   0.5011     H
H       0.9458   0.0854   0.0732     H
H       0.9458   0.9146   0.5732     H
H       0.9838   0.4148   0.5553     H
H       0.9838   0.5852   0.0553     H
C       0.9936   0.4765   0.9546     C
C       0.9936   0.5235   0.4546     C
H       0.9979   0.4716   0.0896     H
H       0.9979   0.5284   0.5896     H
