data_I
_chemical_name_common  '/home/zhangsd/repos/MofS-CGCNN/ML/data/SSD/clean_cifs/FUSQUH_clean'
_cell_length_a 38.22600
_cell_length_b 13.45600
_cell_length_c 33.94500
_cell_angle_alpha 90.00000
_cell_angle_beta  110.13200
_cell_angle_gamma 90.00000
_space_group_name_H-M_alt      'P 1'


loop_
_space_group_symop_operation_xyz
  'x, y, z' 

loop_
_atom_site_label
_atom_site_fract_x
_atom_site_fract_y
_atom_site_fract_z
_atom_site_type_symbol
H       0.0019   0.0145   0.8732     H
H       0.0019   0.9855   0.3732     H
N      0.00339   0.1184   0.4257     N
N      0.00339   0.8816   0.9257     N
Co     0.00961  0.31545  0.04214    Co
Co     0.00961  0.68455  0.54214    Co
H       0.0101   0.1023   0.9055     H
H       0.0101   0.8977   0.4055     H
N       0.0103   0.1768  0.45951     N
N       0.0103   0.8232  0.95951     N
H       0.0115   0.1345   0.0989     H
H       0.0115   0.8655   0.5989     H
O      0.01632   0.3453  0.94995     O
O      0.01632   0.6547  0.44995     O
C        0.019   0.0396   0.8992     C
C        0.019   0.9604   0.3992     C
C       0.0219   0.0333    0.434     C
C       0.0219   0.9667    0.934     C
O      0.02423   0.3761  0.09889     O
O      0.02423   0.6239  0.59889     O
H       0.0291   0.4132   0.5452     H
H       0.0291   0.5868   0.0452     H
C      0.03333   0.1237   0.4905     C
C      0.03333   0.8763   0.9905     C
N      0.03429   0.3983  0.49014     N
N      0.03429   0.6017  0.99014     N
H       0.0366   0.4701   0.1648     H
H       0.0366   0.5299   0.6648     H
H       0.0372    0.225   0.5371     H
H       0.0372    0.775   0.0371     H
H       0.0403   0.1151   0.5532     H
H       0.0403   0.8849   0.0532     H
H       0.0411    0.415   0.7239     H
H       0.0411    0.585   0.2239     H
H       0.0415   0.3824    0.419     H
H       0.0415   0.6176    0.919     H
C      0.04172   0.0337   0.4757     C
C      0.04172   0.9663   0.9757     C
H       0.0431   0.0485   0.8968     H
H       0.0431   0.9515   0.3968     H
N        0.044   0.4194  0.53132     N
N        0.044   0.5806  0.03132     N
C      0.04568    0.324   0.9786     C
C      0.04568    0.676   0.4786     C
C       0.0476   0.1607   0.5357     C
C       0.0476   0.8393   0.0357     C
O      0.04867   0.3215  0.01738     O
O      0.04867   0.6785  0.51738     O
C       0.0519   0.3294   0.1215     C
C       0.0519   0.6706   0.6215     C
H       0.0549   0.3022   0.9072     H
H       0.0549   0.6978   0.4072     H
H        0.057   0.0723   0.0212     H
H        0.057   0.9277   0.5212     H
C       0.0595   0.4426   0.1805     C
C       0.0595   0.5574   0.6805     C
O      0.06344   0.2583  0.10729     O
O      0.06344   0.7417  0.60729     O
C       0.0647   0.4395   0.7386     C
C       0.0647   0.5605   0.2386     C
C      0.06472    0.419   0.4804     C
C      0.06472    0.581   0.9804     C
C       0.0652    0.407   0.4369     C
C       0.0652    0.593   0.9369     C
H       0.0668   0.1017   0.9816     H
H       0.0668   0.8983   0.4816     H
C      0.06708   0.0473   0.0005     C
C      0.06708   0.9527   0.5005     C
H       0.0701     0.47   0.4266     H
H       0.0701     0.53   0.9266     H
C      0.07356    0.367   0.1641     C
C      0.07356    0.633   0.6641     C
H       0.0743   0.1654   0.5452     H
H       0.0743   0.8346   0.0452     H
H       0.0752   0.3463    0.786     H
H       0.0752   0.6537    0.286     H
C      0.07717   0.2852   0.9281     C
C      0.07717   0.7148   0.4281     C
C       0.0786   0.4504    0.548     C
H       0.0786   0.4667   0.6073     H
H       0.0786   0.5333   0.1073     H
C       0.0786   0.5496    0.048     C
H       0.0789   0.2445   0.8526     H
H       0.0789   0.7555   0.3526     H
C       0.0794   0.4811   0.2216     C
C       0.0794   0.5189   0.7216     C
C      0.07974   0.2963    0.969     C
C      0.07974   0.7037    0.469     C
H       0.0802   0.0527   0.2507     H
H       0.0802   0.9473   0.7507     H
H       0.0844   0.3607   0.4371     H
H       0.0844   0.6393   0.9371     H
C       0.0847   0.3996   0.7755     C
C       0.0847   0.6004   0.2755     C
H       0.0893   0.0047   0.8177     H
H       0.0893   0.9953   0.3177     H
C      0.09324   0.4528   0.5156     C
C      0.09324   0.5472   0.0156     C
C       0.0962   0.4768   0.5932     C
C       0.0962   0.5232   0.0932     C
H       0.0963   0.0341   0.1026     H
H       0.0963   0.9659   0.6026     H
H       0.0982   0.2988    0.044     H
H       0.0982   0.7012    0.544     H
C       0.0993   0.0796   0.2732     C
C       0.0993   0.9204   0.7732     C
C       0.1014   0.2303   0.8738     C
C       0.1014   0.7697   0.3738     C
H       0.1038   0.4548   0.0956     H
H       0.1038   0.5452   0.5956     H
C       0.1046   0.0446   0.3135     C
C       0.1046   0.9554   0.8135     C
H       0.1057   0.1046    0.453     H
H       0.1057   0.8954    0.953     H
C      0.10658   0.0168   0.0226     C
C      0.10658   0.9832   0.5226     C
C       0.1068   0.2492   0.9162     C
C       0.1068   0.7508   0.4162     C
H       0.1073   0.2328   0.1493     H
H       0.1073   0.7672   0.6493     H
C      0.10813   0.3264   0.1883     C
C      0.10813   0.6736   0.6883     C
H       0.1103   0.1387   0.0941     H
H       0.1103   0.8613   0.5941     H
C      0.11463   0.2767   0.0012     C
C      0.11463   0.7233   0.5012     C
C       0.1151   0.4434   0.2437     C
C       0.1151   0.5566   0.7437     C
H       0.1169   0.1735   0.2387     H
H       0.1169   0.8265   0.7387     H
C        0.117     0.07   0.0996     C
C        0.117     0.93   0.5996     C
H       0.1171    0.002   0.9433     H
H       0.1171    0.998   0.4433     H
H       0.1176   0.4354   0.6058     H
H       0.1176   0.5646   0.1058     H
O       0.1185   0.2859  0.04194     O
O       0.1185   0.7141  0.54194     O
C       0.1188   0.4363   0.7976     C
C       0.1188   0.5637   0.2976     C
C       0.1212    0.152    0.266     C
C       0.1212    0.848    0.766     C
O      0.12198   0.2473  0.17259     O
O      0.12198   0.7527  0.67259     O
C      0.12474   0.0547   0.4614     C
C      0.12474   0.9453   0.9614     C
C      0.12669   0.0273   0.0639     C
C      0.12669   0.9727   0.5639     C
H       0.1287   0.1786    0.837     H
H       0.1287   0.8214    0.337     H
C       0.1292    0.363   0.2274     C
C       0.1292    0.637   0.7274     C
C      0.13091    0.025   0.5045     C
C      0.13091    0.975   0.0045     C
C       0.1311   0.1896   0.8649     C
H       0.1311   0.4655   0.9988     H
H       0.1311   0.5345   0.4988     H
C       0.1311   0.8104   0.3649     C
H       0.1319   0.4087   0.8237     H
H       0.1319   0.5913   0.3237     H
H       0.1324   0.2764    0.567     H
H       0.1324   0.7236    0.067     H
C      0.13249    0.481   0.5184     C
C      0.13249    0.519   0.0184     C
C       0.1332   0.0842   0.3474     C
C       0.1332   0.9158   0.8474     C
C       0.1345   0.4876   0.2831     C
C       0.1345   0.5124   0.7831     C
H       0.1373   0.0616   0.3745     H
H       0.1373   0.9384   0.8745     H
H       0.1381   0.0645   0.1251     H
H       0.1381   0.9355   0.6251     H
C      0.14134   0.2272   0.9499     C
C      0.14134   0.7728   0.4499     C
C       0.1453   0.2475   0.9921     C
C       0.1453   0.7525   0.4921     C
H       0.1459   0.4943   0.0464     H
H       0.1459   0.5057   0.5464     H
H       0.1474   0.0811   0.4594     H
H       0.1474   0.9189   0.9594     H
H       0.1499   0.4856   0.9417     H
H       0.1499   0.5144   0.4417     H
C       0.1501   0.1946   0.2993     C
C       0.1501   0.8054   0.7993     C
H       0.1505    0.421   0.4144     H
H       0.1505    0.579   0.9144     H
C      0.15354   0.3974   0.5093     C
C      0.15354   0.6026   0.0093     C
C       0.1557   0.1588   0.3398     C
C       0.1557   0.8412   0.8398     C
H        0.158   0.4645   0.2991     H
H        0.158   0.5355   0.7991     H
C       0.1588   0.2818   0.5727     C
C       0.1588   0.7182   0.0727     C
N      0.16151   0.0075  0.57028     N
N      0.16151   0.9925  0.07028     N
C      0.16348   0.4556     0.44     C
C      0.16348   0.5444     0.94     C
C       0.1647   0.1644   0.8965     C
C       0.1647   0.8356   0.3965     C
N        0.165   0.0401  0.53393     N
N        0.165   0.9599  0.03393     N
C      0.16563   0.3108   0.5333     C
C      0.16563   0.6892   0.0333     C
C      0.16667   0.3165   0.2504     C
C      0.16667   0.6835   0.7504     C
C      0.16682   0.3896   0.4765     C
C      0.16682   0.6104   0.9765     C
H        0.169   0.3314   0.5938     H
H        0.169   0.6686   0.0938     H
C       0.1701   0.1826   0.9373     C
C       0.1701   0.8174   0.4373     C
H       0.1704    0.219   0.5824     H
H       0.1704    0.781   0.0824     H
H       0.1707    0.264   0.2329     H
H       0.1707    0.736   0.7329     H
C      0.17271   0.2733  0.29326     C
C      0.17271   0.7267  0.79326     C
H       0.1762   0.1979   0.0506     H
H       0.1762   0.8021   0.5506     H
H       0.1763    0.266    0.105     H
H       0.1763    0.734    0.605     H
H       0.1791   0.0088   0.5943     H
H       0.1791   0.9912   0.0943     H
C      0.18163   0.2321   0.0282     C
C      0.18163   0.7679   0.5282     C
H       0.1819   0.3392    0.168     H
H       0.1819   0.6608    0.668     H
C       0.1832   0.2017   0.3739     C
C       0.1832   0.7983   0.8739     C
H       0.1835   0.1347   0.8892     H
H       0.1835   0.8653   0.3892     H
N      0.18469   0.2522  0.51572     N
N      0.18469   0.7478  0.01572     N
N      0.18517   0.3008  0.48145     N
N      0.18517   0.6992  0.98145     N
H       0.1857   0.1806   0.4008     H
H       0.1857   0.3665   0.2533     H
H       0.1857   0.6335   0.7533     H
H       0.1857   0.8194   0.9008     H
H       0.1879   0.4738   0.4405     H
H       0.1879   0.5262   0.9405     H
C      0.19001   0.3242   0.1131     C
C      0.19001   0.6758   0.6131     C
H       0.1928    0.166   0.9577     H
H       0.1928    0.834   0.4577     H
C       0.1937   0.3679    0.151     C
C       0.1937   0.6321    0.651     C
H       0.1958   0.2787   0.4646     H
H       0.1958   0.7213   0.9646     H
H       0.1974   0.1889   0.0187     H
H       0.1974   0.8111   0.5187     H
C      0.20161   0.3086   0.3273     C
C      0.20161   0.6914   0.8273     C
C      0.20357   0.3268   0.0463     C
C      0.20357   0.6732   0.5463     C
C      0.20679   0.2742  0.36923     C
C      0.20679   0.7258  0.86923     C
C      0.20718   0.3679   0.0862     C
C      0.20718   0.6321   0.5862     C
Co     0.21025  0.11798  0.53267    Co
Co     0.21025  0.88202  0.03267    Co
C       0.2142   0.4528   0.1641     C
C       0.2142   0.5472   0.6641     C
H       0.2169   0.4799   0.1902     H
H       0.2169   0.5201   0.6902     H
O      0.21829   0.3357  0.98424     O
O      0.21829   0.6643  0.48424     O
O      0.21854   0.0891  0.47642     O
O      0.21854   0.9109  0.97642     O
C      0.22082   0.3739   0.0217     C
C      0.22082   0.6261   0.5217     C
O      0.22392   0.3805  0.32096     O
O      0.22392   0.6195  0.82096     O
C      0.22706    0.457    0.099     C
C      0.22706    0.543    0.599     C
C       0.2311   0.4984   0.1383     C
C       0.2311   0.5016   0.6383     C
C      0.23677   0.3173  0.40486     C
C      0.23677   0.6827  0.90486     C
O      0.23739   0.2982   0.4417     O
O      0.23739   0.7018   0.9417     O
O      0.23787   0.1311  0.59969     O
O      0.23787   0.8689  0.09969     O
C      0.23856   0.0136    0.491     C
C      0.23856   0.9864    0.991     C
H       0.2405   0.3934   0.3432     H
H       0.2405   0.6066   0.8432     H
H       0.2415   0.0596   0.4172     H
H       0.2415   0.9404   0.9172     H
C      0.24231   0.4619   0.0359     C
C      0.24231   0.5381   0.5359     C
O      0.24274   0.0207   0.0267     O
O      0.24274   0.9793   0.5267     O
C      0.24482   0.4982   0.5737     C
C      0.24482   0.5018   0.0737     C
H        0.245   0.4439   0.6471     H
H        0.245   0.5561   0.1471     H
H        0.255   0.0561   0.3529     H
H        0.255   0.9439   0.8529     H
C      0.25518   0.0018   0.4263     C
C      0.25518   0.9982   0.9263     C
O      0.25726   0.4793   0.9733     O
O      0.25726   0.5207   0.4733     O
C      0.25769   0.0381   0.9641     C
C      0.25769   0.9619   0.4641     C
H       0.2585   0.4404   0.5828     H
H       0.2585   0.5596   0.0828     H
H       0.2595   0.1066   0.6568     H
H       0.2595   0.8934   0.1568     H
C      0.26144   0.4864    0.509     C
C      0.26144   0.5136    0.009     C
O      0.26213   0.3689  0.40031     O
O      0.26213   0.6311  0.90031     O
O      0.26261   0.2018   0.5583     O
O      0.26261   0.7982   0.0583     O
C      0.26323   0.1827  0.59514     C
C      0.26323   0.8173  0.09514     C
C       0.2689   0.0016   0.8617     C
C       0.2689   0.9984   0.3617     C
C      0.27294    0.043    0.901     C
C      0.27294    0.957    0.401     C
O      0.27608   0.1195  0.67904     O
O      0.27608   0.8805  0.17904     O
C      0.27918   0.1261   0.9783     C
C      0.27918   0.8739   0.4783     C
O      0.28146   0.4109  0.52358     O
O      0.28146   0.5891  0.02358     O
O      0.28171   0.1643  0.01576     O
O      0.28171   0.8357  0.51576     O
H       0.2831   0.0201   0.8098     H
H       0.2831   0.9799   0.3098     H
C       0.2858   0.0472   0.8359     C
C       0.2858   0.9528   0.3359     C
Co     0.28975  0.38202  0.46733    Co
Co     0.28975  0.61798  0.96733    Co
C      0.29282   0.1321   0.9138     C
C      0.29282   0.8679   0.4138     C
C      0.29321   0.2258  0.63077     C
C      0.29321   0.7742  0.13077     C
C      0.29643   0.1732   0.9537     C
C      0.29643   0.8268   0.4537     C
C      0.29839   0.1914   0.6727     C
C      0.29839   0.8086   0.1727     C
H       0.3026   0.3111   0.9813     H
H       0.3026   0.6889   0.4813     H
H       0.3042   0.2213   0.5354     H
H       0.3042   0.7787   0.0354     H
C       0.3063   0.1321    0.849     C
C       0.3063   0.8679    0.349     C
H       0.3072    0.334   0.0423     H
H       0.3072    0.666   0.5423     H
C      0.30999   0.1758   0.8869     C
C      0.30999   0.8242   0.3869     C
H       0.3121   0.0262   0.5595     H
H       0.3121   0.9738   0.0595     H
H       0.3143   0.1335   0.7467     H
H       0.3143   0.3194   0.5992     H
H       0.3143   0.6806   0.0992     H
H       0.3143   0.8665   0.2467     H
N      0.31483   0.1992  0.51855     N
N      0.31483   0.8008  0.01855     N
N      0.31531   0.2478  0.48428     N
N      0.31531   0.7522  0.98428     N
H       0.3165   0.3653   0.1108     H
H       0.3165   0.6347   0.6108     H
C       0.3168   0.2983   0.6261     C
C       0.3168   0.7017   0.1261     C
H       0.3181   0.1608    0.832     H
H       0.3181   0.8392    0.332     H
C      0.31837   0.2679   0.9718     C
C      0.31837   0.7321   0.4718     C
H       0.3209   0.4912   0.4057     H
H       0.3209   0.5088   0.9057     H
H       0.3237    0.234    0.895     H
H       0.3237    0.766    0.395     H
H       0.3238   0.3021   0.9494     H
H       0.3238   0.6979   0.4494     H
C      0.32729   0.2267  0.70674     C
C      0.32729   0.7733  0.20674     C
H       0.3293    0.236   0.7671     H
H       0.3293    0.764   0.2671     H
H       0.3296    0.281   0.4176     H
H       0.3296    0.719   0.9176     H
C       0.3299   0.3174   0.0627     C
C       0.3299   0.6826   0.5627     C
H        0.331   0.1686   0.4062     H
H        0.331   0.8314   0.9062     H
C      0.33318   0.1104   0.5235     C
C      0.33318   0.8896   0.0235     C
C      0.33333   0.1835   0.7496     C
C      0.33333   0.8165   0.2496     C
C      0.33437   0.1892   0.4667     C
C      0.33437   0.8108   0.9667     C
N        0.335   0.4599  0.46607     N
N        0.335   0.5401  0.96607     N
C       0.3353   0.3356   0.1035     C
C       0.3353   0.6644   0.6035     C
C      0.33652   0.0444     0.56     C
C      0.33652   0.9556     0.06     C
N      0.33849   0.4925  0.42972     N
N      0.33849   0.5075  0.92972     N
C       0.3412   0.2182   0.4273     C
C       0.3412   0.7818   0.9273     C
H        0.342   0.0355   0.7009     H
H        0.342   0.9645   0.2009     H
C       0.3443   0.3412   0.6602     C
C       0.3443   0.6588   0.1602     C
C      0.34646   0.1026   0.4907     C
C      0.34646   0.8974   0.9907     C
H       0.3495    0.079   0.5856     H
H       0.3495    0.921   0.0856     H
C       0.3499   0.3054   0.7007     C
C       0.3499   0.6946   0.2007     C
H       0.3501   0.0144   0.0583     H
H       0.3501   0.9856   0.5583     H
H       0.3526   0.4189   0.5406     H
H       0.3526   0.5811   0.0406     H
H       0.3541   0.0057   0.9536     H
H       0.3541   0.9943   0.4536     H
C       0.3547   0.2525   0.0079     C
C       0.3547   0.7475   0.5079     C
C      0.35866   0.2728   0.0501     C
C      0.35866   0.7272   0.5501     C
H       0.3619   0.4355   0.8749     H
H       0.3619   0.5645   0.3749     H
H       0.3627   0.4384   0.6255     H
H       0.3627   0.5616   0.1255     H
C       0.3655   0.0124   0.7169     C
C       0.3655   0.9876   0.2169     C
C       0.3668   0.4158   0.6526     C
C       0.3668   0.5842   0.1526     C
C      0.36751    0.019   0.4816     C
C      0.36751    0.981   0.9816     C
H       0.3676   0.2236    0.433     H
H       0.3676   0.7764    0.933     H
H       0.3681   0.0913   0.1763     H
H       0.3681   0.9087   0.6763     H
H       0.3689   0.0345   0.0012     H
C       0.3689   0.3104   0.1351     C
C       0.3689   0.6896   0.6351     C
H       0.3689   0.9655   0.5012     H
C      0.36909    0.475   0.4955     C
C      0.36909    0.525   0.9955     C
C       0.3708    0.137   0.7726     C
C       0.3708    0.863   0.2726     C
H       0.3713   0.3214    0.163     H
H       0.3713   0.6786    0.663     H
C      0.37331   0.4727   0.9361     C
C      0.37331   0.5273   0.4361     C
C      0.37526   0.4453   0.5386     C
C      0.37526   0.5547   0.0386     C
O      0.37802   0.2527  0.82741     O
O      0.37802   0.7473  0.32741     O
C       0.3788    0.348    0.734     C
C       0.3788    0.652    0.234     C
C       0.3812   0.0637   0.2024     C
C       0.3812   0.9363   0.7024     C
O       0.3815   0.2141  0.95806     O
O       0.3815   0.7859  0.45806     O
H       0.3824   0.0646   0.3942     H
H       0.3824   0.9354   0.8942     H
H       0.3829    0.498   0.0567     H
H       0.3829    0.502   0.5567     H
C        0.383     0.43   0.9004     C
C        0.383     0.57   0.4004     C
H       0.3831   0.3265   0.7613     H
H       0.3831   0.6735   0.2613     H
C       0.3849   0.0566   0.7563     C
C       0.3849   0.9434   0.2563     C
C      0.38537   0.2233   0.9988     C
C      0.38537   0.7767   0.4988     C
H       0.3897   0.3613   0.9059     H
H       0.3897   0.6387   0.4059     H
C      0.39187   0.1736   0.8117     C
C      0.39187   0.8264   0.3117     C
H       0.3927   0.2672   0.8507     H
H       0.3927   0.7328   0.3507     H
C       0.3932   0.2508   0.0838     C
C       0.3932   0.7492   0.5838     C
C      0.39342   0.4832   0.9774     C
C      0.39342   0.5168   0.4774     C
H       0.3943   0.3954    0.547     H
H       0.3943   0.6046    0.047     H
C       0.3954   0.4554   0.6865     C
C       0.3954   0.5446   0.1865     C
H       0.3962   0.0452   0.9044     H
H       0.3962   0.9548   0.4044     H
C       0.3986   0.2697   0.1262     C
C       0.3986   0.7303   0.6262     C
C       0.4007   0.4204   0.7268     C
C       0.4007   0.5796   0.2268     C
H       0.4018   0.2012    0.956     H
H       0.4018   0.7988    0.456     H
H       0.4037   0.4659   0.8974     H
H       0.4037   0.5341   0.3974     H
C       0.4038   0.0232   0.4068     C
C       0.4038   0.9768   0.9068     C
C      0.40676   0.0472   0.4844     C
C      0.40676   0.9528   0.9844     C
H       0.4107   0.4953   0.1823     H
H       0.4107   0.5047   0.6823     H
C       0.4153   0.1004   0.2245     C
C       0.4153   0.8996   0.7245     C
H       0.4156   0.1393   0.5629     H
H       0.4156   0.8607   0.0629     H
H       0.4198   0.4473   0.7493     H
H       0.4198   0.5527   0.2493     H
C      0.42026   0.2037    0.031     C
C      0.42026   0.7963    0.531     C
C       0.4206   0.0189   0.7784     C
C       0.4206   0.9811   0.2784     C
H       0.4211   0.2555   0.1474     H
H       0.4211   0.7445   0.6474     H
H       0.4214   0.0333   0.3927     H
C       0.4214   0.0496    0.452     C
C       0.4214   0.9504    0.952     C
H       0.4214   0.9667   0.8927     H
C      0.42283   0.2148   0.0719     C
C      0.42283   0.7852   0.5719     C
H       0.4248   0.1537    0.214     H
H       0.4248   0.8463    0.714     H
H       0.4257   0.3346   0.4548     H
H       0.4257   0.6654   0.9548     H
C      0.42644    0.133   0.8359     C
C      0.42644    0.867   0.3359     C
H       0.4299     0.03   0.5734     H
H       0.4299     0.97   0.0734     H
C      0.43292   0.4527   0.9995     C
C      0.43292   0.5473   0.4995     C
H       0.4332   0.3983   0.0184     H
H       0.4332   0.6017   0.5184     H
C       0.4348    0.093   0.5631     C
C       0.4348    0.907   0.0631     C
C      0.43528    0.081   0.5196     C
C      0.43528    0.919   0.0196     C
C       0.4353   0.0605   0.2614     C
C       0.4353   0.9395   0.7614     C
O      0.43656   0.2417  0.89271     O
O      0.43656   0.7583  0.39271     O
C       0.4405   0.0574   0.8195     C
C       0.4405   0.9426   0.3195     C
H        0.443   0.4277   0.9788     H
H        0.443   0.5723   0.4788     H
H       0.4451   0.1978   0.0928     H
H       0.4451   0.8022   0.5928     H
C       0.4481   0.1706   0.8785     C
C       0.4481   0.8294   0.3785     C
O      0.45133   0.1785  0.98262     O
O      0.45133   0.8215  0.48262     O
C       0.4524   0.3393   0.4643     C
C       0.4524   0.6607   0.9643     C
C      0.45432    0.176   0.0214     C
C      0.45432    0.824   0.5214     C
N        0.456   0.0806  0.46868     N
N        0.456   0.9194  0.96868     N
H       0.4569   0.4515   0.1032     H
H       0.4569   0.5485   0.6032     H
C      0.45828   0.4663   0.5243     C
C      0.45828   0.5337   0.0243     C
H       0.4585   0.1176    0.581     H
H       0.4585   0.8824    0.081     H
H       0.4589    0.085   0.2761     H
H       0.4589    0.915   0.7761     H
H       0.4597   0.3849   0.4468     H
H       0.4597   0.6151   0.9468     H
H       0.4628    0.275   0.4629     H
H       0.4628    0.725   0.9629     H
H       0.4634   0.0299   0.8352     H
H       0.4634   0.9701   0.3352     H
N      0.46571   0.1017  0.50986     N
N      0.46571   0.8983  0.00986     N
C      0.46667   0.3763   0.5095     C
C      0.46667   0.6237   0.0095     C
H       0.4709   0.0868   0.4548     H
H       0.4709   0.9132   0.9548     H
O      0.47577   0.1239  0.90111     O
O      0.47577   0.8761  0.40111     O
C       0.4781   0.4667    0.566     C
C       0.4781   0.5333    0.066     C
C        0.481   0.4604   0.1008     C
C        0.481   0.5396   0.6008     C
O      0.48368   0.1547  0.05005     O
O      0.48368   0.8453  0.55005     O
H       0.4885   0.3655   0.9011     H
H       0.4885   0.6345   0.4011     H
N       0.4897   0.3232  0.54049     N
N       0.4897   0.6768  0.04049     N
H       0.4899   0.3977   0.0945     H
H       0.4899   0.6023   0.5945     H
Co     0.49039  0.18455  0.95786    Co
Co     0.49039  0.81545  0.45786    Co
N      0.49661   0.3816   0.5743     N
N      0.49661   0.6184   0.0743     N
H       0.4981   0.4855   0.1268     H
H       0.4981   0.5145   0.6268     H
H       0.5019   0.4855   0.3732     H
H       0.5019   0.5145   0.8732     H
N      0.50339   0.3816   0.9257     N
N      0.50339   0.6184   0.4257     N
Co     0.50961  0.18455  0.54214    Co
Co     0.50961  0.81545  0.04214    Co
H       0.5101   0.3977   0.4055     H
H       0.5101   0.6023   0.9055     H
N       0.5103   0.3232  0.95951     N
N       0.5103   0.6768  0.45951     N
H       0.5115   0.3655   0.5989     H
H       0.5115   0.6345   0.0989     H
O      0.51632   0.1547  0.44995     O
O      0.51632   0.8453  0.94995     O
C        0.519   0.4604   0.3992     C
C        0.519   0.5396   0.8992     C
C       0.5219   0.4667    0.934     C
C       0.5219   0.5333    0.434     C
O      0.52423   0.1239  0.59889     O
O      0.52423   0.8761  0.09889     O
H       0.5291   0.0868   0.0452     H
H       0.5291   0.9132   0.5452     H
C      0.53333   0.3763   0.9905     C
C      0.53333   0.6237   0.4905     C
N      0.53429   0.1017  0.99014     N
N      0.53429   0.8983  0.49014     N
H       0.5366   0.0299   0.6648     H
H       0.5366   0.9701   0.1648     H
H       0.5372    0.275   0.0371     H
H       0.5372    0.725   0.5371     H
H       0.5403   0.3849   0.0532     H
H       0.5403   0.6151   0.5532     H
H       0.5411    0.085   0.2239     H
H       0.5411    0.915   0.7239     H
H       0.5415   0.1176    0.919     H
H       0.5415   0.8824    0.419     H
C      0.54172   0.4663   0.9757     C
C      0.54172   0.5337   0.4757     C
H       0.5431   0.4515   0.3968     H
H       0.5431   0.5485   0.8968     H
N        0.544   0.0806  0.03132     N
N        0.544   0.9194  0.53132     N
C      0.54568    0.176   0.4786     C
C      0.54568    0.824   0.9786     C
C       0.5476   0.3393   0.0357     C
C       0.5476   0.6607   0.5357     C
O      0.54867   0.1785  0.51738     O
O      0.54867   0.8215  0.01738     O
C       0.5519   0.1706   0.6215     C
C       0.5519   0.8294   0.1215     C
H       0.5549   0.1978   0.4072     H
H       0.5549   0.8022   0.9072     H
H        0.557   0.4277   0.5212     H
H        0.557   0.5723   0.0212     H
C       0.5595   0.0574   0.6805     C
C       0.5595   0.9426   0.1805     C
O      0.56344   0.2417  0.60729     O
O      0.56344   0.7583  0.10729     O
C       0.5647   0.0605   0.2386     C
C       0.5647   0.9395   0.7386     C
C      0.56472    0.081   0.9804     C
C      0.56472    0.919   0.4804     C
C       0.5652    0.093   0.9369     C
C       0.5652    0.907   0.4369     C
H       0.5668   0.3983   0.4816     H
H       0.5668   0.6017   0.9816     H
C      0.56708   0.4527   0.5005     C
C      0.56708   0.5473   0.0005     C
H       0.5701     0.03   0.9266     H
H       0.5701     0.97   0.4266     H
C      0.57356    0.133   0.6641     C
C      0.57356    0.867   0.1641     C
H       0.5743   0.3346   0.0452     H
H       0.5743   0.6654   0.5452     H
H       0.5752   0.1537    0.286     H
H       0.5752   0.8463    0.786     H
C      0.57717   0.2148   0.4281     C
C      0.57717   0.7852   0.9281     C
H       0.5786   0.0333   0.1073     H
C       0.5786   0.0496    0.048     C
C       0.5786   0.9504    0.548     C
H       0.5786   0.9667   0.6073     H
H       0.5789   0.2555   0.3526     H
H       0.5789   0.7445   0.8526     H
C       0.5794   0.0189   0.7216     C
C       0.5794   0.9811   0.2216     C
C      0.57974   0.2037    0.469     C
C      0.57974   0.7963    0.969     C
H       0.5802   0.4473   0.7507     H
H       0.5802   0.5527   0.2507     H
H       0.5844   0.1393   0.9371     H
H       0.5844   0.8607   0.4371     H
C       0.5847   0.1004   0.2755     C
C       0.5847   0.8996   0.7755     C
H       0.5893   0.4953   0.3177     H
H       0.5893   0.5047   0.8177     H
C      0.59324   0.0472   0.0156     C
C      0.59324   0.9528   0.5156     C
C       0.5962   0.0232   0.0932     C
C       0.5962   0.9768   0.5932     C
H       0.5963   0.4659   0.6026     H
H       0.5963   0.5341   0.1026     H
H       0.5982   0.2012    0.544     H
H       0.5982   0.7988    0.044     H
C       0.5993   0.4204   0.7732     C
C       0.5993   0.5796   0.2732     C
C       0.6014   0.2697   0.3738     C
C       0.6014   0.7303   0.8738     C
H       0.6038   0.0452   0.5956     H
H       0.6038   0.9548   0.0956     H
C       0.6046   0.4554   0.8135     C
C       0.6046   0.5446   0.3135     C
H       0.6057   0.3954    0.953     H
H       0.6057   0.6046    0.453     H
C      0.60658   0.4832   0.5226     C
C      0.60658   0.5168   0.0226     C
C       0.6068   0.2508   0.4162     C
C       0.6068   0.7492   0.9162     C
H       0.6073   0.2672   0.6493     H
H       0.6073   0.7328   0.1493     H
C      0.60813   0.1736   0.6883     C
C      0.60813   0.8264   0.1883     C
H       0.6103   0.3613   0.5941     H
H       0.6103   0.6387   0.0941     H
C      0.61463   0.2233   0.5012     C
C      0.61463   0.7767   0.0012     C
C       0.6151   0.0566   0.7437     C
C       0.6151   0.9434   0.2437     C
H       0.6169   0.3265   0.7387     H
H       0.6169   0.6735   0.2387     H
C        0.617     0.43   0.5996     C
C        0.617     0.57   0.0996     C
H       0.6171    0.498   0.4433     H
H       0.6171    0.502   0.9433     H
H       0.6176   0.0646   0.1058     H
H       0.6176   0.9354   0.6058     H
O       0.6185   0.2141  0.54194     O
O       0.6185   0.7859  0.04194     O
C       0.6188   0.0637   0.2976     C
C       0.6188   0.9363   0.7976     C
C       0.6212    0.348    0.766     C
C       0.6212    0.652    0.266     C
O      0.62198   0.2527  0.67259     O
O      0.62198   0.7473  0.17259     O
C      0.62474   0.4453   0.9614     C
C      0.62474   0.5547   0.4614     C
C      0.62669   0.4727   0.5639     C
C      0.62669   0.5273   0.0639     C
H       0.6287   0.3214    0.337     H
H       0.6287   0.6786    0.837     H
C       0.6292    0.137   0.7274     C
C       0.6292    0.863   0.2274     C
C      0.63091    0.475   0.0045     C
C      0.63091    0.525   0.5045     C
H       0.6311   0.0345   0.4988     H
C       0.6311   0.3104   0.3649     C
C       0.6311   0.6896   0.8649     C
H       0.6311   0.9655   0.9988     H
H       0.6319   0.0913   0.3237     H
H       0.6319   0.9087   0.8237     H
H       0.6324   0.2236    0.067     H
H       0.6324   0.7764    0.567     H
C      0.63249    0.019   0.0184     C
C      0.63249    0.981   0.5184     C
C       0.6332   0.4158   0.8474     C
C       0.6332   0.5842   0.3474     C
C       0.6345   0.0124   0.7831     C
C       0.6345   0.9876   0.2831     C
H       0.6373   0.4384   0.8745     H
H       0.6373   0.5616   0.3745     H
H       0.6381   0.4355   0.6251     H
H       0.6381   0.5645   0.1251     H
C      0.64134   0.2728   0.4499     C
C      0.64134   0.7272   0.9499     C
C       0.6453   0.2525   0.4921     C
C       0.6453   0.7475   0.9921     C
H       0.6459   0.0057   0.5464     H
H       0.6459   0.9943   0.0464     H
H       0.6474   0.4189   0.9594     H
H       0.6474   0.5811   0.4594     H
H       0.6499   0.0144   0.4417     H
H       0.6499   0.9856   0.9417     H
C       0.6501   0.3054   0.7993     C
C       0.6501   0.6946   0.2993     C
H       0.6505    0.079   0.9144     H
H       0.6505    0.921   0.4144     H
C      0.65354   0.1026   0.0093     C
C      0.65354   0.8974   0.5093     C
C       0.6557   0.3412   0.8398     C
C       0.6557   0.6588   0.3398     C
H        0.658   0.0355   0.7991     H
H        0.658   0.9645   0.2991     H
C       0.6588   0.2182   0.0727     C
C       0.6588   0.7818   0.5727     C
N      0.66151   0.4925  0.07028     N
N      0.66151   0.5075  0.57028     N
C      0.66348   0.0444     0.94     C
C      0.66348   0.9556     0.44     C
C       0.6647   0.3356   0.3965     C
C       0.6647   0.6644   0.8965     C
N        0.665   0.4599  0.03393     N
N        0.665   0.5401  0.53393     N
C      0.66563   0.1892   0.0333     C
C      0.66563   0.8108   0.5333     C
C      0.66667   0.1835   0.7504     C
C      0.66667   0.8165   0.2504     C
C      0.66682   0.1104   0.9765     C
C      0.66682   0.8896   0.4765     C
H        0.669   0.1686   0.0938     H
H        0.669   0.8314   0.5938     H
C       0.6701   0.3174   0.4373     C
C       0.6701   0.6826   0.9373     C
H       0.6704    0.281   0.0824     H
H       0.6704    0.719   0.5824     H
H       0.6707    0.236   0.7329     H
H       0.6707    0.764   0.2329     H
C      0.67271   0.2267  0.79326     C
C      0.67271   0.7733  0.29326     C
H       0.6762   0.3021   0.5506     H
H       0.6762   0.6979   0.0506     H
H       0.6763    0.234    0.605     H
H       0.6763    0.766    0.105     H
H       0.6791   0.4912   0.0943     H
H       0.6791   0.5088   0.5943     H
C      0.68163   0.2679   0.5282     C
C      0.68163   0.7321   0.0282     C
H       0.6819   0.1608    0.668     H
H       0.6819   0.8392    0.168     H
C       0.6832   0.2983   0.8739     C
C       0.6832   0.7017   0.3739     C
H       0.6835   0.3653   0.3892     H
H       0.6835   0.6347   0.8892     H
N      0.68469   0.2478  0.01572     N
N      0.68469   0.7522  0.51572     N
N      0.68517   0.1992  0.98145     N
N      0.68517   0.8008  0.48145     N
H       0.6857   0.1335   0.7533     H
H       0.6857   0.3194   0.9008     H
H       0.6857   0.6806   0.4008     H
H       0.6857   0.8665   0.2533     H
H       0.6879   0.0262   0.9405     H
H       0.6879   0.9738   0.4405     H
C      0.69001   0.1758   0.6131     C
C      0.69001   0.8242   0.1131     C
H       0.6928    0.334   0.4577     H
H       0.6928    0.666   0.9577     H
C       0.6937   0.1321    0.651     C
C       0.6937   0.8679    0.151     C
H       0.6958   0.2213   0.9646     H
H       0.6958   0.7787   0.4646     H
H       0.6974   0.3111   0.5187     H
H       0.6974   0.6889   0.0187     H
C      0.70161   0.1914   0.8273     C
C      0.70161   0.8086   0.3273     C
C      0.70357   0.1732   0.5463     C
C      0.70357   0.8268   0.0463     C
C      0.70679   0.2258  0.86923     C
C      0.70679   0.7742  0.36923     C
C      0.70718   0.1321   0.5862     C
C      0.70718   0.8679   0.0862     C
Co     0.71025  0.38202  0.03267    Co
Co     0.71025  0.61798  0.53267    Co
C       0.7142   0.0472   0.6641     C
C       0.7142   0.9528   0.1641     C
H       0.7169   0.0201   0.6902     H
H       0.7169   0.9799   0.1902     H
O      0.71829   0.1643  0.48424     O
O      0.71829   0.8357  0.98424     O
O      0.71854   0.4109  0.97642     O
O      0.71854   0.5891  0.47642     O
C      0.72082   0.1261   0.5217     C
C      0.72082   0.8739   0.0217     C
O      0.72392   0.1195  0.82096     O
O      0.72392   0.8805  0.32096     O
C      0.72706    0.043    0.599     C
C      0.72706    0.957    0.099     C
C       0.7311   0.0016   0.6383     C
C       0.7311   0.9984   0.1383     C
C      0.73677   0.1827  0.90486     C
C      0.73677   0.8173  0.40486     C
O      0.73739   0.2018   0.9417     O
O      0.73739   0.7982   0.4417     O
O      0.73787   0.3689  0.09969     O
O      0.73787   0.6311  0.59969     O
C      0.73856   0.4864    0.991     C
C      0.73856   0.5136    0.491     C
H       0.7405   0.1066   0.8432     H
H       0.7405   0.8934   0.3432     H
H       0.7415   0.4404   0.9172     H
H       0.7415   0.5596   0.4172     H
C      0.74231   0.0381   0.5359     C
C      0.74231   0.9619   0.0359     C
O      0.74274   0.4793   0.5267     O
O      0.74274   0.5207   0.0267     O
C      0.74482   0.0018   0.0737     C
C      0.74482   0.9982   0.5737     C
H        0.745   0.0561   0.1471     H
H        0.745   0.9439   0.6471     H
H        0.755   0.4439   0.8529     H
H        0.755   0.5561   0.3529     H
C      0.75518   0.4982   0.9263     C
C      0.75518   0.5018   0.4263     C
O      0.75726   0.0207   0.4733     O
O      0.75726   0.9793   0.9733     O
C      0.75769   0.4619   0.4641     C
C      0.75769   0.5381   0.9641     C
H       0.7585   0.0596   0.0828     H
H       0.7585   0.9404   0.5828     H
H       0.7595   0.3934   0.1568     H
H       0.7595   0.6066   0.6568     H
C      0.76144   0.0136    0.009     C
C      0.76144   0.9864    0.509     C
O      0.76213   0.1311  0.90031     O
O      0.76213   0.8689  0.40031     O
O      0.76261   0.2982   0.0583     O
O      0.76261   0.7018   0.5583     O
C      0.76323   0.3173  0.09514     C
C      0.76323   0.6827  0.59514     C
C       0.7689   0.4984   0.3617     C
C       0.7689   0.5016   0.8617     C
C      0.77294    0.457    0.401     C
C      0.77294    0.543    0.901     C
O      0.77608   0.3805  0.17904     O
O      0.77608   0.6195  0.67904     O
C      0.77918   0.3739   0.4783     C
C      0.77918   0.6261   0.9783     C
O      0.78146   0.0891  0.02358     O
O      0.78146   0.9109  0.52358     O
O      0.78171   0.3357  0.51576     O
O      0.78171   0.6643  0.01576     O
H       0.7831   0.4799   0.3098     H
H       0.7831   0.5201   0.8098     H
C       0.7858   0.4528   0.3359     C
C       0.7858   0.5472   0.8359     C
Co     0.78975  0.11798  0.96733    Co
Co     0.78975  0.88202  0.46733    Co
C      0.79282   0.3679   0.4138     C
C      0.79282   0.6321   0.9138     C
C      0.79321   0.2742  0.13077     C
C      0.79321   0.7258  0.63077     C
C      0.79643   0.3268   0.4537     C
C      0.79643   0.6732   0.9537     C
C      0.79839   0.3086   0.1727     C
C      0.79839   0.6914   0.6727     C
H       0.8026   0.1889   0.4813     H
H       0.8026   0.8111   0.9813     H
H       0.8042   0.2787   0.0354     H
H       0.8042   0.7213   0.5354     H
C       0.8063   0.3679    0.349     C
C       0.8063   0.6321    0.849     C
H       0.8072    0.166   0.5423     H
H       0.8072    0.834   0.0423     H
C      0.80999   0.3242   0.3869     C
C      0.80999   0.6758   0.8869     C
H       0.8121   0.4738   0.0595     H
H       0.8121   0.5262   0.5595     H
H       0.8143   0.1806   0.0992     H
H       0.8143   0.3665   0.2467     H
H       0.8143   0.6335   0.7467     H
H       0.8143   0.8194   0.5992     H
N      0.81483   0.3008  0.01855     N
N      0.81483   0.6992  0.51855     N
N      0.81531   0.2522  0.98428     N
N      0.81531   0.7478  0.48428     N
H       0.8165   0.1347   0.6108     H
H       0.8165   0.8653   0.1108     H
C       0.8168   0.2017   0.1261     C
C       0.8168   0.7983   0.6261     C
H       0.8181   0.3392    0.332     H
H       0.8181   0.6608    0.832     H
C      0.81837   0.2321   0.4718     C
C      0.81837   0.7679   0.9718     C
H       0.8209   0.0088   0.9057     H
H       0.8209   0.9912   0.4057     H
H       0.8237    0.266    0.395     H
H       0.8237    0.734    0.895     H
H       0.8238   0.1979   0.4494     H
H       0.8238   0.8021   0.9494     H
C      0.82729   0.2733  0.20674     C
C      0.82729   0.7267  0.70674     C
H       0.8293    0.264   0.2671     H
H       0.8293    0.736   0.7671     H
H       0.8296    0.219   0.9176     H
H       0.8296    0.781   0.4176     H
C       0.8299   0.1826   0.5627     C
C       0.8299   0.8174   0.0627     C
H        0.831   0.3314   0.9062     H
H        0.831   0.6686   0.4062     H
C      0.83318   0.3896   0.0235     C
C      0.83318   0.6104   0.5235     C
C      0.83333   0.3165   0.2496     C
C      0.83333   0.6835   0.7496     C
C      0.83437   0.3108   0.9667     C
C      0.83437   0.6892   0.4667     C
N        0.835   0.0401  0.96607     N
N        0.835   0.9599  0.46607     N
C       0.8353   0.1644   0.6035     C
C       0.8353   0.8356   0.1035     C
C      0.83652   0.4556     0.06     C
C      0.83652   0.5444     0.56     C
N      0.83849   0.0075  0.92972     N
N      0.83849   0.9925  0.42972     N
C       0.8412   0.2818   0.9273     C
C       0.8412   0.7182   0.4273     C
H        0.842   0.4645   0.2009     H
H        0.842   0.5355   0.7009     H
C       0.8443   0.1588   0.1602     C
C       0.8443   0.8412   0.6602     C
C      0.84646   0.3974   0.9907     C
C      0.84646   0.6026   0.4907     C
H       0.8495    0.421   0.0856     H
H       0.8495    0.579   0.5856     H
C       0.8499   0.1946   0.2007     C
C       0.8499   0.8054   0.7007     C
H       0.8501   0.4856   0.5583     H
H       0.8501   0.5144   0.0583     H
H       0.8526   0.0811   0.0406     H
H       0.8526   0.9189   0.5406     H
H       0.8541   0.4943   0.4536     H
H       0.8541   0.5057   0.9536     H
C       0.8547   0.2475   0.5079     C
C       0.8547   0.7525   0.0079     C
C      0.85866   0.2272   0.5501     C
C      0.85866   0.7728   0.0501     C
H       0.8619   0.0645   0.3749     H
H       0.8619   0.9355   0.8749     H
H       0.8627   0.0616   0.1255     H
H       0.8627   0.9384   0.6255     H
C       0.8655   0.4876   0.2169     C
C       0.8655   0.5124   0.7169     C
C       0.8668   0.0842   0.1526     C
C       0.8668   0.9158   0.6526     C
C      0.86751    0.481   0.9816     C
C      0.86751    0.519   0.4816     C
H       0.8676   0.2764    0.933     H
H       0.8676   0.7236    0.433     H
H       0.8681   0.4087   0.6763     H
H       0.8681   0.5913   0.1763     H
C       0.8689   0.1896   0.6351     C
H       0.8689   0.4655   0.5012     H
H       0.8689   0.5345   0.0012     H
C       0.8689   0.8104   0.1351     C
C      0.86909    0.025   0.9955     C
C      0.86909    0.975   0.4955     C
C       0.8708    0.363   0.2726     C
C       0.8708    0.637   0.7726     C
H       0.8713   0.1786    0.663     H
H       0.8713   0.8214    0.163     H
C      0.87331   0.0273   0.4361     C
C      0.87331   0.9727   0.9361     C
C      0.87526   0.0547   0.0386     C
C      0.87526   0.9453   0.5386     C
O      0.87802   0.2473  0.32741     O
O      0.87802   0.7527  0.82741     O
C       0.8788    0.152    0.234     C
C       0.8788    0.848    0.734     C
C       0.8812   0.4363   0.7024     C
C       0.8812   0.5637   0.2024     C
O       0.8815   0.2859  0.45806     O
O       0.8815   0.7141  0.95806     O
H       0.8824   0.4354   0.8942     H
H       0.8824   0.5646   0.3942     H
H       0.8829    0.002   0.5567     H
H       0.8829    0.998   0.0567     H
C        0.883     0.07   0.4004     C
C        0.883     0.93   0.9004     C
H       0.8831   0.1735   0.2613     H
H       0.8831   0.8265   0.7613     H
C       0.8849   0.4434   0.2563     C
C       0.8849   0.5566   0.7563     C
C      0.88537   0.2767   0.4988     C
C      0.88537   0.7233   0.9988     C
H       0.8897   0.1387   0.4059     H
H       0.8897   0.8613   0.9059     H
C      0.89187   0.3264   0.3117     C
C      0.89187   0.6736   0.8117     C
H       0.8927   0.2328   0.3507     H
H       0.8927   0.7672   0.8507     H
C       0.8932   0.2492   0.5838     C
C       0.8932   0.7508   0.0838     C
C      0.89342   0.0168   0.4774     C
C      0.89342   0.9832   0.9774     C
H       0.8943   0.1046    0.047     H
H       0.8943   0.8954    0.547     H
C       0.8954   0.0446   0.1865     C
C       0.8954   0.9554   0.6865     C
H       0.8962   0.4548   0.4044     H
H       0.8962   0.5452   0.9044     H
C       0.8986   0.2303   0.6262     C
C       0.8986   0.7697   0.1262     C
C       0.9007   0.0796   0.2268     C
C       0.9007   0.9204   0.7268     C
H       0.9018   0.2988    0.456     H
H       0.9018   0.7012    0.956     H
H       0.9037   0.0341   0.3974     H
H       0.9037   0.9659   0.8974     H
C       0.9038   0.4768   0.9068     C
C       0.9038   0.5232   0.4068     C
C      0.90676   0.4528   0.9844     C
C      0.90676   0.5472   0.4844     C
H       0.9107   0.0047   0.6823     H
H       0.9107   0.9953   0.1823     H
C       0.9153   0.3996   0.7245     C
C       0.9153   0.6004   0.2245     C
H       0.9156   0.3607   0.0629     H
H       0.9156   0.6393   0.5629     H
H       0.9198   0.0527   0.2493     H
H       0.9198   0.9473   0.7493     H
C      0.92026   0.2963    0.531     C
C      0.92026   0.7037    0.031     C
C       0.9206   0.4811   0.2784     C
C       0.9206   0.5189   0.7784     C
H       0.9211   0.2445   0.6474     H
H       0.9211   0.7555   0.1474     H
C       0.9214   0.4504    0.952     C
H       0.9214   0.4667   0.8927     H
H       0.9214   0.5333   0.3927     H
C       0.9214   0.5496    0.452     C
C      0.92283   0.2852   0.5719     C
C      0.92283   0.7148   0.0719     C
H       0.9248   0.3463    0.714     H
H       0.9248   0.6537    0.214     H
H       0.9257   0.1654   0.9548     H
H       0.9257   0.8346   0.4548     H
C      0.92644    0.367   0.3359     C
C      0.92644    0.633   0.8359     C
H       0.9299     0.47   0.0734     H
H       0.9299     0.53   0.5734     H
C      0.93292   0.0473   0.4995     C
C      0.93292   0.9527   0.9995     C
H       0.9332   0.1017   0.5184     H
H       0.9332   0.8983   0.0184     H
C       0.9348    0.407   0.0631     C
C       0.9348    0.593   0.5631     C
C      0.93528    0.419   0.0196     C
C      0.93528    0.581   0.5196     C
C       0.9353   0.4395   0.7614     C
C       0.9353   0.5605   0.2614     C
O      0.93656   0.2583  0.39271     O
O      0.93656   0.7417  0.89271     O
C       0.9405   0.4426   0.3195     C
C       0.9405   0.5574   0.8195     C
H        0.943   0.0723   0.4788     H
H        0.943   0.9277   0.9788     H
H       0.9451   0.3022   0.5928     H
H       0.9451   0.6978   0.0928     H
C       0.9481   0.3294   0.3785     C
C       0.9481   0.6706   0.8785     C
O      0.95133   0.3215  0.48262     O
O      0.95133   0.6785  0.98262     O
C       0.9524   0.1607   0.9643     C
C       0.9524   0.8393   0.4643     C
C      0.95432    0.324   0.5214     C
C      0.95432    0.676   0.0214     C
N        0.956   0.4194  0.96868     N
N        0.956   0.5806  0.46868     N
H       0.9569   0.0485   0.6032     H
H       0.9569   0.9515   0.1032     H
C      0.95828   0.0337   0.0243     C
C      0.95828   0.9663   0.5243     C
H       0.9585   0.3824    0.081     H
H       0.9585   0.6176    0.581     H
H       0.9589    0.415   0.7761     H
H       0.9589    0.585   0.2761     H
H       0.9597   0.1151   0.9468     H
H       0.9597   0.8849   0.4468     H
H       0.9628    0.225   0.9629     H
H       0.9628    0.775   0.4629     H
H       0.9634   0.4701   0.3352     H
H       0.9634   0.5299   0.8352     H
N      0.96571   0.3983  0.00986     N
N      0.96571   0.6017  0.50986     N
C      0.96667   0.1237   0.0095     C
C      0.96667   0.8763   0.5095     C
H       0.9709   0.4132   0.9548     H
H       0.9709   0.5868   0.4548     H
O      0.97577   0.3761  0.40111     O
O      0.97577   0.6239  0.90111     O
C       0.9781   0.0333    0.066     C
C       0.9781   0.9667    0.566     C
C        0.981   0.0396   0.6008     C
C        0.981   0.9604   0.1008     C
O      0.98368   0.3453  0.55005     O
O      0.98368   0.6547  0.05005     O
H       0.9885   0.1345   0.4011     H
H       0.9885   0.8655   0.9011     H
N       0.9897   0.1768  0.04049     N
N       0.9897   0.8232  0.54049     N
H       0.9899   0.1023   0.5945     H
H       0.9899   0.8977   0.0945     H
Co     0.99039  0.31545  0.45786    Co
Co     0.99039  0.68455  0.95786    Co
N      0.99661   0.1184   0.0743     N
N      0.99661   0.8816   0.5743     N
H       0.9981   0.0145   0.6268     H
H       0.9981   0.9855   0.1268     H
