data_I
_chemical_name_common  '/home/zhangsd/repos/MofS-CGCNN/ML/data/SSD/clean_cifs/FUYCIN_clean'
_cell_length_a 17.76580
_cell_length_b 17.76580
_cell_length_c 17.76580
_cell_angle_alpha 90.00000
_cell_angle_beta  90.00000
_cell_angle_gamma 90.00000
_space_group_name_H-M_alt      'P 1'


loop_
_space_group_symop_operation_xyz
  'x, y, z' 

loop_
_atom_site_label
_atom_site_fract_x
_atom_site_fract_y
_atom_site_fract_z
_atom_site_type_symbol
C      0.00501  0.30724   0.1906     C
C      0.00577  0.21457  0.09294     C
H      0.00618  0.91892  0.21858     H
H      0.03142  0.33108  0.24382     H
C      0.03543  0.24423  0.15706     C
O      0.04113   0.1573  0.06848     O
C      0.05724  0.74499   0.4406     C
C      0.05779   0.8412  0.34092     C
C       0.0594  0.94276  0.24499     C
O      0.06848  0.04113   0.1573     O
H      0.08108  0.71858  0.49382     H
C      0.09092   0.9088  0.30779     C
C       0.0912  0.80779  0.40908     C
O       0.0927  0.20887  0.18152     O
C      0.09294  0.00577  0.21457     C
V        0.125    0.125    0.125     V
C      0.15706  0.03543  0.24423     C
O       0.1573  0.06848  0.04113     O
C       0.1588  0.84092  0.44221     C
C      0.15908  0.94221   0.3412     C
H      0.16892  0.75618  0.53142     H
O      0.18152   0.0927  0.20887     O
C       0.1906  0.00501  0.30724     C
C      0.19221  0.90908   0.4088     C
C      0.19276   0.8094  0.50501     C
O      0.20887  0.18152   0.0927     O
C      0.21457  0.09294  0.00577     C
H      0.21858  0.00618  0.91892     H
H      0.24382  0.03142  0.33108     H
C      0.24423  0.15706  0.03543     C
C      0.24499   0.0594  0.94276     C
C      0.25501   0.9406  0.44276     C
C      0.25577  0.84294  0.53543     C
H      0.25618  0.96858  0.83108     H
H      0.28142  0.99382  0.41892     H
C      0.28543  0.90706  0.50577     C
O      0.29113  0.81848   0.5927     O
C      0.30724   0.1906  0.00501     C
C      0.30779  0.09092   0.9088     C
C       0.3094  0.99499  0.80724     C
O      0.31848   0.9073  0.70887     O
H      0.33108  0.24382  0.03142     H
C      0.34092  0.05779   0.8412     C
C       0.3412  0.15908  0.94221     C
O       0.3427  0.93152  0.54113     O
C      0.34294  0.96457  0.74423     C
V        0.375    0.875    0.625     V
C      0.40706  0.99423  0.71457     C
O       0.4073  0.79113  0.68152     O
C       0.4088  0.19221  0.90908     C
C      0.40908   0.0912  0.80779     C
H      0.41892  0.28142  0.99382     H
O      0.43152  0.95887   0.6573     O
C       0.4406  0.05724  0.74499     C
C      0.44221   0.1588  0.84092     C
C      0.44276  0.25501   0.9406     C
O      0.45887   0.8427  0.56848     O
C      0.46457  0.75577  0.65706     C
H      0.46858  0.66892  0.74382     H
H      0.49382  0.08108  0.71858     H
C      0.49423  0.78543  0.59294     C
C      0.49499  0.69276   0.6906     C
C      0.50501  0.19276   0.8094     C
C      0.50577  0.28543  0.90706     C
H      0.50618  0.58108  0.78142     H
H      0.53142  0.16892  0.75618     H
C      0.53543  0.25577  0.84294     C
O      0.54113   0.3427  0.93152     O
C      0.55724  0.75501   0.5594     C
C      0.55779   0.6588  0.65908     C
C       0.5594  0.55724  0.75501     C
O      0.56848  0.45887   0.8427     O
H      0.58108  0.78142  0.50618     H
C      0.59092   0.5912  0.69221     C
C       0.5912  0.69221  0.59092     C
O       0.5927  0.29113  0.81848     O
C      0.59294  0.49423  0.78543     C
V        0.625    0.375    0.875     V
C      0.65706  0.46457  0.75577     C
O       0.6573  0.43152  0.95887     O
C       0.6588  0.65908  0.55779     C
C      0.65908  0.55779   0.6588     C
H      0.66892  0.74382  0.46858     H
O      0.68152   0.4073  0.79113     O
C       0.6906  0.49499  0.69276     C
C      0.69221  0.59092   0.5912     C
C      0.69276   0.6906  0.49499     C
O      0.70887  0.31848   0.9073     O
C      0.71457  0.40706  0.99423     C
H      0.71858  0.49382  0.08108     H
H      0.74382  0.46858  0.66892     H
C      0.74423  0.34294  0.96457     C
C      0.74499   0.4406  0.05724     C
C      0.75501   0.5594  0.55724     C
C      0.75577  0.65706  0.46457     C
H      0.75618  0.53142  0.16892     H
H      0.78142  0.50618  0.58108     H
C      0.78543  0.59294  0.49423     C
O      0.79113  0.68152   0.4073     O
C      0.80724   0.3094  0.99499     C
C      0.80779  0.40908   0.0912     C
C       0.8094  0.50501  0.19276     C
O      0.81848   0.5927  0.29113     O
H      0.83108  0.25618  0.96858     H
C      0.84092  0.44221   0.1588     C
C       0.8412  0.34092  0.05779     C
O       0.8427  0.56848  0.45887     O
C      0.84294  0.53543  0.25577     C
V        0.875    0.625    0.375     V
C      0.90706  0.50577  0.28543     C
O       0.9073  0.70887  0.31848     O
C       0.9088  0.30779  0.09092     C
C      0.90908   0.4088  0.19221     C
H      0.91892  0.21858  0.00618     H
O      0.93152  0.54113   0.3427     O
C       0.9406  0.44276  0.25501     C
C      0.94221   0.3412  0.15908     C
C      0.94276  0.24499   0.0594     C
O      0.95887   0.6573  0.43152     O
C      0.96457  0.74423  0.34294     C
H      0.96858  0.83108  0.25618     H
H      0.99382  0.41892  0.28142     H
C      0.99423  0.71457  0.40706     C
C      0.99499  0.80724   0.3094     C
