data_I
_chemical_name_common  '/home/zhangsd/repos/MofS-CGCNN/ML/data/SSD/clean_cifs/GADFAV_clean'
_cell_length_a  8.88700
_cell_length_b 25.05300
_cell_length_c 10.03900
_cell_angle_alpha 90.00000
_cell_angle_beta  101.56500
_cell_angle_gamma 90.00000
_space_group_name_H-M_alt      'P 1'


loop_
_space_group_symop_operation_xyz
  'x, y, z' 

loop_
_atom_site_label
_atom_site_fract_x
_atom_site_fract_y
_atom_site_fract_z
_atom_site_type_symbol
C          0.0   0.0565      0.0     C
C          0.0   0.1159      0.0     C
La         0.0  0.23412      0.0    La
La         0.0  0.76588      0.0    La
C          0.0   0.8841      0.0     C
C          0.0   0.9435      0.0     C
O       0.0113  0.21775   0.7518     O
O       0.0113  0.78225   0.7518     O
C       0.0241   0.0267   0.1279     C
C       0.0241   0.9733   0.1279     C
Cl     0.04586  0.06292   0.2725    Cl
Cl     0.04586  0.93708   0.2725    Cl
O       0.1251    0.141   0.0061     O
O       0.1251    0.859   0.0061     O
Cl     0.14636  0.34622  0.65594    Cl
Cl     0.14636  0.65378  0.65594    Cl
C       0.1495  0.23315   0.7522     C
C       0.1495  0.76685   0.7522     C
C       0.1976  0.24183   0.6205     C
C       0.1976  0.75817   0.6205     C
C       0.2051  0.29246   0.5673     C
C       0.2051  0.70754   0.5673     C
Cl     0.23063  0.13507  0.61576    Cl
Cl     0.23063  0.86493  0.61576    Cl
O       0.2332  0.24484   0.8659     O
O       0.2332  0.75516   0.8659     O
C       0.2399  0.19891   0.5473     C
C       0.2399  0.80109   0.5473     C
C       0.2601  0.30109   0.4527     C
C       0.2601  0.69891   0.4527     C
O       0.2668  0.25516   0.1341     O
O       0.2668  0.74484   0.1341     O
Cl     0.26937  0.36493  0.38424    Cl
Cl     0.26937  0.63507  0.38424    Cl
C       0.2949  0.20754   0.4327     C
C       0.2949  0.79246   0.4327     C
C       0.3024  0.25817   0.3795     C
C       0.3024  0.74183   0.3795     C
C       0.3505  0.26685   0.2478     C
C       0.3505  0.73315   0.2478     C
Cl     0.35364  0.15378  0.34406    Cl
Cl     0.35364  0.84622  0.34406    Cl
O       0.3749    0.359   0.9939     O
O       0.3749    0.641   0.9939     O
Cl     0.45414  0.43708   0.7275    Cl
Cl     0.45414  0.56292   0.7275    Cl
C       0.4759   0.4733   0.8721     C
C       0.4759   0.5267   0.8721     C
O       0.4887  0.28225   0.2482     O
O       0.4887  0.71775   0.2482     O
La         0.5  0.26588      0.0    La
C          0.5   0.3841      0.0     C
C          0.5   0.4435      0.0     C
C          0.5   0.5565      0.0     C
C          0.5   0.6159      0.0     C
La         0.5  0.73412      0.0    La
O       0.5113  0.28225   0.7518     O
O       0.5113  0.71775   0.7518     O
C       0.5241   0.4733   0.1279     C
C       0.5241   0.5267   0.1279     C
Cl     0.54586  0.43708   0.2725    Cl
Cl     0.54586  0.56292   0.2725    Cl
O       0.6251    0.359   0.0061     O
O       0.6251    0.641   0.0061     O
Cl     0.64636  0.15378  0.65594    Cl
Cl     0.64636  0.84622  0.65594    Cl
C       0.6495  0.26685   0.7522     C
C       0.6495  0.73315   0.7522     C
C       0.6976  0.25817   0.6205     C
C       0.6976  0.74183   0.6205     C
C       0.7051  0.20754   0.5673     C
C       0.7051  0.79246   0.5673     C
Cl     0.73063  0.36493  0.61576    Cl
Cl     0.73063  0.63507  0.61576    Cl
O       0.7332  0.25516   0.8659     O
O       0.7332  0.74484   0.8659     O
C       0.7399  0.30109   0.5473     C
C       0.7399  0.69891   0.5473     C
C       0.7601  0.19891   0.4527     C
C       0.7601  0.80109   0.4527     C
O       0.7668  0.24484   0.1341     O
O       0.7668  0.75516   0.1341     O
Cl     0.76937  0.13507  0.38424    Cl
Cl     0.76937  0.86493  0.38424    Cl
C       0.7949  0.29246   0.4327     C
C       0.7949  0.70754   0.4327     C
C       0.8024  0.24183   0.3795     C
C       0.8024  0.75817   0.3795     C
C       0.8505  0.23315   0.2478     C
C       0.8505  0.76685   0.2478     C
Cl     0.85364  0.34622  0.34406    Cl
Cl     0.85364  0.65378  0.34406    Cl
O       0.8749    0.141   0.9939     O
O       0.8749    0.859   0.9939     O
Cl     0.95414  0.06292   0.7275    Cl
Cl     0.95414  0.93708   0.7275    Cl
C       0.9759   0.0267   0.8721     C
C       0.9759   0.9733   0.8721     C
O       0.9887  0.21775   0.2482     O
O       0.9887  0.78225   0.2482     O
