data_I
_chemical_name_common  '/home/zhangsd/repos/MofS-CGCNN/ML/data/SSD/clean_cifs/GADNUX_clean'
_cell_length_a 26.95600
_cell_length_b 26.95600
_cell_length_c 39.14500
_cell_angle_alpha 90.00000
_cell_angle_beta  90.00000
_cell_angle_gamma 90.00000
_space_group_name_H-M_alt      'P 1'


loop_
_space_group_symop_operation_xyz
  'x, y, z' 

loop_
_atom_site_label
_atom_site_fract_x
_atom_site_fract_y
_atom_site_fract_z
_atom_site_type_symbol
N          0.0      0.5   0.1117     N
N          0.0      0.5   0.3883     N
N          0.0      0.5   0.6117     N
N          0.0      0.5   0.8883     N
N        0.003   0.4752   0.1645     N
N        0.003   0.4752   0.8355     N
H       0.0031   0.7646   0.2669     H
H       0.0031   0.7646   0.7331     H
C       0.0038    0.461   0.1324     C
C       0.0038    0.461   0.8676     C
H       0.0056   0.4564   0.1821     H
H       0.0056   0.4564   0.8179     H
C       0.0064   0.4116     0.12     C
C       0.0064   0.4116     0.88     C
C       0.0114   0.3166   0.0928     C
C       0.0114   0.3166   0.9072     C
H       0.0131   0.2854   0.0828     H
H       0.0131   0.2854   0.9172     H
C       0.0157   0.5993   0.0915     C
C       0.0157   0.5993   0.9085     C
C        0.017   0.6472   0.0772     C
C        0.017   0.6472   0.9228     C
C       0.0204   0.8017   0.2247     C
C       0.0204   0.8017   0.7753     C
N       0.0248    0.497   0.3355     N
N       0.0248    0.497   0.6645     N
H       0.0255   0.7578   0.3247     H
H       0.0255   0.7578   0.6753     H
C       0.0281   0.7823    0.256     C
C       0.0281   0.7823    0.744     C
C       0.0311   0.2065   0.2051     C
C       0.0311   0.2065   0.7949     C
H       0.0317   0.5739   0.0797     H
H       0.0317   0.5739   0.9203     H
C       0.0343   0.3763   0.1368     C
C       0.0343   0.3763   0.8632     C
O       0.0356   0.1803  0.17854     O
O       0.0356   0.1803  0.82146     O
C       0.0381   0.3251   0.1237     C
C       0.0381   0.3251   0.8763     C
C        0.039   0.4962   0.3676     C
C        0.039   0.4962   0.6324     C
H       0.0436   0.4944   0.3179     H
H       0.0436   0.4944   0.6821     H
O       0.0481   0.7046  0.03617     O
O       0.0481   0.7046  0.96383     O
C       0.0488   0.6609   0.0467     C
C       0.0488   0.6609   0.9533     C
H        0.051   0.3849   0.1567     H
H        0.051   0.3849   0.8433     H
H        0.054   0.8408   0.1856     H
H        0.054   0.8408   0.8144     H
N       0.0571   0.7572   0.3275     N
N       0.0571   0.7572   0.6725     N
C       0.0595   0.8274   0.2072     C
C       0.0595   0.8274   0.7928     C
O       0.0608   0.2362  0.21865     O
O       0.0608   0.2362  0.78135     O
O       0.0624   0.2422  0.12828     O
O       0.0624   0.2422  0.87172     O
C       0.0661   0.2832   0.1406     C
C       0.0661   0.2832   0.8594     C
H       0.0739   0.5317   0.4203     H
H       0.0739   0.5317   0.5797     H
O       0.0739   0.6232  0.03561     O
O       0.0739   0.6232  0.96439     O
C       0.0751   0.7892   0.2719     C
C       0.0751   0.7892   0.7281     C
N       0.0838   0.7399   0.3566     N
N       0.0838   0.7399   0.6434     N
C       0.0884   0.4936     0.38     C
C       0.0884   0.4936     0.62     C
O       0.0903   0.2972  0.16668     O
O       0.0903   0.2972  0.83332     O
Cu     0.09169  0.18512  0.14767    Cu
Cu     0.09169  0.18512  0.85233    Cu
C       0.0918   0.7724   0.3054     C
C       0.0918   0.7724   0.6946     C
Cu     0.09331  0.72556      0.0    Cu
C       0.0993   0.5157   0.4085     C
C       0.0993   0.5157   0.5915     C
C       0.1051   0.8322   0.2225     C
C       0.1051   0.8322   0.7775     C
C       0.1109    0.812   0.2544     C
C       0.1109    0.812   0.7456     C
H       0.1151    0.449   0.3433     H
H       0.1151    0.449   0.6567     H
Cu     0.12243  0.24823  0.19589    Cu
Cu     0.12243  0.24823  0.80411    Cu
O       0.1232   0.5739  0.46439     O
O       0.1232   0.5739  0.53561     O
C       0.1237   0.4657   0.3632     C
C       0.1237   0.4657   0.6368     C
Cu     0.12396  0.63164      0.0    Cu
O       0.1246   0.1352  0.17423     O
O       0.1246   0.1352  0.82577     O
C       0.1311    0.749   0.3466     C
C       0.1311    0.749   0.6534     C
Cu     0.13164  0.62396      0.5    Cu
H       0.1347   0.7137   0.4116     H
H       0.1347   0.7137   0.5884     H
N       0.1351   0.7654   0.3169     N
N       0.1351   0.7654   0.6831     N
O       0.1352   0.8754  0.17423     O
O       0.1352   0.8754  0.82577     O
O        0.142   0.7329  0.03554     O
O        0.142   0.7329  0.96446     O
H        0.142   0.8143   0.2646     H
H        0.142   0.8143   0.7354     H
C       0.1432    0.146   0.2013     C
C       0.1432    0.146   0.7987     C
O       0.1459   0.1871  0.21593     O
O       0.1459   0.1871  0.78407     O
C        0.146   0.8568   0.2013     C
C        0.146   0.8568   0.7987     C
C       0.1472    0.517   0.4228     C
C       0.1472    0.517   0.5772     C
O       0.1536   0.6683  0.46435     O
O       0.1536   0.6683  0.53565     O
O       0.1543   0.1997  0.12483     O
O       0.1543   0.1997  0.87517     O
H       0.1592    0.054   0.1856     H
H       0.1592    0.054   0.8144     H
C       0.1609   0.5488   0.4533     C
C       0.1609   0.5488   0.5467     C
C       0.1642    0.698   0.0469     C
C       0.1642    0.698   0.9531     C
C        0.166   0.7145   0.4015     C
C        0.166   0.7145   0.5985     C
C       0.1678   0.1051   0.2225     C
C       0.1678   0.1051   0.7775     C
O       0.1683   0.6536  0.03565     O
O       0.1683   0.6536  0.96435     O
C       0.1716   0.7358   0.3678     C
C       0.1716   0.7358   0.6322     C
C       0.1726   0.0595   0.2072     C
C       0.1726   0.0595   0.7928     C
C       0.1749   0.4619   0.3763     C
C       0.1749   0.4619   0.6237     C
O       0.1803   0.9644  0.17854     O
O       0.1803   0.9644  0.82146     O
O      0.18248   0.2489  0.16689     O
O      0.18248   0.2489  0.83311     O
C       0.1834   0.4886   0.4072     C
C       0.1834   0.4886   0.5928     C
Cu     0.18512  0.90831  0.14767    Cu
Cu     0.18512  0.90831  0.85233    Cu
C       0.1855   0.2228   0.1394     C
C       0.1855   0.2228   0.8606     C
H       0.1857    0.142   0.2646     H
H       0.1857    0.142   0.7354     H
O       0.1871   0.8541  0.21593     O
O       0.1871   0.8541  0.78407     O
C        0.188   0.1109   0.2544     C
C        0.188   0.1109   0.7456     C
H       0.1888   0.7817   0.0819     H
H       0.1888   0.7817   0.9181     H
C       0.1945   0.7082   0.0803     C
C       0.1945   0.7082   0.9197     C
C        0.198   0.6642   0.4531     C
C        0.198   0.6642   0.5469     C
C       0.1983   0.0204   0.2247     C
C       0.1983   0.0204   0.7753     C
O       0.1997   0.8457  0.12483     O
O       0.1997   0.8457  0.87517     O
C       0.2003   0.7546   0.0942     C
C       0.2003   0.7546   0.9058     C
O       0.2028   0.4097  0.33332     O
O       0.2028   0.4097  0.66668     O
O       0.2046   0.5481  0.46383     O
O       0.2046   0.5481  0.53617     O
C       0.2065   0.9689   0.2051     C
C       0.2065   0.9689   0.7949     C
C       0.2082   0.6945   0.4197     C
C       0.2082   0.6945   0.5803     C
C       0.2108   0.0751   0.2719     C
C       0.2108   0.0751   0.7281     C
H       0.2137   0.6347   0.0884     H
H       0.2137   0.6347   0.9116     H
C       0.2145    0.666   0.0985     C
C       0.2145    0.666   0.9015     C
H       0.2146   0.4869   0.4172     H
H       0.2146   0.4869   0.5828     H
C       0.2168   0.4339   0.3594     C
C       0.2168   0.4339   0.6406     C
C       0.2177   0.0281    0.256     C
C       0.2177   0.0281    0.744     C
H       0.2183   0.1888   0.0819     H
H       0.2183   0.1888   0.9181     H
C       0.2201   0.7407   0.3561     C
C       0.2201   0.7407   0.6439     C
C       0.2218    0.763   0.1246     C
C       0.2218    0.763   0.8754     C
C       0.2228   0.8145   0.1394     C
C       0.2228   0.8145   0.8606     C
Cu     0.22556  0.59331      0.5    Cu
H       0.2256   0.7566   0.3354     H
H       0.2256   0.7566   0.6646     H
C       0.2276   0.0918   0.3054     C
C       0.2276   0.0918   0.6946     C
O       0.2329    0.642  0.46446     O
O       0.2329    0.642  0.53554     O
N       0.2346   0.1351   0.3169     N
N       0.2346   0.1351   0.6831     N
H       0.2354   0.0031   0.2669     H
H       0.2354   0.0031   0.7331     H
C       0.2358   0.6716   0.1322     C
C       0.2358   0.6716   0.8678     C
O       0.2362   0.9392  0.21865     O
O       0.2362   0.9392  0.78135     O
C        0.237   0.2218   0.1246     C
C        0.237   0.2218   0.8754     C
N       0.2399   0.5838   0.1434     N
N       0.2399   0.5838   0.8566     N
C       0.2407   0.7201   0.1439     C
C       0.2407   0.7201   0.8561     C
H       0.2422   0.0255   0.3247     H
H       0.2422   0.0255   0.6753     H
O       0.2422   0.9376  0.12828     O
O       0.2422   0.9376  0.87172     O
N       0.2428   0.0571   0.3275     N
N       0.2428   0.0571   0.6725     N
H       0.2434   0.2256   0.3354     H
H       0.2434   0.2256   0.6646     H
C       0.2454   0.2003   0.0942     C
C       0.2454   0.2003   0.9058     C
Cu     0.24823  0.87757  0.19589    Cu
Cu     0.24823  0.87757  0.80411    Cu
O       0.2489  0.81752  0.16689     O
O       0.2489  0.81752  0.83311     O
C        0.249   0.6311   0.1534     C
C        0.249   0.6311   0.8466     C
C        0.251   0.1311   0.3466     C
C        0.251   0.1311   0.6534     C
O       0.2511  0.31752  0.33311     O
O       0.2511  0.31752  0.66689     O
Cu     0.25177  0.37757  0.30411    Cu
Cu     0.25177  0.37757  0.69589    Cu
C       0.2546   0.7003   0.4058     C
C       0.2546   0.7003   0.5942     C
H       0.2566   0.7256   0.1646     H
H       0.2566   0.7256   0.8354     H
N       0.2572   0.5571   0.1725     N
N       0.2572   0.5571   0.8275     N
O       0.2578   0.4376  0.37172     O
O       0.2578   0.4376  0.62828     O
H       0.2578   0.5255   0.1753     H
H       0.2578   0.5255   0.8247     H
C       0.2593   0.2201   0.3561     C
C       0.2593   0.2201   0.6439     C
N       0.2601   0.0838   0.3566     N
N       0.2601   0.0838   0.6434     N
C        0.263   0.7218   0.3754     C
C        0.263   0.7218   0.6246     C
O       0.2638   0.4392  0.28135     O
O       0.2638   0.4392  0.71865     O
C       0.2642   0.1716   0.3678     C
C       0.2642   0.1716   0.6322     C
H       0.2646   0.5031   0.2331     H
H       0.2646   0.5031   0.7669     H
N       0.2654   0.6351   0.1831     N
N       0.2654   0.6351   0.8169     N
O       0.2671    0.142  0.03554     O
O       0.2671    0.142  0.96446     O
C       0.2724   0.5918   0.1946     C
C       0.2724   0.5918   0.8054     C
H       0.2744   0.2566   0.1646     H
H       0.2744   0.2566   0.8354     H
Cu     0.27444  0.09331      0.0    Cu
C       0.2772   0.3145   0.3606     C
C       0.2772   0.3145   0.6394     C
C       0.2782    0.263   0.3754     C
C       0.2782    0.263   0.6246     C
C       0.2799   0.2407   0.1439     C
C       0.2799   0.2407   0.8561     C
H       0.2817   0.6888   0.4181     H
H       0.2817   0.6888   0.5819     H
C       0.2823   0.5281    0.244     C
C       0.2823   0.5281    0.756     C
C       0.2832   0.9339   0.1406     C
C       0.2832   0.9339   0.8594     C
H       0.2854   0.9869   0.0828     H
H       0.2854   0.9869   0.9172     H
C       0.2855    0.166   0.4015     C
C       0.2855    0.166   0.5985     C
H       0.2863   0.1347   0.4116     H
H       0.2863   0.1347   0.5884     H
C       0.2892   0.5751   0.2281     C
C       0.2892   0.5751   0.7719     C
C       0.2918   0.1945   0.0803     C
C       0.2918   0.1945   0.9197     C
C       0.2935   0.4689   0.2949     C
C       0.2935   0.4689   0.7051     C
O       0.2954   0.0481  0.03617     O
O       0.2954   0.0481  0.96383     O
O       0.2972   0.9097  0.16668     O
O       0.2972   0.9097  0.83332     O
C       0.2997   0.2546   0.4058     C
C       0.2997   0.2546   0.5942     C
O       0.3003   0.3457  0.37517     O
O       0.3003   0.3457  0.62483     O
C       0.3017   0.5204   0.2753     C
C       0.3017   0.5204   0.7247     C
C        0.302   0.1642   0.0469     C
C        0.302   0.1642   0.9531     C
C       0.3055   0.2082   0.4197     C
C       0.3055   0.2082   0.5803     C
H       0.3112   0.2817   0.4181     H
H       0.3112   0.2817   0.5819     H
C        0.312   0.6109   0.2456     C
C        0.312   0.6109   0.7544     C
O       0.3129   0.3541  0.28407     O
O       0.3129   0.3541  0.71593     O
H       0.3143    0.642   0.2354     H
H       0.3143    0.642   0.7646     H
C       0.3145   0.7228   0.3606     C
C       0.3145   0.7228   0.6394     C
Cu     0.31488  0.40831  0.35233    Cu
Cu     0.31488  0.40831  0.64767    Cu
C       0.3166   0.9886   0.0928     C
C       0.3166   0.9886   0.9072     C
O      0.31752   0.7489  0.33311     O
O      0.31752   0.7489  0.66689     O
O       0.3197   0.4644  0.32146     O
O       0.3197   0.4644  0.67854     O
C       0.3251   0.9619   0.1237     C
C       0.3251   0.9619   0.8763     C
C       0.3274   0.5595   0.2928     C
C       0.3274   0.5595   0.7072     C
C       0.3284   0.2358   0.1322     C
C       0.3284   0.2358   0.8678     C
O       0.3317   0.1536  0.46435     O
O       0.3317   0.1536  0.53565     O
C       0.3322   0.6051   0.2775     C
C       0.3322   0.6051   0.7225     C
C        0.334   0.2145   0.0985     C
C        0.334   0.2145   0.9015     C
C       0.3358    0.198   0.4531     C
C       0.3358    0.198   0.5469     C
C       0.3391   0.0488   0.0467     C
C       0.3391   0.0488   0.9533     C
H       0.3408    0.554   0.3144     H
H       0.3408    0.554   0.6856     H
O       0.3457   0.6997  0.37517     O
O       0.3457   0.6997  0.62483     O
O       0.3464   0.1683  0.03565     O
O       0.3464   0.1683  0.96435     O
C       0.3528    0.017   0.0772     C
C       0.3528    0.017   0.9228     C
C        0.354   0.3568   0.2987     C
C        0.354   0.3568   0.7013     C
O       0.3541   0.6871  0.28407     O
O       0.3541   0.6871  0.71593     O
C       0.3568    0.646   0.2987     C
C       0.3568    0.646   0.7013     C
O        0.358   0.2329  0.46446     O
O        0.358   0.2329  0.53554     O
H        0.358   0.3143   0.2354     H
H        0.358   0.3143   0.7646     H
O       0.3648   0.3754  0.32577     O
O       0.3648   0.3754  0.67423     O
N       0.3649   0.2654   0.1831     N
N       0.3649   0.2654   0.8169     N
H       0.3653   0.2137   0.0884     H
H       0.3653   0.2137   0.9116     H
Cu     0.36836  0.12396      0.0    Cu
C       0.3689    0.249   0.1534     C
C       0.3689    0.249   0.8466     C
O       0.3754   0.6352  0.32577     O
O       0.3754   0.6352  0.67423     O
Cu     0.37604  0.13164      0.5    Cu
C       0.3763   0.9657   0.1368     C
C       0.3763   0.9657   0.8632     C
O       0.3768   0.0739  0.03561     O
O       0.3768   0.0739  0.96439     O
Cu     0.37757  0.74823  0.30411    Cu
Cu     0.37757  0.74823  0.69589    Cu
H       0.3849    0.949   0.1567     H
H       0.3849    0.949   0.8433     H
C       0.3891    0.312   0.2456     C
C       0.3891    0.312   0.7544     C
C       0.3949   0.3322   0.2775     C
C       0.3949   0.3322   0.7225     C
C       0.4007   0.0157   0.0915     C
C       0.4007   0.0157   0.9085     C
Cu     0.40669  0.22556      0.5    Cu
C       0.4082   0.2724   0.1946     C
C       0.4082   0.2724   0.8054     C
Cu     0.40831  0.68512  0.35233    Cu
Cu     0.40831  0.68512  0.64767    Cu
O       0.4097   0.7972  0.33332     O
O       0.4097   0.7972  0.66668     O
C       0.4116   0.9936     0.12     C
C       0.4116   0.9936     0.88     C
N       0.4162   0.2399   0.1434     N
N       0.4162   0.2399   0.8566     N
C       0.4249   0.2892   0.2281     C
C       0.4249   0.2892   0.7719     C
H       0.4261   0.0317   0.0797     H
H       0.4261   0.0317   0.9203     H
O       0.4261   0.1232  0.46439     O
O       0.4261   0.1232  0.53561     O
C       0.4339   0.7832   0.3594     C
C       0.4339   0.7832   0.6406     C
O       0.4376   0.7422  0.37172     O
O       0.4376   0.7422  0.62828     O
O       0.4392   0.7362  0.28135     O
O       0.4392   0.7362  0.71865     O
C       0.4405   0.3274   0.2928     C
C       0.4405   0.3274   0.7072     C
N       0.4429   0.2572   0.1725     N
N       0.4429   0.2572   0.8275     N
H        0.446   0.3408   0.3144     H
H        0.446   0.3408   0.6856     H
H        0.449   0.8849   0.3433     H
H        0.449   0.8849   0.6567     H
C       0.4512   0.1609   0.4533     C
C       0.4512   0.1609   0.5467     C
O       0.4519   0.2046  0.46383     O
O       0.4519   0.2046  0.53617     O
H       0.4564   0.9944   0.1821     H
H       0.4564   0.9944   0.8179     H
C        0.461   0.9962   0.1324     C
C        0.461   0.9962   0.8676     C
C       0.4619   0.8251   0.3763     C
C       0.4619   0.8251   0.6237     C
O       0.4644   0.6803  0.32146     O
O       0.4644   0.6803  0.67854     O
C       0.4657   0.8763   0.3632     C
C       0.4657   0.8763   0.6368     C
H       0.4683   0.0739   0.4203     H
H       0.4683   0.0739   0.5797     H
C       0.4689   0.7065   0.2949     C
C       0.4689   0.7065   0.7051     C
C       0.4719   0.2823    0.244     C
C       0.4719   0.2823    0.756     C
H       0.4745   0.2578   0.1753     H
H       0.4745   0.2578   0.8247     H
N       0.4752    0.997   0.1645     N
N       0.4752    0.997   0.8355     N
C       0.4796   0.3017   0.2753     C
C       0.4796   0.3017   0.7247     C
C        0.483   0.1472   0.4228     C
C        0.483   0.1472   0.5772     C
C       0.4843   0.0993   0.4085     C
C       0.4843   0.0993   0.5915     C
H       0.4869   0.7854   0.4172     H
H       0.4869   0.7854   0.5828     H
C       0.4886   0.8166   0.4072     C
C       0.4886   0.8166   0.5928     C
C       0.4936   0.9116     0.38     C
C       0.4936   0.9116     0.62     C
H       0.4944   0.9564   0.3179     H
H       0.4944   0.9564   0.6821     H
C       0.4962    0.961   0.3676     C
C       0.4962    0.961   0.6324     C
H       0.4969   0.2646   0.2331     H
H       0.4969   0.2646   0.7669     H
N        0.497   0.9752   0.3355     N
N        0.497   0.9752   0.6645     N
N          0.5      0.0   0.1117     N
N          0.5      0.0   0.3883     N
N          0.5      0.0   0.6117     N
N          0.5      0.0   0.8883     N
N        0.503   0.0248   0.3355     N
N        0.503   0.0248   0.6645     N
H       0.5031   0.7354   0.2331     H
H       0.5031   0.7354   0.7669     H
C       0.5038    0.039   0.3676     C
C       0.5038    0.039   0.6324     C
H       0.5056   0.0436   0.3179     H
H       0.5056   0.0436   0.6821     H
C       0.5064   0.0884     0.38     C
C       0.5064   0.0884     0.62     C
C       0.5114   0.1834   0.4072     C
C       0.5114   0.1834   0.5928     C
H       0.5131   0.2146   0.4172     H
H       0.5131   0.2146   0.5828     H
C       0.5157   0.9007   0.4085     C
C       0.5157   0.9007   0.5915     C
C        0.517   0.8528   0.4228     C
C        0.517   0.8528   0.5772     C
C       0.5204   0.6983   0.2753     C
C       0.5204   0.6983   0.7247     C
N       0.5248    0.003   0.1645     N
N       0.5248    0.003   0.8355     N
H       0.5255   0.7422   0.1753     H
H       0.5255   0.7422   0.8247     H
C       0.5281   0.7177    0.244     C
C       0.5281   0.7177    0.756     C
C       0.5311   0.2935   0.2949     C
C       0.5311   0.2935   0.7051     C
H       0.5317   0.9261   0.4203     H
H       0.5317   0.9261   0.5797     H
C       0.5343   0.1237   0.3632     C
C       0.5343   0.1237   0.6368     C
O       0.5356   0.3197  0.32146     O
O       0.5356   0.3197  0.67854     O
C       0.5381   0.1749   0.3763     C
C       0.5381   0.1749   0.6237     C
C        0.539   0.0038   0.1324     C
C        0.539   0.0038   0.8676     C
H       0.5436   0.0056   0.1821     H
H       0.5436   0.0056   0.8179     H
O       0.5481   0.7954  0.46383     O
O       0.5481   0.7954  0.53617     O
C       0.5488   0.8391   0.4533     C
C       0.5488   0.8391   0.5467     C
H        0.551   0.1151   0.3433     H
H        0.551   0.1151   0.6567     H
H        0.554   0.6592   0.3144     H
H        0.554   0.6592   0.6856     H
N       0.5571   0.7428   0.1725     N
N       0.5571   0.7428   0.8275     N
C       0.5595   0.6726   0.2928     C
C       0.5595   0.6726   0.7072     C
O       0.5608   0.2638  0.28135     O
O       0.5608   0.2638  0.71865     O
O       0.5624   0.2578  0.37172     O
O       0.5624   0.2578  0.62828     O
C       0.5661   0.2168   0.3594     C
C       0.5661   0.2168   0.6406     C
O       0.5739   0.8768  0.46439     O
O       0.5739   0.8768  0.53561     O
H       0.5739   0.9683   0.0797     H
H       0.5739   0.9683   0.9203     H
C       0.5751   0.7108   0.2281     C
C       0.5751   0.7108   0.7719     C
N       0.5838   0.7601   0.1434     N
N       0.5838   0.7601   0.8566     N
C       0.5884   0.0064     0.12     C
C       0.5884   0.0064     0.88     C
O       0.5903   0.2028  0.33332     O
O       0.5903   0.2028  0.66668     O
Cu     0.59169  0.31488  0.35233    Cu
Cu     0.59169  0.31488  0.64767    Cu
C       0.5918   0.7276   0.1946     C
C       0.5918   0.7276   0.8054     C
Cu     0.59331  0.77444      0.5    Cu
C       0.5993   0.9843   0.0915     C
C       0.5993   0.9843   0.9085     C
C       0.6051   0.6678   0.2775     C
C       0.6051   0.6678   0.7225     C
C       0.6109    0.688   0.2456     C
C       0.6109    0.688   0.7544     C
H       0.6151    0.051   0.1567     H
H       0.6151    0.051   0.8433     H
Cu     0.62243  0.25177  0.30411    Cu
Cu     0.62243  0.25177  0.69589    Cu
O       0.6232   0.9261  0.03561     O
O       0.6232   0.9261  0.96439     O
C       0.6237   0.0343   0.1368     C
C       0.6237   0.0343   0.8632     C
Cu     0.62396  0.86836      0.5    Cu
O       0.6246   0.3648  0.32577     O
O       0.6246   0.3648  0.67423     O
C       0.6311    0.751   0.1534     C
C       0.6311    0.751   0.8466     C
Cu     0.63164  0.87604      0.0    Cu
H       0.6347   0.7863   0.0884     H
H       0.6347   0.7863   0.9116     H
N       0.6351   0.7346   0.1831     N
N       0.6351   0.7346   0.8169     N
O       0.6352   0.6246  0.32577     O
O       0.6352   0.6246  0.67423     O
H        0.642   0.6857   0.2354     H
H        0.642   0.6857   0.7646     H
O        0.642   0.7671  0.46446     O
O        0.642   0.7671  0.53554     O
C       0.6432    0.354   0.2987     C
C       0.6432    0.354   0.7013     C
O       0.6459   0.3129  0.28407     O
O       0.6459   0.3129  0.71593     O
C        0.646   0.6432   0.2987     C
C        0.646   0.6432   0.7013     C
C       0.6472    0.983   0.0772     C
C       0.6472    0.983   0.9228     C
O       0.6536   0.8317  0.03565     O
O       0.6536   0.8317  0.96435     O
O       0.6543   0.3003  0.37517     O
O       0.6543   0.3003  0.62483     O
H       0.6592    0.446   0.3144     H
H       0.6592    0.446   0.6856     H
C       0.6609   0.9512   0.0467     C
C       0.6609   0.9512   0.9533     C
C       0.6642    0.802   0.4531     C
C       0.6642    0.802   0.5469     C
C        0.666   0.7855   0.0985     C
C        0.666   0.7855   0.9015     C
C       0.6678   0.3949   0.2775     C
C       0.6678   0.3949   0.7225     C
O       0.6683   0.8464  0.46435     O
O       0.6683   0.8464  0.53565     O
C       0.6716   0.7642   0.1322     C
C       0.6716   0.7642   0.8678     C
C       0.6726   0.4405   0.2928     C
C       0.6726   0.4405   0.7072     C
C       0.6749   0.0381   0.1237     C
C       0.6749   0.0381   0.8763     C
O       0.6803   0.5356  0.32146     O
O       0.6803   0.5356  0.67854     O
O      0.68248   0.2511  0.33311     O
O      0.68248   0.2511  0.66689     O
C       0.6834   0.0114   0.0928     C
C       0.6834   0.0114   0.9072     C
Cu     0.68512  0.59169  0.35233    Cu
Cu     0.68512  0.59169  0.64767    Cu
C       0.6855   0.2772   0.3606     C
C       0.6855   0.2772   0.6394     C
H       0.6857    0.358   0.2354     H
H       0.6857    0.358   0.7646     H
O       0.6871   0.6459  0.28407     O
O       0.6871   0.6459  0.71593     O
C        0.688   0.3891   0.2456     C
C        0.688   0.3891   0.7544     C
H       0.6888   0.7183   0.4181     H
H       0.6888   0.7183   0.5819     H
C       0.6945   0.7918   0.4197     C
C       0.6945   0.7918   0.5803     C
C        0.698   0.8358   0.0469     C
C        0.698   0.8358   0.9531     C
C       0.6983   0.4796   0.2753     C
C       0.6983   0.4796   0.7247     C
O       0.6997   0.6543  0.37517     O
O       0.6997   0.6543  0.62483     O
C       0.7003   0.7454   0.4058     C
C       0.7003   0.7454   0.5942     C
O       0.7028   0.0903  0.16668     O
O       0.7028   0.0903  0.83332     O
O       0.7046   0.9519  0.03617     O
O       0.7046   0.9519  0.96383     O
C       0.7065   0.5311   0.2949     C
C       0.7065   0.5311   0.7051     C
C       0.7082   0.8055   0.0803     C
C       0.7082   0.8055   0.9197     C
C       0.7108   0.4249   0.2281     C
C       0.7108   0.4249   0.7719     C
H       0.7137   0.8653   0.4116     H
H       0.7137   0.8653   0.5884     H
C       0.7145    0.834   0.4015     C
C       0.7145    0.834   0.5985     C
H       0.7146   0.0131   0.0828     H
H       0.7146   0.0131   0.9172     H
C       0.7168   0.0661   0.1406     C
C       0.7168   0.0661   0.8594     C
C       0.7177   0.4719    0.244     C
C       0.7177   0.4719    0.756     C
H       0.7183   0.3112   0.4181     H
H       0.7183   0.3112   0.5819     H
C       0.7201   0.7593   0.1439     C
C       0.7201   0.7593   0.8561     C
C       0.7218    0.737   0.3754     C
C       0.7218    0.737   0.6246     C
C       0.7228   0.6855   0.3606     C
C       0.7228   0.6855   0.6394     C
Cu     0.72556  0.90669      0.0    Cu
H       0.7256   0.7434   0.1646     H
H       0.7256   0.7434   0.8354     H
C       0.7276   0.4082   0.1946     C
C       0.7276   0.4082   0.8054     C
O       0.7329    0.858  0.03554     O
O       0.7329    0.858  0.96446     O
N       0.7346   0.3649   0.1831     N
N       0.7346   0.3649   0.8169     N
H       0.7354   0.4969   0.2331     H
H       0.7354   0.4969   0.7669     H
C       0.7358   0.8284   0.3678     C
C       0.7358   0.8284   0.6322     C
O       0.7362   0.5608  0.28135     O
O       0.7362   0.5608  0.71865     O
C        0.737   0.2782   0.3754     C
C        0.737   0.2782   0.6246     C
N       0.7399   0.9162   0.3566     N
N       0.7399   0.9162   0.6434     N
C       0.7407   0.7799   0.3561     C
C       0.7407   0.7799   0.6439     C
H       0.7422   0.4745   0.1753     H
H       0.7422   0.4745   0.8247     H
O       0.7422   0.5624  0.37172     O
O       0.7422   0.5624  0.62828     O
N       0.7428   0.4429   0.1725     N
N       0.7428   0.4429   0.8275     N
H       0.7434   0.2744   0.1646     H
H       0.7434   0.2744   0.8354     H
C       0.7454   0.2997   0.4058     C
C       0.7454   0.2997   0.5942     C
Cu     0.74823  0.62243  0.30411    Cu
Cu     0.74823  0.62243  0.69589    Cu
O       0.7489  0.68248  0.33311     O
O       0.7489  0.68248  0.66689     O
C        0.749   0.8689   0.3466     C
C        0.749   0.8689   0.6534     C
C        0.751   0.3689   0.1534     C
C        0.751   0.3689   0.8466     C
O       0.7511  0.18248  0.16689     O
O       0.7511  0.18248  0.83311     O
Cu     0.75177  0.12243  0.19589    Cu
Cu     0.75177  0.12243  0.80411    Cu
C       0.7546   0.7997   0.0942     C
C       0.7546   0.7997   0.9058     C
H       0.7566   0.7744   0.3354     H
H       0.7566   0.7744   0.6646     H
N       0.7572   0.9429   0.3275     N
N       0.7572   0.9429   0.6725     N
O       0.7578   0.0624  0.12828     O
O       0.7578   0.0624  0.87172     O
H       0.7578   0.9745   0.3247     H
H       0.7578   0.9745   0.6753     H
C       0.7593   0.2799   0.1439     C
C       0.7593   0.2799   0.8561     C
N       0.7601   0.4162   0.1434     N
N       0.7601   0.4162   0.8566     N
C        0.763   0.7782   0.1246     C
C        0.763   0.7782   0.8754     C
O       0.7638   0.0608  0.21865     O
O       0.7638   0.0608  0.78135     O
C       0.7642   0.3284   0.1322     C
C       0.7642   0.3284   0.8678     C
H       0.7646   0.9969   0.2669     H
H       0.7646   0.9969   0.7331     H
N       0.7654   0.8649   0.3169     N
N       0.7654   0.8649   0.6831     N
O       0.7671    0.358  0.46446     O
O       0.7671    0.358  0.53554     O
C       0.7724   0.9082   0.3054     C
C       0.7724   0.9082   0.6946     C
H       0.7744   0.2434   0.3354     H
H       0.7744   0.2434   0.6646     H
Cu     0.77444  0.40669      0.5    Cu
C       0.7772   0.1855   0.1394     C
C       0.7772   0.1855   0.8606     C
C       0.7782    0.237   0.1246     C
C       0.7782    0.237   0.8754     C
C       0.7799   0.2593   0.3561     C
C       0.7799   0.2593   0.6439     C
H       0.7817   0.8112   0.0819     H
H       0.7817   0.8112   0.9181     H
C       0.7823   0.9719    0.256     C
C       0.7823   0.9719    0.744     C
C       0.7832   0.5661   0.3594     C
C       0.7832   0.5661   0.6406     C
H       0.7854   0.5131   0.4172     H
H       0.7854   0.5131   0.5828     H
C       0.7855    0.334   0.0985     C
C       0.7855    0.334   0.9015     C
H       0.7863   0.3653   0.0884     H
H       0.7863   0.3653   0.9116     H
C       0.7892   0.9249   0.2719     C
C       0.7892   0.9249   0.7281     C
C       0.7918   0.3055   0.4197     C
C       0.7918   0.3055   0.5803     C
C       0.7935   0.0311   0.2051     C
C       0.7935   0.0311   0.7949     C
O       0.7954   0.4519  0.46383     O
O       0.7954   0.4519  0.53617     O
O       0.7972   0.5903  0.33332     O
O       0.7972   0.5903  0.66668     O
C       0.7997   0.2454   0.0942     C
C       0.7997   0.2454   0.9058     C
O       0.8003   0.1543  0.12483     O
O       0.8003   0.1543  0.87517     O
C       0.8017   0.9796   0.2247     C
C       0.8017   0.9796   0.7753     C
C        0.802   0.3358   0.4531     C
C        0.802   0.3358   0.5469     C
C       0.8055   0.2918   0.0803     C
C       0.8055   0.2918   0.9197     C
H       0.8112   0.2183   0.0819     H
H       0.8112   0.2183   0.9181     H
C        0.812   0.8891   0.2544     C
C        0.812   0.8891   0.7456     C
O       0.8129   0.1459  0.21593     O
O       0.8129   0.1459  0.78407     O
H       0.8143    0.858   0.2646     H
H       0.8143    0.858   0.7354     H
C       0.8145   0.7772   0.1394     C
C       0.8145   0.7772   0.8606     C
Cu     0.81488  0.09169  0.14767    Cu
Cu     0.81488  0.09169  0.85233    Cu
C       0.8166   0.5114   0.4072     C
C       0.8166   0.5114   0.5928     C
O      0.81752   0.7511  0.16689     O
O      0.81752   0.7511  0.83311     O
O       0.8197   0.0356  0.17854     O
O       0.8197   0.0356  0.82146     O
C       0.8251   0.5381   0.3763     C
C       0.8251   0.5381   0.6237     C
C       0.8274   0.9405   0.2072     C
C       0.8274   0.9405   0.7928     C
C       0.8284   0.2642   0.3678     C
C       0.8284   0.2642   0.6322     C
O       0.8317   0.3464  0.03565     O
O       0.8317   0.3464  0.96435     O
C       0.8322   0.8949   0.2225     C
C       0.8322   0.8949   0.7775     C
C        0.834   0.2855   0.4015     C
C        0.834   0.2855   0.5985     C
C       0.8358    0.302   0.0469     C
C       0.8358    0.302   0.9531     C
C       0.8391   0.4512   0.4533     C
C       0.8391   0.4512   0.5467     C
H       0.8408    0.946   0.1856     H
H       0.8408    0.946   0.8144     H
O       0.8457   0.8003  0.12483     O
O       0.8457   0.8003  0.87517     O
O       0.8464   0.3317  0.46435     O
O       0.8464   0.3317  0.53565     O
C       0.8528    0.483   0.4228     C
C       0.8528    0.483   0.5772     C
C        0.854   0.1432   0.2013     C
C        0.854   0.1432   0.7987     C
O       0.8541   0.8129  0.21593     O
O       0.8541   0.8129  0.78407     O
C       0.8568    0.854   0.2013     C
C       0.8568    0.854   0.7987     C
H        0.858   0.1857   0.2646     H
H        0.858   0.1857   0.7354     H
O        0.858   0.2671  0.03554     O
O        0.858   0.2671  0.96446     O
O       0.8648   0.1246  0.17423     O
O       0.8648   0.1246  0.82577     O
N       0.8649   0.2346   0.3169     N
N       0.8649   0.2346   0.6831     N
H       0.8653   0.2863   0.4116     H
H       0.8653   0.2863   0.5884     H
Cu     0.86836  0.37604      0.5    Cu
C       0.8689    0.251   0.3466     C
C       0.8689    0.251   0.6534     C
O       0.8754   0.8648  0.17423     O
O       0.8754   0.8648  0.82577     O
Cu     0.87604  0.36836      0.0    Cu
C       0.8763   0.5343   0.3632     C
C       0.8763   0.5343   0.6368     C
O       0.8768   0.4261  0.46439     O
O       0.8768   0.4261  0.53561     O
Cu     0.87757  0.75177  0.19589    Cu
Cu     0.87757  0.75177  0.80411    Cu
H       0.8849    0.551   0.3433     H
H       0.8849    0.551   0.6567     H
C       0.8891    0.188   0.2544     C
C       0.8891    0.188   0.7456     C
C       0.8949   0.1678   0.2225     C
C       0.8949   0.1678   0.7775     C
C       0.9007   0.4843   0.4085     C
C       0.9007   0.4843   0.5915     C
Cu     0.90669  0.27444      0.0    Cu
C       0.9082   0.2276   0.3054     C
C       0.9082   0.2276   0.6946     C
Cu     0.90831  0.81488  0.14767    Cu
Cu     0.90831  0.81488  0.85233    Cu
O       0.9097   0.7028  0.16668     O
O       0.9097   0.7028  0.83332     O
C       0.9116   0.5064     0.38     C
C       0.9116   0.5064     0.62     C
N       0.9162   0.2601   0.3566     N
N       0.9162   0.2601   0.6434     N
C       0.9249   0.2108   0.2719     C
C       0.9249   0.2108   0.7281     C
O       0.9261   0.3768  0.03561     O
O       0.9261   0.3768  0.96439     O
H       0.9261   0.4683   0.4203     H
H       0.9261   0.4683   0.5797     H
C       0.9339   0.7168   0.1406     C
C       0.9339   0.7168   0.8594     C
O       0.9376   0.7578  0.12828     O
O       0.9376   0.7578  0.87172     O
O       0.9392   0.7638  0.21865     O
O       0.9392   0.7638  0.78135     O
C       0.9405   0.1726   0.2072     C
C       0.9405   0.1726   0.7928     C
N       0.9429   0.2428   0.3275     N
N       0.9429   0.2428   0.6725     N
H        0.946   0.1592   0.1856     H
H        0.946   0.1592   0.8144     H
H        0.949   0.6151   0.1567     H
H        0.949   0.6151   0.8433     H
C       0.9512   0.3391   0.0467     C
C       0.9512   0.3391   0.9533     C
O       0.9519   0.2954  0.03617     O
O       0.9519   0.2954  0.96383     O
H       0.9564   0.5056   0.3179     H
H       0.9564   0.5056   0.6821     H
C        0.961   0.5038   0.3676     C
C        0.961   0.5038   0.6324     C
C       0.9619   0.6749   0.1237     C
C       0.9619   0.6749   0.8763     C
O       0.9644   0.8197  0.17854     O
O       0.9644   0.8197  0.82146     O
C       0.9657   0.6237   0.1368     C
C       0.9657   0.6237   0.8632     C
H       0.9683   0.4261   0.0797     H
H       0.9683   0.4261   0.9203     H
C       0.9689   0.7935   0.2051     C
C       0.9689   0.7935   0.7949     C
C       0.9719   0.2177    0.256     C
C       0.9719   0.2177    0.744     C
H       0.9745   0.2422   0.3247     H
H       0.9745   0.2422   0.6753     H
N       0.9752    0.503   0.3355     N
N       0.9752    0.503   0.6645     N
C       0.9796   0.1983   0.2247     C
C       0.9796   0.1983   0.7753     C
C        0.983   0.3528   0.0772     C
C        0.983   0.3528   0.9228     C
C       0.9843   0.4007   0.0915     C
C       0.9843   0.4007   0.9085     C
H       0.9869   0.7146   0.0828     H
H       0.9869   0.7146   0.9172     H
C       0.9886   0.6834   0.0928     C
C       0.9886   0.6834   0.9072     C
C       0.9936   0.5884     0.12     C
C       0.9936   0.5884     0.88     C
H       0.9944   0.5436   0.1821     H
H       0.9944   0.5436   0.8179     H
C       0.9962    0.539   0.1324     C
C       0.9962    0.539   0.8676     C
H       0.9969   0.2354   0.2669     H
H       0.9969   0.2354   0.7331     H
N        0.997   0.5248   0.1645     N
N        0.997   0.5248   0.8355     N
