data_I
_chemical_name_common  '/home/zhangsd/repos/MofS-CGCNN/ML/data/SSD/clean_cifs/GAFBEX_clean'
_cell_length_a  8.59470
_cell_length_b 13.18700
_cell_length_c  9.64620
_cell_angle_alpha 90.00000
_cell_angle_beta  96.49600
_cell_angle_gamma 90.00000
_space_group_name_H-M_alt      'P 1'


loop_
_space_group_symop_operation_xyz
  'x, y, z' 

loop_
_atom_site_label
_atom_site_fract_x
_atom_site_fract_y
_atom_site_fract_z
_atom_site_type_symbol
C       0.0267   0.0481   0.3761     C
C       0.0448   0.1095    0.247     C
O       0.0467   0.0665   0.1301     O
Nd     0.04956  0.23446  0.99658    Nd
O       0.0537    0.206   0.2585     O
C       0.0927   0.0256   0.6271     C
C       0.1203   0.0727   0.5005     C
O       0.1468    0.624   0.0963     O
O       0.1484   0.1158   0.8412     O
O       0.1717   0.5077    0.719     O
C       0.1969    0.051   0.7616     C
O        0.212   0.7117   0.9144     O
C       0.2392   0.6417   0.0033     C
C       0.2608   0.1417   0.4967     C
O        0.288   0.2117   0.5856     O
C       0.3031    0.551   0.7384     C
O       0.3283   0.0077    0.781     O
O       0.3516   0.6158   0.6588     O
O       0.3532    0.124   0.4037     O
C       0.3797   0.5727   0.9995     C
C       0.4073   0.5256   0.8729     C
O       0.4463    0.706   0.2415     O
Nd     0.45044  0.73446  0.50342    Nd
O       0.4533   0.5665   0.3699     O
C       0.4552   0.6095    0.253     C
C       0.4733   0.5481   0.1239     C
C       0.5267   0.4519   0.8761     C
C       0.5448   0.3905    0.747     C
O       0.5467   0.4335   0.6301     O
Nd     0.54956  0.26554  0.49658    Nd
O       0.5537    0.294   0.7585     O
C       0.5927   0.4744   0.1271     C
C       0.6203   0.4273   0.0005     C
O       0.6468    0.876   0.5963     O
O       0.6484   0.3842   0.3412     O
O       0.6717   0.9923    0.219     O
C       0.6969    0.449   0.2616     C
O        0.712   0.7883   0.4144     O
C       0.7392   0.8583   0.5033     C
C       0.7608   0.3583   0.9967     C
O        0.788   0.2883   0.0856     O
C       0.8031    0.949   0.2384     C
O       0.8283   0.4923    0.281     O
O       0.8516   0.8842   0.1588     O
O       0.8532    0.376   0.9037     O
C       0.8797   0.9273   0.4995     C
C       0.9073   0.9744   0.3729     C
O       0.9463    0.794   0.7415     O
Nd     0.95044  0.76554  0.00342    Nd
O       0.9533   0.9335   0.8699     O
C       0.9552   0.8905    0.753     C
C       0.9733   0.9519   0.6239     C
