data_I
_chemical_name_common  '/home/zhangsd/repos/MofS-CGCNN/ML/data/SSD/clean_cifs/GAHWIX_clean'
_cell_length_a 27.03300
_cell_length_b 36.13000
_cell_length_c 34.29100
_cell_angle_alpha 108.81000
_cell_angle_beta  90.00000
_cell_angle_gamma 90.00000
_space_group_name_H-M_alt      'P 1'


loop_
_space_group_symop_operation_xyz
  'x, y, z' 

loop_
_atom_site_label
_atom_site_fract_x
_atom_site_fract_y
_atom_site_fract_z
_atom_site_type_symbol
H       0.0012   0.5352   0.3858     H
Zn     0.00176  0.39514  0.78309    Zn
O      0.00244  0.57583   0.3384     O
Zn     0.00432  0.87274  0.63566    Zn
O      0.00613  0.83824  0.74935     O
O      0.00657  0.62654  0.27569     O
H       0.0073   0.8009   0.7956     H
O      0.01039  0.89368  0.69408     O
Zn     0.01122  0.04985  0.29092    Zn
Zn      0.0131  0.31881  0.70895    Zn
H       0.0208   0.0218   0.8203     H
O      0.02218  0.10063  0.40009     O
O        0.026  0.96333  0.76441     O
O      0.02887  0.36094  0.81109     O
H       0.0296   0.7623   0.8363     H
H       0.0304   0.7747   0.3765     H
O      0.03055  0.30539  0.75754     O
H       0.0308   0.5011   0.4258     H
Zn     0.03164  0.13388  0.27991    Zn
Zn     0.03312  0.40083  0.69683    Zn
O       0.0332  0.71223    0.321     O
O      0.03506  0.17466  0.38006     O
C       0.0358  0.53403   0.3897     C
H       0.0398   0.2374   0.4332     H
C       0.0406   0.3257  0.79528     C
C       0.0416   0.7978   0.7995     C
C       0.0444   0.0704   0.3804     C
H       0.0474   0.0807   0.8711     H
C       0.0478  0.57505  0.34403     C
O       0.0491  0.43637  0.79415     O
O       0.0527   0.0586   0.3433     O
C       0.0535  0.51465  0.41407     C
C       0.0536  0.83769  0.75536     C
C       0.0537   0.7756   0.8255     C
C        0.055   0.0267   0.8263     C
O       0.0552   0.5862   0.1889     O
H       0.0559   0.3496   0.8751     H
H       0.0569   0.0853   0.4621     H
C       0.0583   0.1911   0.3582     C
C       0.0601   0.3052  0.82249     C
C       0.0624   0.7733   0.3874     C
C       0.0632  0.24969  0.42069     C
C       0.0658   0.3231   0.8636     C
O      0.06593  0.17826   0.3201     O
H       0.0661   0.8287   0.4278     H
O      0.06716  0.44569  0.73338     O
C       0.0674   0.4571    0.773     C
O       0.0681  0.85121  0.61446     O
C       0.0682  0.55249  0.36997     C
C       0.0709   0.0612   0.8576     C
C       0.0709   0.7091   0.3407     C
C       0.0718    0.049    0.406     C
C       0.0722  0.81483   0.7799     C
C       0.0723   0.9655   0.7723     C
C       0.0731   0.0616   0.4471     C
H       0.0736   0.2544   0.7762     H
O      0.07513  0.10528  0.23736     O
H       0.0753   0.2991   0.4713     H
O       0.0758  0.05611  0.26201     O
Zn     0.07632  0.62349  0.28972    Zn
C        0.077   0.2676   0.8049     C
Zn     0.07715  0.89425  0.71162    Zn
H       0.0781   0.4912   0.8515     H
C       0.0782  0.23193    0.381     C
O      0.07919   0.3682  0.65873     O
O      0.07935   0.3208  0.68756     O
O         0.08  0.59032  0.32728     O
C       0.0833  0.28708  0.44307     C
C       0.0841   0.8049   0.4181     C
O       0.0848  0.85466  0.73987     O
C       0.0849   0.3049   0.8886     C
H       0.0866   0.3182   0.9174     H
C       0.0875  0.49557   0.7959     C
C       0.0881   0.5087   0.8374     C
C       0.0884   0.0724   0.2351     C
H       0.0889   0.5511   0.1222     H
C       0.0906   0.0005   0.8047     C
C       0.0923   0.7393   0.3743     C
C       0.0947   0.3361   0.6622     C
C       0.0955   0.5766   0.2032     C
H       0.0959   0.4753    0.452     H
O       0.0965  0.67299  0.32832     O
C       0.0985   0.0176   0.3859     C
C       0.0991  0.03946   0.4684     C
H       0.0992   0.5527   0.8889     H
H       0.0993   0.7344   0.8609     H
C       0.0995   0.2494   0.8308     C
H       0.1004   0.7935   0.5625     H
C        0.101  0.51347   0.4226     C
H       0.1011   0.0494   0.4976     H
C       0.1015   0.5445   0.8597     C
C       0.1017   0.2676    0.873     C
C       0.1017  0.77489   0.8336     C
O       0.1037  0.94074  0.75312     O
O       0.1051   0.5843   0.2392     O
H       0.1057   0.1205    0.904     H
C       0.1057   0.5196   0.7763     C
H       0.1063   0.0126   0.3577     H
H       0.1079   0.5106   0.7471     H
C       0.1083  0.24988   0.3615     C
C       0.1105   0.8534   0.6294     C
H       0.1134    0.224   0.8192     H
C       0.1136  0.30509    0.424     C
C        0.115    0.992   0.4062     C
C       0.1162   0.5504   0.3792     C
H       0.1169   0.2376   0.3334     H
N       0.1171  0.49234  0.44815     N
H        0.118   0.9977   0.2174     H
C       0.1181  0.81283   0.7883     C
C       0.1182   0.0479   0.2002     C
O      0.11882   0.3485  0.51018     O
C        0.119   0.0665   0.8683     C
N       0.1191  0.75322  0.85934     N
C       0.1192  0.57002   0.8399     C
C       0.1201    0.544   0.1304     C
C       0.1206    0.005   0.4485     C
C       0.1213  0.55707   0.7978     C
O       0.1223  0.28669   0.9602     O
H       0.1224   0.9656   0.3909     H
N       0.1225  0.24591  0.89559     N
H        0.124   0.0885   0.1732     H
O      0.12407  0.87482  0.66644     O
H       0.1245   0.8557   0.4702     H
C       0.1264   0.2864   0.3831     C
H       0.1268   0.6847   0.8699     H
H       0.1285    0.419   0.4506     H
H       0.1293   0.3494   0.5938     H
C       0.1298   0.8035   0.4349     C
N       0.1303  0.10366   0.8987     N
H       0.1303   0.2219   0.8807     H
C       0.1305  0.31385   0.6291     C
C       0.1306   0.0087   0.1978     C
C       0.1316   0.5523   0.1741     C
H       0.1324    0.175   0.9031     H
C       0.1327   0.2542   0.9348     C
N      0.13302  0.34232   0.4432     N
C       0.1331   0.0625   0.1711     C
H       0.1333   0.5737   0.7834     H
C       0.1344   0.5314   0.4049     C
C       0.1346   0.7995  0.56683     C
C       0.1351  0.73794   0.3915     C
C       0.1356  0.36171    0.484     C
C       0.1367  0.00566   0.8175     C
N       0.1371  0.60927  0.86049     N
C       0.1379   0.7914   0.8138     C
H       0.1393    0.563   0.3669     H
O       0.1395  0.60976  0.92703     O
H       0.1409   0.8265   0.7769     H
C       0.1431   0.3259   0.5959     C
O       0.1437  0.01994  0.53399     O
H        0.144   0.6237   0.8448     H
C       0.1444  0.62586   0.9014     C
N       0.1447  0.98209  0.46752     N
H       0.1449   0.3545   0.4268     H
N       0.1468  0.83704   0.4619     N
H       0.1471   0.2744   0.6578     H
H       0.1482   0.2991   0.3698     H
C       0.1485  0.42743  0.47464     C
C        0.149  0.83089   0.6009     C
C       0.1491  0.69262  0.89254     C
C       0.1506   0.1834   0.9281     C
C       0.1516   0.0394   0.8492     C
H       0.1516   0.9116   0.4702     H
H       0.1521   0.7136    0.383     H
H       0.1528   0.5267   0.0741     H
C       0.1538  0.28207   0.6343     C
C       0.1546    0.224   0.9511     C
C       0.1547   0.5258   0.1015     C
H       0.1548   0.9592   0.4512     H
C       0.1553   0.9901   0.5088     C
H       0.1564   0.7572   0.5172     H
C       0.1576  0.76818   0.4205     C
C       0.1591  0.75686   0.8805     C
C       0.1592  0.40151   0.4979     C
C       0.1601  0.49478  0.46719     C
H       0.1605   0.9861   0.8049     H
C       0.1612   0.9873   0.1664     C
C       0.1618   0.0409   0.1377     C
C       0.1618  0.66744   0.9134     C
C       0.1672  0.77803   0.5405     C
C       0.1674   0.5309   0.1845     C
C       0.1679  0.46451  0.48788     C
C       0.1684   0.1163   0.9187     C
H       0.1688   0.5308   0.4102     H
C       0.1689  0.72927  0.90471     C
H       0.1714   0.0515   0.1168     H
H       0.1716   0.5311    0.212     H
H       0.1721    0.962   0.1656     H
H       0.1724   0.7885   0.8172     H
C       0.1732  0.91793  0.49329     C
C       0.1738  0.30542    0.567     C
C       0.1741   0.1561   0.9431     C
C       0.1762    0.003   0.1357     C
H       0.1785   0.3128    0.543     H
C       0.1803  0.95772   0.5177     C
C       0.1849  0.23539   0.9841     C
H       0.1855   0.0428    0.857     H
C       0.1875  0.41273  0.53222     C
C       0.1882   0.2608   0.6041     C
H       0.1888   0.2625   0.9987     H
H       0.1899   0.7659   0.4304     H
C       0.1908  0.84678   0.4781     C
O        0.191  0.78082  0.87992     O
O      0.19167  0.51747  0.46612     O
C       0.1928   0.5059   0.1139     C
H       0.1929   0.3956   0.5478     H
C       0.1932  0.67883   0.9465     C
C        0.197   0.8395   0.6073     C
C       0.1973  0.88888  0.50303     C
C       0.1982   0.5082   0.1521     C
C       0.1989   0.4756   0.5233     C
C       0.1994  0.27324   0.5709     C
C       0.2004    0.742   0.9379     C
H       0.2022    0.661   0.9604     H
H       0.2035    0.238   0.6066     H
C       0.2042  0.16849    0.976     C
O       0.2047  0.09393   0.9175     O
N       0.2049  0.98232   0.1025     N
H       0.2066   0.8607   0.6307     H
C       0.2081   0.4489  0.54401     C
H       0.2089   0.9938   0.0837     H
C       0.2105  0.20841   0.9972     C
C       0.2122  0.71779   0.9599     C
C       0.2124  0.96604  0.54933     C
H       0.2131    0.501   0.5328     H
H       0.2139   0.7676   0.9455     H
H        0.217   0.9926   0.5655     H
H       0.2175   0.4872   0.0574     H
H       0.2185   0.7787   0.0171     H
C       0.2193  0.78625   0.5472     C
O      0.21945  0.92448  0.11411     O
O       0.2205  0.70634  0.49756     O
H       0.2215   0.1498    0.985     H
N       0.2236   0.4848  0.08165     N
H       0.2244   0.4938   0.1589     H
O      0.22528  0.82298  0.47261     O
C       0.2283  0.94694   0.0939     C
O       0.2284  0.45095  0.61278     O
C       0.2313  0.89849  0.53552     C
C       0.2326  0.81856    0.581     C
N       0.2334  0.25476  0.53994     N
H       0.2336   0.8259   0.0858     H
C       0.2375   0.4607   0.5835     C
C       0.2387  0.93804  0.55921     C
H         0.24   0.2666   0.5218     H
C       0.2418   0.2192   0.0348     C
N       0.2456  0.76577  0.01862     N
C       0.2479   0.7288   0.9931     C
O       0.2493  0.19939  0.05611     O
H       0.2494   0.8785   0.5416     H
H       0.2506   0.8785   0.0416     H
O       0.2507  0.19939  0.55611     O
C       0.2521   0.7288   0.4931     C
N       0.2544  0.76577  0.51862     N
C       0.2582   0.2192   0.5348     C
H         0.26   0.2666   0.0218     H
C       0.2613  0.93804  0.05921     C
C       0.2625   0.4607   0.0835     C
H       0.2664   0.8259   0.5858     H
N       0.2666  0.25476  0.03994     N
C       0.2674  0.81856    0.081     C
C       0.2687  0.89849  0.03552     C
O       0.2716  0.45095  0.11278     O
C       0.2717  0.94694   0.5939     C
O      0.27472  0.82298  0.97261     O
H       0.2756   0.4938   0.6589     H
N       0.2764   0.4848  0.58165     N
H       0.2785   0.1498    0.485     H
O       0.2795  0.70634  0.99756     O
O      0.28055  0.92448  0.61411     O
C       0.2807  0.78625   0.0472     C
H       0.2815   0.7787   0.5171     H
H       0.2825   0.4872   0.5574     H
H        0.283   0.9926   0.0655     H
H       0.2861   0.7676   0.4455     H
H       0.2869    0.501   0.0328     H
C       0.2876  0.96604  0.04933     C
C       0.2878  0.71779   0.4599     C
C       0.2895  0.20841   0.4972     C
H       0.2911   0.9938   0.5837     H
C       0.2919   0.4489  0.04401     C
H       0.2934   0.8607   0.1307     H
N       0.2951  0.98232   0.6025     N
O       0.2953  0.09393   0.4175     O
C       0.2958  0.16849    0.476     C
H       0.2965    0.238   0.1066     H
H       0.2978    0.661   0.4604     H
C       0.2996    0.742   0.4379     C
C       0.3006  0.27324   0.0709     C
C       0.3011   0.4756   0.0233     C
C       0.3018   0.5082   0.6521     C
C       0.3027  0.88888  0.00303     C
C        0.303   0.8395   0.1073     C
C       0.3068  0.67883   0.4465     C
H       0.3071   0.3956   0.0478     H
C       0.3072   0.5059   0.6139     C
O      0.30833  0.51747  0.96612     O
O        0.309  0.78082  0.37992     O
C       0.3092  0.84678   0.9781     C
H       0.3101   0.7659   0.9304     H
H       0.3112   0.2625   0.4987     H
C       0.3118   0.2608   0.1041     C
C       0.3125  0.41273  0.03222     C
H       0.3145   0.0428    0.357     H
C       0.3151  0.23539   0.4841     C
C       0.3197  0.95772   0.0177     C
H       0.3215   0.3128    0.043     H
C       0.3238    0.003   0.6357     C
C       0.3259   0.1561   0.4431     C
C       0.3262  0.30542    0.067     C
C       0.3268  0.91793  0.99329     C
H       0.3276   0.7885   0.3172     H
H       0.3279    0.962   0.6656     H
H       0.3284   0.5311    0.712     H
H       0.3286   0.0515   0.6168     H
C       0.3311  0.72927  0.40471     C
H       0.3312   0.5308   0.9102     H
C       0.3316   0.1163   0.4187     C
C       0.3321  0.46451  0.98788     C
C       0.3326   0.5309   0.6845     C
C       0.3328  0.77803   0.0405     C
C       0.3382   0.0409   0.6377     C
C       0.3382  0.66744   0.4134     C
C       0.3388   0.9873   0.6664     C
H       0.3395   0.9861   0.3049     H
C       0.3399  0.49478  0.96719     C
C       0.3408  0.40151   0.9979     C
C       0.3409  0.75686   0.3805     C
C       0.3424  0.76818   0.9205     C
H       0.3436   0.7572   0.0172     H
C       0.3447   0.9901   0.0088     C
H       0.3452   0.9592   0.9512     H
C       0.3453   0.5258   0.6015     C
C       0.3454    0.224   0.4511     C
C       0.3462  0.28207   0.1343     C
H       0.3472   0.5267   0.5741     H
H       0.3479   0.7136    0.883     H
C       0.3484   0.0394   0.3492     C
H       0.3484   0.9116   0.9702     H
C       0.3494   0.1834   0.4281     C
C       0.3509  0.69262  0.39254     C
C        0.351  0.83089   0.1009     C
C       0.3515  0.42743  0.97464     C
H       0.3518   0.2991   0.8698     H
H       0.3529   0.2744   0.1578     H
N       0.3532  0.83704   0.9619     N
H       0.3551   0.3545   0.9268     H
N       0.3553  0.98209  0.96752     N
C       0.3556  0.62586   0.4014     C
H        0.356   0.6237   0.3448     H
O       0.3563  0.01994  0.03399     O
C       0.3569   0.3259   0.0959     C
H       0.3591   0.8265   0.2769     H
O       0.3605  0.60976  0.42703     O
H       0.3607    0.563   0.8669     H
C       0.3621   0.7914   0.3138     C
N       0.3629  0.60927  0.36049     N
C       0.3633  0.00566   0.3175     C
C       0.3644  0.36171    0.984     C
C       0.3649  0.73794   0.8915     C
C       0.3654   0.7995  0.06683     C
C       0.3656   0.5314   0.9049     C
H       0.3667   0.5737   0.2834     H
C       0.3669   0.0625   0.6711     C
N      0.36698  0.34232   0.9432     N
C       0.3673   0.2542   0.4348     C
H       0.3676    0.175   0.4031     H
C       0.3684   0.5523   0.6741     C
C       0.3694   0.0087   0.6978     C
C       0.3695  0.31385   0.1291     C
N       0.3697  0.10366   0.3987     N
H       0.3697   0.2219   0.3807     H
C       0.3702   0.8035   0.9349     C
H       0.3707   0.3494   0.0938     H
H       0.3715    0.419   0.9506     H
H       0.3732   0.6847   0.3699     H
C       0.3736   0.2864   0.8831     C
H       0.3755   0.8557   0.9702     H
O      0.37593  0.87482  0.16644     O
H        0.376   0.0885   0.6732     H
N       0.3775  0.24591  0.39559     N
H       0.3776   0.9656   0.8909     H
O       0.3777  0.28669   0.4602     O
C       0.3787  0.55707   0.2978     C
C       0.3794    0.005   0.9485     C
C       0.3799    0.544   0.6304     C
C       0.3808  0.57002   0.3399     C
N       0.3809  0.75322  0.35934     N
C        0.381   0.0665   0.3683     C
O      0.38118   0.3485  0.01018     O
C       0.3818   0.0479   0.7002     C
C       0.3819  0.81283   0.2883     C
H        0.382   0.9977   0.7174     H
N       0.3829  0.49234  0.94815     N
H       0.3831   0.2376   0.8334     H
C       0.3838   0.5504   0.8792     C
C        0.385    0.992   0.9062     C
C       0.3864  0.30509    0.924     C
H       0.3866    0.224   0.3192     H
C       0.3895   0.8534   0.1294     C
C       0.3917  0.24988   0.8615     C
H       0.3921   0.5106   0.2471     H
H       0.3937   0.0126   0.8577     H
H       0.3943   0.1205    0.404     H
C       0.3943   0.5196   0.2763     C
O       0.3949   0.5843   0.7392     O
O       0.3963  0.94074  0.25312     O
C       0.3983   0.2676    0.373     C
C       0.3983  0.77489   0.3336     C
C       0.3985   0.5445   0.3597     C
H       0.3989   0.0494   0.9976     H
C        0.399  0.51347   0.9226     C
H       0.3996   0.7935   0.0625     H
C       0.4005   0.2494   0.3308     C
H       0.4007   0.7344   0.3609     H
H       0.4008   0.5527   0.3889     H
C       0.4009  0.03946   0.9684     C
C       0.4015   0.0176   0.8859     C
O       0.4035  0.67299  0.82832     O
H       0.4041   0.4753    0.952     H
C       0.4045   0.5766   0.7032     C
C       0.4053   0.3361   0.1622     C
C       0.4077   0.7393   0.8743     C
C       0.4094   0.0005   0.3047     C
H       0.4111   0.5511   0.6222     H
C       0.4116   0.0724   0.7351     C
C       0.4119   0.5087   0.3374     C
C       0.4125  0.49557   0.2959     C
H       0.4134   0.3182   0.4174     H
C       0.4151   0.3049   0.3886     C
O       0.4152  0.85466  0.23987     O
C       0.4159   0.8049   0.9181     C
C       0.4167  0.28708  0.94307     C
O         0.42  0.59032  0.82728     O
O      0.42065   0.3208  0.18756     O
O      0.42081   0.3682  0.15873     O
C       0.4218  0.23193    0.881     C
H       0.4219   0.4912   0.3515     H
Zn     0.42285  0.89425  0.21162    Zn
C        0.423   0.2676   0.3049     C
Zn     0.42368  0.62349  0.78972    Zn
O       0.4242  0.05611  0.76201     O
H       0.4247   0.2991   0.9713     H
O      0.42487  0.10528  0.73736     O
H       0.4264   0.2544   0.2762     H
C       0.4269   0.0616   0.9471     C
C       0.4277   0.9655   0.2723     C
C       0.4278  0.81483   0.2799     C
C       0.4282    0.049    0.906     C
C       0.4291   0.0612   0.3576     C
C       0.4291   0.7091   0.8407     C
C       0.4318  0.55249  0.86997     C
O       0.4319  0.85121  0.11446     O
C       0.4326   0.4571    0.273     C
O      0.43284  0.44569  0.23338     O
H       0.4339   0.8287   0.9278     H
O      0.43407  0.17826   0.8201     O
C       0.4342   0.3231   0.3636     C
C       0.4368  0.24969  0.92069     C
C       0.4376   0.7733   0.8874     C
C       0.4399   0.3052  0.32249     C
C       0.4417   0.1911   0.8582     C
H       0.4431   0.0853   0.9621     H
H       0.4441   0.3496   0.3751     H
O       0.4448   0.5862   0.6889     O
C        0.445   0.0267   0.3263     C
C       0.4463   0.7756   0.3255     C
C       0.4464  0.83769  0.25536     C
C       0.4465  0.51465  0.91407     C
O       0.4473   0.0586   0.8433     O
O       0.4509  0.43637  0.29415     O
C       0.4522  0.57505  0.84403     C
H       0.4526   0.0807   0.3711     H
C       0.4556   0.0704   0.8804     C
C       0.4584   0.7978   0.2995     C
C       0.4594   0.3257  0.29528     C
H       0.4602   0.2374   0.9332     H
C       0.4642  0.53403   0.8897     C
O      0.46494  0.17466  0.88006     O
O       0.4668  0.71223    0.821     O
Zn     0.46688  0.40083  0.19683    Zn
Zn     0.46836  0.13388  0.77991    Zn
H       0.4692   0.5011   0.9258     H
O      0.46945  0.30539  0.25754     O
H       0.4696   0.7747   0.8765     H
H       0.4704   0.7623   0.3363     H
O      0.47113  0.36094  0.31109     O
O        0.474  0.96333  0.26441     O
O      0.47782  0.10063  0.90009     O
H       0.4792   0.0218   0.3203     H
Zn      0.4869  0.31881  0.20895    Zn
Zn     0.48878  0.04985  0.79092    Zn
O      0.48961  0.89368  0.19408     O
H       0.4927   0.8009   0.2956     H
O      0.49343  0.62654  0.77569     O
O      0.49387  0.83824  0.24935     O
Zn     0.49568  0.87274  0.13566    Zn
O      0.49756  0.57583   0.8384     O
Zn     0.49824  0.39514  0.28309    Zn
H       0.4988   0.5352   0.8858     H
H       0.5012   0.4648   0.1142     H
Zn     0.50176  0.60486  0.71691    Zn
O      0.50244  0.42417   0.1616     O
Zn     0.50432  0.12726  0.86434    Zn
O      0.50613  0.16176  0.75065     O
O      0.50657  0.37346  0.22431     O
H       0.5073   0.1991   0.7044     H
O      0.51039  0.10632  0.80592     O
Zn     0.51122  0.95015  0.20908    Zn
Zn      0.5131  0.68119  0.79105    Zn
H       0.5208   0.9782   0.6797     H
O      0.52218  0.89937  0.09991     O
O        0.526  0.03667  0.73559     O
O      0.52887  0.63906  0.68891     O
H       0.5296   0.2377   0.6637     H
H       0.5304   0.2253   0.1235     H
O      0.53055  0.69461  0.74246     O
H       0.5308   0.4989   0.0742     H
Zn     0.53164  0.86612  0.22009    Zn
Zn     0.53312  0.59917  0.80317    Zn
O       0.5332  0.28777    0.179     O
O      0.53506  0.82534  0.11994     O
C       0.5358  0.46597   0.1103     C
H       0.5398   0.7626   0.0668     H
C       0.5406   0.6743  0.70472     C
C       0.5416   0.2022   0.7005     C
C       0.5444   0.9296   0.1196     C
H       0.5474   0.9193   0.6289     H
C       0.5478  0.42495  0.15597     C
O       0.5491  0.56363  0.70585     O
O       0.5527   0.9414   0.1567     O
C       0.5535  0.48535  0.08593     C
C       0.5536  0.16231  0.74464     C
C       0.5537   0.2244   0.6745     C
C        0.555   0.9733   0.6737     C
O       0.5552   0.4138   0.3111     O
H       0.5559   0.6504   0.6249     H
H       0.5569   0.9147   0.0379     H
C       0.5583   0.8089   0.1418     C
C       0.5601   0.6948  0.67751     C
C       0.5624   0.2267   0.1126     C
C       0.5632  0.75031  0.07931     C
C       0.5658   0.6769   0.6364     C
O      0.56593  0.82174   0.1799     O
H       0.5661   0.1713   0.0722     H
O      0.56716  0.55431  0.76662     O
C       0.5674   0.5429    0.727     C
O       0.5681  0.14879  0.88554     O
C       0.5682  0.44751  0.13003     C
C       0.5709   0.2909   0.1593     C
C       0.5709   0.9388   0.6424     C
C       0.5718    0.951    0.094     C
C       0.5722  0.18517   0.7201     C
C       0.5723   0.0345   0.7277     C
C       0.5731   0.9384   0.0529     C
H       0.5736   0.7456   0.7238     H
O      0.57513  0.89472  0.26264     O
H       0.5753   0.7009   0.0287     H
O       0.5758  0.94389  0.23799     O
Zn     0.57632  0.37651  0.21028    Zn
C        0.577   0.7324   0.6951     C
Zn     0.57715  0.10575  0.78838    Zn
H       0.5781   0.5088   0.6485     H
C       0.5782  0.76807    0.119     C
O      0.57919   0.6318  0.84127     O
O      0.57935   0.6792  0.81244     O
O         0.58  0.40968  0.17272     O
C       0.5833  0.71292  0.05693     C
C       0.5841   0.1951   0.0819     C
O       0.5848  0.14534  0.76013     O
C       0.5849   0.6951   0.6114     C
H       0.5866   0.6818   0.5826     H
C       0.5875  0.50443   0.7041     C
C       0.5881   0.4913   0.6626     C
C       0.5884   0.9276   0.2649     C
H       0.5889   0.4489   0.3778     H
C       0.5906   0.9995   0.6953     C
C       0.5923   0.2607   0.1257     C
C       0.5947   0.6639   0.8378     C
C       0.5955   0.4234   0.2968     C
H       0.5959   0.5247    0.048     H
O       0.5965  0.32701  0.17168     O
C       0.5985   0.9824   0.1141     C
C       0.5991  0.96054   0.0316     C
H       0.5992   0.4473   0.6111     H
H       0.5993   0.2656   0.6391     H
C       0.5995   0.7506   0.6692     C
H       0.6004   0.2065   0.9375     H
C        0.601  0.48653   0.0774     C
H       0.6011   0.9506   0.0024     H
C       0.6015   0.4555   0.6403     C
C       0.6017  0.22511   0.6664     C
C       0.6017   0.7324    0.627     C
O       0.6037  0.05926  0.74688     O
O       0.6051   0.4157   0.2608     O
C       0.6057   0.4804   0.7237     C
H       0.6057   0.8795    0.596     H
H       0.6063   0.9874   0.1423     H
H       0.6079   0.4894   0.7529     H
C       0.6083  0.75012   0.1385     C
C       0.6105   0.1466   0.8706     C
H       0.6134    0.776   0.6808     H
C       0.6136  0.69491    0.076     C
C        0.615    0.008   0.0938     C
C       0.6162   0.4496   0.1208     C
H       0.6169   0.7624   0.1666     H
N       0.6171  0.50766  0.05185     N
H        0.618   0.0023   0.2826     H
C       0.6181  0.18717   0.7117     C
C       0.6182   0.9521   0.2998     C
O      0.61882   0.6515  0.98982     O
C        0.619   0.9335   0.6317     C
N       0.6191  0.24678  0.64066     N
C       0.6192  0.42998   0.6601     C
C       0.6201    0.456   0.3696     C
C       0.6206    0.995   0.0515     C
C       0.6213  0.44293   0.7022     C
O       0.6223  0.71331   0.5398     O
H       0.6224   0.0344   0.1091     H
N       0.6225  0.75409  0.60441     N
H        0.624   0.9115   0.3268     H
O      0.62407  0.12518  0.83356     O
H       0.6245   0.1443   0.0298     H
C       0.6264   0.7136   0.1169     C
H       0.6268   0.3153   0.6301     H
H       0.6285    0.581   0.0494     H
H       0.6293   0.6506   0.9062     H
C       0.6298   0.1965   0.0651     C
H       0.6303   0.7781   0.6193     H
N       0.6303  0.89634   0.6013     N
C       0.6305  0.68615   0.8709     C
C       0.6306   0.9913   0.3022     C
C       0.6316   0.4477   0.3259     C
H       0.6324    0.825   0.5969     H
C       0.6327   0.7458   0.5652     C
N      0.63302  0.65768   0.0568     N
C       0.6331   0.9375   0.3289     C
H       0.6333   0.4263   0.7166     H
C       0.6344   0.4686   0.0951     C
C       0.6346   0.2005  0.93317     C
C       0.6351  0.26206   0.1085     C
C       0.6356  0.63829    0.016     C
C       0.6367  0.99434   0.6825     C
N       0.6371  0.39073  0.63951     N
C       0.6379   0.2086   0.6862     C
H       0.6393    0.437   0.1331     H
O       0.6395  0.39024  0.57297     O
H       0.6409   0.1735   0.7231     H
C       0.6431   0.6741   0.9041     C
O       0.6437  0.98006  0.96601     O
H        0.644   0.3763   0.6552     H
C       0.6444  0.37414   0.5986     C
N       0.6447  0.01791  0.03248     N
H       0.6449   0.6455   0.0732     H
N       0.6468  0.16296   0.0381     N
H       0.6471   0.7256   0.8422     H
H       0.6482   0.7009   0.1302     H
C       0.6485  0.57257  0.02536     C
C        0.649  0.16911   0.8991     C
C       0.6491  0.30738  0.60746     C
C       0.6506   0.8166   0.5719     C
H       0.6516   0.0884   0.0298     H
C       0.6516   0.9606   0.6508     C
H       0.6521   0.2864    0.117     H
H       0.6528   0.4733   0.4259     H
C       0.6538  0.71793   0.8657     C
C       0.6546    0.776   0.5489     C
C       0.6547   0.4742   0.3985     C
H       0.6548   0.0408   0.0488     H
C       0.6553   0.0099   0.9912     C
H       0.6564   0.2428   0.9828     H
C       0.6576  0.23182   0.0795     C
C       0.6591  0.24314   0.6195     C
C       0.6592  0.59849   0.0021     C
C       0.6601  0.50522  0.03281     C
H       0.6605   0.0139   0.6951     H
C       0.6612   0.0127   0.3336     C
C       0.6618  0.33256   0.5866     C
C       0.6618   0.9591   0.3623     C
C       0.6672  0.22197   0.9595     C
C       0.6674   0.4691   0.3155     C
C       0.6679  0.53549  0.01212     C
C       0.6684   0.8837   0.5813     C
H       0.6688   0.4692   0.0898     H
C       0.6689  0.27073  0.59529     C
H       0.6714   0.9485   0.3832     H
H       0.6716   0.4689    0.288     H
H       0.6721    0.038   0.3344     H
H       0.6724   0.2115   0.6828     H
C       0.6732  0.08207  0.00671     C
C       0.6738  0.69458    0.933     C
C       0.6741   0.8439   0.5569     C
C       0.6762    0.997   0.3643     C
H       0.6785   0.6872    0.957     H
C       0.6803  0.04228   0.9823     C
C       0.6849  0.76461   0.5159     C
H       0.6855   0.9572    0.643     H
C       0.6875  0.58727  0.96778     C
C       0.6882   0.7392   0.8959     C
H       0.6888   0.7375   0.5013     H
H       0.6899   0.2341   0.0696     H
C       0.6908  0.15322   0.0219     C
O        0.691  0.21918  0.62008     O
O      0.69167  0.48253  0.03388     O
C       0.6928   0.4941   0.3861     C
H       0.6929   0.6044   0.9522     H
C       0.6932  0.32117   0.5535     C
C        0.697   0.1605   0.8927     C
C       0.6973  0.11112  0.99697     C
C       0.6982   0.4918   0.3479     C
C       0.6989   0.5244   0.9767     C
C       0.6994  0.72676   0.9291     C
C       0.7004    0.258   0.5621     C
H       0.7022    0.339   0.5396     H
H       0.7035    0.762   0.8934     H
C       0.7042  0.83151    0.524     C
O       0.7047  0.90607   0.5825     O
N       0.7049  0.01768   0.3975     N
H       0.7066   0.1393   0.8693     H
C       0.7081   0.5511  0.95599     C
H       0.7089   0.0062   0.4163     H
C       0.7105  0.79159   0.5028     C
C       0.7122  0.28221   0.5401     C
C       0.7124  0.03396  0.95067     C
H       0.7131    0.499   0.9672     H
H       0.7139   0.2324   0.5545     H
H        0.717   0.0074   0.9345     H
H       0.7175   0.5128   0.4426     H
H       0.7185   0.2213   0.4829     H
C       0.7193  0.21375   0.9528     C
O      0.71945  0.07552  0.38589     O
O       0.7205  0.29366  0.00244     O
H       0.7215   0.8502    0.515     H
N       0.7236   0.5152  0.41835     N
H       0.7244   0.5062   0.3411     H
O      0.72528  0.17702  0.02739     O
C       0.7283  0.05306   0.4061     C
O       0.7284  0.54905  0.88722     O
C       0.7313  0.10151  0.96448     C
C       0.7326  0.18144    0.919     C
N       0.7334  0.74524  0.96006     N
H       0.7336   0.1741   0.4142     H
C       0.7375   0.5393   0.9165     C
C       0.7387  0.06196  0.94079     C
H         0.74   0.7334   0.9782     H
C       0.7418   0.7808   0.4652     C
N       0.7456  0.23423  0.48138     N
C       0.7479   0.2712   0.5069     C
O       0.7493  0.80061  0.44389     O
H       0.7494   0.1215   0.9584     H
H       0.7506   0.1215   0.4584     H
O       0.7507  0.80061  0.94389     O
C       0.7521   0.2712   0.0069     C
N       0.7544  0.23423  0.98138     N
C       0.7582   0.7808   0.9652     C
H         0.76   0.7334   0.4782     H
C       0.7613  0.06196  0.44079     C
C       0.7625   0.5393   0.4165     C
H       0.7664   0.1741   0.9142     H
N       0.7666  0.74524  0.46006     N
C       0.7674  0.18144    0.419     C
C       0.7687  0.10151  0.46448     C
O       0.7716  0.54905  0.38722     O
C       0.7717  0.05306   0.9061     C
O      0.77472  0.17702  0.52739     O
H       0.7756   0.5062   0.8411     H
N       0.7764   0.5152  0.91835     N
H       0.7785   0.8502    0.015     H
O       0.7795  0.29366  0.50244     O
O      0.78055  0.07552  0.88589     O
C       0.7807  0.21375   0.4528     C
H       0.7815   0.2213   0.9829     H
H       0.7825   0.5128   0.9426     H
H        0.783   0.0074   0.4345     H
H       0.7861   0.2324   0.0545     H
H       0.7869    0.499   0.4672     H
C       0.7876  0.03396  0.45067     C
C       0.7878  0.28221   0.0401     C
C       0.7895  0.79159   0.0028     C
H       0.7911   0.0062   0.9163     H
C       0.7919   0.5511  0.45599     C
H       0.7934   0.1393   0.3693     H
N       0.7951  0.01768   0.8975     N
O       0.7953  0.90607   0.0825     O
C       0.7958  0.83151    0.024     C
H       0.7965    0.762   0.3934     H
H       0.7978    0.339   0.0396     H
C       0.7996    0.258   0.0621     C
C       0.8006  0.72676   0.4291     C
C       0.8011   0.5244   0.4767     C
C       0.8018   0.4918   0.8479     C
C       0.8027  0.11112  0.49697     C
C        0.803   0.1605   0.3927     C
C       0.8068  0.32117   0.0535     C
H       0.8071   0.6044   0.4522     H
C       0.8072   0.4941   0.8861     C
O      0.80833  0.48253  0.53388     O
O        0.809  0.21918  0.12008     O
C       0.8092  0.15322   0.5219     C
H       0.8101   0.2341   0.5696     H
H       0.8112   0.7375   0.0013     H
C       0.8118   0.7392   0.3959     C
C       0.8125  0.58727  0.46778     C
H       0.8145   0.9572    0.143     H
C       0.8151  0.76461   0.0159     C
C       0.8197  0.04228   0.4823     C
H       0.8215   0.6872    0.457     H
C       0.8238    0.997   0.8643     C
C       0.8259   0.8439   0.0569     C
C       0.8262  0.69458    0.433     C
C       0.8268  0.08207  0.50671     C
H       0.8276   0.2115   0.1828     H
H       0.8279    0.038   0.8344     H
H       0.8284   0.4689    0.788     H
H       0.8286   0.9485   0.8832     H
C       0.8311  0.27073  0.09529     C
H       0.8312   0.4692   0.5898     H
C       0.8316   0.8837   0.0813     C
C       0.8321  0.53549  0.51212     C
C       0.8326   0.4691   0.8155     C
C       0.8328  0.22197   0.4595     C
C       0.8382  0.33256   0.0866     C
C       0.8382   0.9591   0.8623     C
C       0.8388   0.0127   0.8336     C
H       0.8395   0.0139   0.1951     H
C       0.8399  0.50522  0.53281     C
C       0.8408  0.59849   0.5021     C
C       0.8409  0.24314   0.1195     C
C       0.8424  0.23182   0.5795     C
H       0.8436   0.2428   0.4828     H
C       0.8447   0.0099   0.4912     C
H       0.8452   0.0408   0.5488     H
C       0.8453   0.4742   0.8985     C
C       0.8454    0.776   0.0489     C
C       0.8462  0.71793   0.3657     C
H       0.8472   0.4733   0.9259     H
H       0.8479   0.2864    0.617     H
H       0.8484   0.0884   0.5298     H
C       0.8484   0.9606   0.1508     C
C       0.8494   0.8166   0.0719     C
C       0.8509  0.30738  0.10746     C
C        0.851  0.16911   0.3991     C
C       0.8515  0.57257  0.52536     C
H       0.8518   0.7009   0.6302     H
H       0.8529   0.7256   0.3422     H
N       0.8532  0.16296   0.5381     N
H       0.8551   0.6455   0.5732     H
N       0.8553  0.01791  0.53248     N
C       0.8556  0.37414   0.0986     C
H        0.856   0.3763   0.1552     H
O       0.8563  0.98006  0.46601     O
C       0.8569   0.6741   0.4041     C
H       0.8591   0.1735   0.2231     H
O       0.8605  0.39024  0.07297     O
H       0.8607    0.437   0.6331     H
C       0.8621   0.2086   0.1862     C
N       0.8629  0.39073  0.13951     N
C       0.8633  0.99434   0.1825     C
C       0.8644  0.63829    0.516     C
C       0.8649  0.26206   0.6085     C
C       0.8654   0.2005  0.43317     C
C       0.8656   0.4686   0.5951     C
H       0.8667   0.4263   0.2166     H
C       0.8669   0.9375   0.8289     C
N      0.86698  0.65768   0.5568     N
C       0.8673   0.7458   0.0652     C
H       0.8676    0.825   0.0969     H
C       0.8684   0.4477   0.8259     C
C       0.8694   0.9913   0.8022     C
C       0.8695  0.68615   0.3709     C
H       0.8697   0.7781   0.1193     H
N       0.8697  0.89634   0.1013     N
C       0.8702   0.1965   0.5651     C
H       0.8707   0.6506   0.4062     H
H       0.8715    0.581   0.5494     H
H       0.8732   0.3153   0.1301     H
C       0.8736   0.7136   0.6169     C
H       0.8755   0.1443   0.5298     H
O      0.87593  0.12518  0.33356     O
H        0.876   0.9115   0.8268     H
N       0.8775  0.75409  0.10441     N
H       0.8776   0.0344   0.6091     H
O       0.8777  0.71331   0.0398     O
C       0.8787  0.44293   0.2022     C
C       0.8794    0.995   0.5515     C
C       0.8799    0.456   0.8696     C
C       0.8808  0.42998   0.1601     C
N       0.8809  0.24678  0.14066     N
C        0.881   0.9335   0.1317     C
O      0.88118   0.6515  0.48982     O
C       0.8818   0.9521   0.7998     C
C       0.8819  0.18717   0.2117     C
H        0.882   0.0023   0.7826     H
N       0.8829  0.50766  0.55185     N
H       0.8831   0.7624   0.6666     H
C       0.8838   0.4496   0.6208     C
C        0.885    0.008   0.5938     C
C       0.8864  0.69491    0.576     C
H       0.8866    0.776   0.1808     H
C       0.8895   0.1466   0.3706     C
C       0.8917  0.75012   0.6385     C
H       0.8921   0.4894   0.2529     H
H       0.8937   0.9874   0.6423     H
C       0.8943   0.4804   0.2237     C
H       0.8943   0.8795    0.096     H
O       0.8949   0.4157   0.7608     O
O       0.8963  0.05926  0.24688     O
C       0.8983  0.22511   0.1664     C
C       0.8983   0.7324    0.127     C
C       0.8985   0.4555   0.1403     C
H       0.8989   0.9506   0.5024     H
C        0.899  0.48653   0.5774     C
H       0.8996   0.2065   0.4375     H
C       0.9005   0.7506   0.1692     C
H       0.9007   0.2656   0.1391     H
H       0.9008   0.4473   0.1111     H
C       0.9009  0.96054   0.5316     C
C       0.9015   0.9824   0.6141     C
O       0.9035  0.32701  0.67168     O
H       0.9041   0.5247    0.548     H
C       0.9045   0.4234   0.7968     C
C       0.9053   0.6639   0.3378     C
C       0.9077   0.2607   0.6257     C
C       0.9094   0.9995   0.1953     C
H       0.9111   0.4489   0.8778     H
C       0.9116   0.9276   0.7649     C
C       0.9119   0.4913   0.1626     C
C       0.9125  0.50443   0.2041     C
H       0.9134   0.6818   0.0826     H
C       0.9151   0.6951   0.1114     C
O       0.9152  0.14534  0.26013     O
C       0.9159   0.1951   0.5819     C
C       0.9167  0.71292  0.55693     C
O         0.92  0.40968  0.67272     O
O      0.92065   0.6792  0.31244     O
O      0.92081   0.6318  0.34127     O
C       0.9218  0.76807    0.619     C
H       0.9219   0.5088   0.1485     H
Zn     0.92285  0.10575  0.28838    Zn
C        0.923   0.7324   0.1951     C
Zn     0.92368  0.37651  0.71028    Zn
O       0.9242  0.94389  0.73799     O
H       0.9247   0.7009   0.5287     H
O      0.92487  0.89472  0.76264     O
H       0.9264   0.7456   0.2238     H
C       0.9269   0.9384   0.5529     C
C       0.9277   0.0345   0.2277     C
C       0.9278  0.18517   0.2201     C
C       0.9282    0.951    0.594     C
C       0.9291   0.2909   0.6593     C
C       0.9291   0.9388   0.1424     C
C       0.9318  0.44751  0.63003     C
O       0.9319  0.14879  0.38554     O
C       0.9326   0.5429    0.227     C
O      0.93284  0.55431  0.26662     O
H       0.9339   0.1713   0.5722     H
O      0.93407  0.82174   0.6799     O
C       0.9342   0.6769   0.1364     C
C       0.9368  0.75031  0.57931     C
C       0.9376   0.2267   0.6126     C
C       0.9399   0.6948  0.17751     C
C       0.9417   0.8089   0.6418     C
H       0.9431   0.9147   0.5379     H
H       0.9441   0.6504   0.1249     H
O       0.9448   0.4138   0.8111     O
C        0.945   0.9733   0.1737     C
C       0.9463   0.2244   0.1745     C
C       0.9464  0.16231  0.24464     C
C       0.9465  0.48535  0.58593     C
O       0.9473   0.9414   0.6567     O
O       0.9509  0.56363  0.20585     O
C       0.9522  0.42495  0.65597     C
H       0.9526   0.9193   0.1289     H
C       0.9556   0.9296   0.6196     C
C       0.9584   0.2022   0.2005     C
C       0.9594   0.6743  0.20472     C
H       0.9602   0.7626   0.5668     H
C       0.9642  0.46597   0.6103     C
O      0.96494  0.82534  0.61994     O
O       0.9668  0.28777    0.679     O
Zn     0.96688  0.59917  0.30317    Zn
Zn     0.96836  0.86612  0.72009    Zn
H       0.9692   0.4989   0.5742     H
O      0.96945  0.69461  0.24246     O
H       0.9696   0.2253   0.6235     H
H       0.9704   0.2377   0.1637     H
O      0.97113  0.63906  0.18891     O
O        0.974  0.03667  0.23559     O
O      0.97782  0.89937  0.59991     O
H       0.9792   0.9782   0.1797     H
Zn      0.9869  0.68119  0.29105    Zn
Zn     0.98878  0.95015  0.70908    Zn
O      0.98961  0.10632  0.30592     O
H       0.9927   0.1991   0.2044     H
O      0.99343  0.37346  0.72431     O
O      0.99387  0.16176  0.25065     O
Zn     0.99568  0.12726  0.36434    Zn
O      0.99756  0.42417   0.6616     O
Zn     0.99824  0.60486  0.21691    Zn
H       0.9988   0.4648   0.6142     H
