data_I
_chemical_name_common  '/home/zhangsd/repos/MofS-CGCNN/ML/data/SSD/clean_cifs/GAJYUN_clean'
_cell_length_a  5.69060
_cell_length_b 12.80000
_cell_length_c 21.55000
_cell_angle_alpha 90.00000
_cell_angle_beta  95.39200
_cell_angle_gamma 90.00000
_space_group_name_H-M_alt      'P 1'


loop_
_space_group_symop_operation_xyz
  'x, y, z' 

loop_
_atom_site_label
_atom_site_fract_x
_atom_site_fract_y
_atom_site_fract_z
_atom_site_type_symbol
H       0.0096   0.6049   0.1354     H
H       0.0096   0.8951   0.6354     H
H       0.0098   0.2324   0.8161     H
H       0.0098   0.2676   0.3161     H
N        0.026   0.5845   0.2891     N
N        0.026   0.9155   0.7891     N
O       0.0416   0.6291    0.445     O
O       0.0416   0.8709    0.945     O
C        0.049    0.194   0.2008     C
C        0.049    0.306   0.7008     C
C        0.063   0.1088   0.3257     C
C        0.063   0.3912   0.8257     C
H       0.0879   0.7396   0.3004     H
H       0.0879   0.7604   0.8004     H
P       0.0954    0.525  0.41596     P
P       0.0954    0.975  0.91596     P
O       0.1091   0.5478   0.5921     O
O       0.1091   0.9522   0.0921     O
H       0.1144   0.1991    0.161     H
H       0.1144   0.3009    0.661     H
C        0.115   0.5738   0.2276     C
C        0.115   0.9262   0.7276     C
C        0.148   0.2218   0.3159     C
C        0.148   0.2782   0.8159     C
H       0.1555   0.5013   0.2212     H
H       0.1555   0.9987   0.7212     H
H       0.1975   0.0621   0.3287     H
H       0.1975   0.4379   0.8287     H
C       0.2029   0.5455   0.3389     C
C       0.2029   0.9545   0.8389     C
C        0.233   0.2292   0.2529     C
C        0.233   0.2708   0.7529     C
H       0.2576   0.6149   0.2269     H
H       0.2576   0.8851   0.7269     H
H       0.2654   0.0202   0.8252     H
H       0.2654   0.4798   0.3252     H
H       0.2767    0.199   0.7453     H
H       0.2767    0.301   0.2453     H
O       0.2986   0.2359   0.4232     O
O       0.2986   0.2641   0.9232     O
O       0.3155   0.0183    0.954     O
O       0.3155   0.4817    0.454     O
C        0.323   0.2431    0.867     C
C        0.323   0.2569    0.367     C
H       0.3327   0.5948   0.3436     H
H       0.3327   0.9052   0.8436     H
Ce     0.36845  0.64376    0.531    Ce
Ce     0.36845  0.85624    0.031    Ce
H       0.3732   0.1865   0.2518     H
H       0.3732   0.3135   0.7518     H
O        0.499   0.1882   0.8549     O
O        0.499   0.3118   0.3549     O
O        0.501   0.6882   0.6451     O
O        0.501   0.8118   0.1451     O
H       0.6268   0.6865   0.2482     H
H       0.6268   0.8135   0.7482     H
Ce     0.63155  0.14376    0.969    Ce
Ce     0.63155  0.35624    0.469    Ce
H       0.6673   0.0948   0.1564     H
H       0.6673   0.4052   0.6564     H
C        0.677   0.7431    0.633     C
C        0.677   0.7569    0.133     C
O       0.6845   0.5183    0.546     O
O       0.6845   0.9817    0.046     O
O       0.7014   0.7359   0.0768     O
O       0.7014   0.7641   0.5768     O
H       0.7233    0.699   0.7547     H
H       0.7233    0.801   0.2547     H
H       0.7346   0.5202   0.6748     H
H       0.7346   0.9798   0.1748     H
H       0.7424   0.1149   0.2731     H
H       0.7424   0.3851   0.7731     H
C        0.767   0.7292   0.2471     C
C        0.767   0.7708   0.7471     C
C       0.7971   0.0455   0.1611     C
C       0.7971   0.4545   0.6611     C
H       0.8025   0.5621   0.1713     H
H       0.8025   0.9379   0.6713     H
H       0.8445   0.0013   0.2788     H
H       0.8445   0.4987   0.7788     H
C        0.852   0.7218   0.1841     C
C        0.852   0.7782   0.6841     C
C        0.885   0.0738   0.2724     C
C        0.885   0.4262   0.7724     C
H       0.8856   0.6991    0.339     H
H       0.8856   0.8009    0.839     H
O       0.8909   0.0478   0.9079     O
O       0.8909   0.4522   0.4079     O
P       0.9046    0.025  0.08404     P
P       0.9046    0.475  0.58404     P
H       0.9121   0.2396   0.1996     H
H       0.9121   0.2604   0.6996     H
C        0.937   0.6088   0.1743     C
C        0.937   0.8912   0.6743     C
C        0.951    0.694   0.2992     C
C        0.951    0.806   0.7992     C
O       0.9584   0.1291    0.055     O
O       0.9584   0.3709    0.555     O
N        0.974   0.0845   0.2109     N
N        0.974   0.4155   0.7109     N
H       0.9902   0.7324   0.6839     H
H       0.9902   0.7676   0.1839     H
H       0.9904   0.1049   0.3646     H
H       0.9904   0.3951   0.8646     H
