data_I
_chemical_name_common  '/home/zhangsd/repos/MofS-CGCNN/ML/data/SSD/clean_cifs/GAJZOI_clean'
_cell_length_a  5.53400
_cell_length_b 13.43600
_cell_length_c 20.89100
_cell_angle_alpha 90.00000
_cell_angle_beta  96.15900
_cell_angle_gamma 90.00000
_space_group_name_H-M_alt      'P 1'


loop_
_space_group_symop_operation_xyz
  'x, y, z' 

loop_
_atom_site_label
_atom_site_fract_x
_atom_site_fract_y
_atom_site_fract_z
_atom_site_type_symbol
N       0.0021   0.0799   0.2165     N
N       0.0021   0.4201   0.7165     N
H       0.0132   0.7465   0.6752     H
H       0.0132   0.7535   0.1752     H
C        0.026   0.1883   0.2041     C
C        0.026   0.3117   0.7041     C
H       0.0363   0.0981   0.3731     H
H       0.0363   0.4019   0.8731     H
O       0.0408   0.6224   0.4427     O
O       0.0408   0.8776   0.9427     O
C        0.076   0.5656   0.2196     C
C        0.076   0.9344   0.7196     C
H        0.079   0.1986   0.1618     H
H        0.079   0.3014   0.6618     H
P       0.0864   0.5223  0.41355     P
P       0.0864   0.9777  0.91355     P
H       0.0941   0.0051   0.7118     H
H       0.0941   0.4949   0.2118     H
C        0.098   0.1083   0.3318     C
C        0.098   0.3917   0.8318     C
O       0.1273   0.5464   0.5903     O
O       0.1273   0.9536   0.0903     O
H       0.1305   0.7207    0.295     H
H       0.1305   0.7793    0.795     H
C        0.142   0.2195   0.3227     C
C        0.142   0.2805   0.8227     C
C        0.179   0.5382   0.3333     C
C        0.179   0.9618   0.8333     C
C        0.211   0.2334   0.2557     C
C        0.211   0.2666   0.7557     C
H       0.2269    0.196   0.7474     H
H       0.2269    0.304   0.2474     H
H       0.2293   0.0262   0.8185     H
H       0.2293   0.4738   0.3185     H
H       0.2337   0.5966   0.2182     H
H       0.2337   0.9034   0.7182     H
H       0.2515   0.0732   0.3327     H
H       0.2515   0.4268   0.8327     H
O       0.2976   0.2478   0.4331     O
O       0.2976   0.2522   0.9331     O
O       0.3179   0.0187   0.9544     O
O       0.3179   0.4813   0.4544     O
H       0.3209   0.5811   0.3367     H
H       0.3209   0.9189   0.8367     H
C        0.322    0.236   0.8747     C
C        0.322    0.264   0.3747     C
H       0.3684   0.2027   0.2528     H
H       0.3684   0.2973   0.7528     H
Gd     0.37376  0.63165  0.52769    Gd
Gd     0.37376  0.86835  0.02769    Gd
O       0.4981   0.1831   0.8597     O
O       0.4981   0.3169   0.3597     O
O       0.5019   0.6831   0.6403     O
O       0.5019   0.8169   0.1403     O
Gd     0.62624  0.13165  0.97231    Gd
Gd     0.62624  0.36835  0.47231    Gd
H       0.6316   0.7027   0.2472     H
H       0.6316   0.7973   0.7472     H
C        0.678    0.736   0.6253     C
C        0.678    0.764   0.1253     C
H       0.6791   0.0811   0.1633     H
H       0.6791   0.4189   0.6633     H
O       0.6821   0.5187   0.5456     O
O       0.6821   0.9813   0.0456     O
O       0.7024   0.7478   0.0669     O
O       0.7024   0.7522   0.5669     O
H       0.7485   0.5732   0.1673     H
H       0.7485   0.9268   0.6673     H
H       0.7663   0.0966   0.2818     H
H       0.7663   0.4034   0.7818     H
H       0.7707   0.5262   0.6815     H
H       0.7707   0.9738   0.1815     H
H       0.7731    0.696   0.7526     H
H       0.7731    0.804   0.2526     H
C        0.789   0.7334   0.2443     C
C        0.789   0.7666   0.7443     C
C        0.821   0.0382   0.1667     C
C        0.821   0.4618   0.6667     C
C        0.858   0.7195   0.1773     C
C        0.858   0.7805   0.6773     C
H       0.8695   0.2207    0.205     H
H       0.8695   0.2793    0.705     H
O       0.8727   0.0464   0.9097     O
O       0.8727   0.4536   0.4097     O
C        0.902   0.6083   0.1682     C
C        0.902   0.8917   0.6682     C
H       0.9059   0.5051   0.7882     H
H       0.9059   0.9949   0.2882     H
P       0.9136   0.0223  0.08645     P
P       0.9136   0.4777  0.58645     P
H        0.921   0.6986   0.3382     H
H        0.921   0.8014   0.8382     H
C        0.924   0.0656   0.2804     C
C        0.924   0.4344   0.7804     C
O       0.9592   0.1224   0.0573     O
O       0.9592   0.3776   0.5573     O
H       0.9637   0.5981   0.1269     H
H       0.9637   0.9019   0.6269     H
C        0.974   0.6883   0.2959     C
C        0.974   0.8117   0.7959     C
H       0.9868   0.2465   0.8248     H
H       0.9868   0.2535   0.3248     H
N       0.9979   0.5799   0.2835     N
N       0.9979   0.9201   0.7835     N
