data_I
_chemical_name_common  '/home/zhangsd/repos/MofS-CGCNN/ML/data/SSD/clean_cifs/GAKBAX_clean'
_cell_length_a  5.53130
_cell_length_b 13.39600
_cell_length_c 20.93400
_cell_angle_alpha 90.00000
_cell_angle_beta  96.17700
_cell_angle_gamma 90.00000
_space_group_name_H-M_alt      'P 1'


loop_
_space_group_symop_operation_xyz
  'x, y, z' 

loop_
_atom_site_label
_atom_site_fract_x
_atom_site_fract_y
_atom_site_fract_z
_atom_site_type_symbol
N        0.002   0.5797   0.2843     N
N        0.002   0.9203   0.7843     N
H       0.0123   0.7476   0.6756     H
H       0.0123   0.7524   0.1756     H
C        0.024   0.1877   0.2044     C
C        0.024   0.3123   0.7044     C
H        0.037   0.0975   0.3722     H
H        0.037   0.4025   0.8722     H
O       0.0387    0.622   0.4428     O
O       0.0387    0.878   0.9428     O
H       0.0731   0.1982   0.1618     H
H       0.0731   0.3018   0.6618     H
C        0.082    0.566     0.22     C
C        0.082    0.934     0.72     C
P       0.0869   0.5223  0.41341     P
P       0.0869   0.9777  0.91341     P
C        0.096   0.1076   0.3307     C
C        0.096   0.3924   0.8307     C
H       0.1039   0.0047   0.7122     H
H       0.1039   0.4953   0.2122     H
O       0.1267   0.5469     0.59     O
O       0.1267   0.9531     0.09     O
H       0.1317   0.7202   0.2937     H
H       0.1317   0.7798   0.7937     H
C        0.143   0.2179   0.3217     C
C        0.143   0.2821   0.8217     C
C        0.182   0.5366   0.3333     C
C        0.182   0.9634   0.8333     C
C        0.211   0.2344   0.2539     C
C        0.211   0.2656   0.7539     C
H       0.2216   0.1946   0.7457     H
H       0.2216   0.3054   0.2457     H
H       0.2282   0.0285   0.8184     H
H       0.2282   0.4715   0.3184     H
H       0.2379   0.5987   0.2184     H
H       0.2379   0.9013   0.7184     H
H       0.2485   0.0716   0.3308     H
H       0.2485   0.4284   0.8308     H
O       0.2965   0.2464   0.4324     O
O       0.2965   0.2536   0.9324     O
O       0.3165   0.0177   0.9545     O
O       0.3165   0.4823   0.4545     O
H       0.3259   0.5784   0.3365     H
H       0.3259   0.9216   0.8365     H
C        0.326    0.237   0.8734     C
C        0.326    0.263   0.3734     C
H       0.3693   0.2051   0.2502     H
H       0.3693   0.2949   0.7502     H
Eu     0.37323  0.63215  0.52763    Eu
Eu     0.37323  0.86785  0.02763    Eu
O       0.4973   0.1835   0.8598     O
O       0.4973   0.3165   0.3598     O
O       0.5027   0.6835   0.6402     O
O       0.5027   0.8165   0.1402     O
Eu     0.62677  0.13215  0.97237    Eu
Eu     0.62677  0.36785  0.47237    Eu
H       0.6307   0.7051   0.2498     H
H       0.6307   0.7949   0.7498     H
C        0.674    0.737   0.6266     C
C        0.674    0.763   0.1266     C
H       0.6741   0.0784   0.1635     H
H       0.6741   0.4216   0.6635     H
O       0.6835   0.5177   0.5455     O
O       0.6835   0.9823   0.0455     O
O       0.7035   0.7464   0.0676     O
O       0.7035   0.7536   0.5676     O
H       0.7515   0.5716   0.1692     H
H       0.7515   0.9284   0.6692     H
H       0.7621   0.0987   0.2816     H
H       0.7621   0.4013   0.7816     H
H       0.7718   0.5285   0.6816     H
H       0.7718   0.9715   0.1816     H
H       0.7784   0.6946   0.7543     H
H       0.7784   0.8054   0.2543     H
C        0.789   0.7344   0.2461     C
C        0.789   0.7656   0.7461     C
C        0.818   0.0366   0.1667     C
C        0.818   0.4634   0.6667     C
C        0.857   0.7179   0.1783     C
C        0.857   0.7821   0.6783     C
H       0.8683   0.2202   0.2063     H
H       0.8683   0.2798   0.7063     H
O       0.8733   0.0469     0.91     O
O       0.8733   0.4531     0.41     O
H       0.8961   0.5047   0.7878     H
H       0.8961   0.9953   0.2878     H
C        0.904   0.6076   0.1693     C
C        0.904   0.8924   0.6693     C
P       0.9131   0.0223  0.08659     P
P       0.9131   0.4777  0.58659     P
C        0.918    0.066     0.28     C
C        0.918    0.434     0.78     C
H       0.9269   0.6982   0.3382     H
H       0.9269   0.8018   0.8382     H
O       0.9613    0.122   0.0572     O
O       0.9613    0.378   0.5572     O
H        0.963   0.5975   0.1278     H
H        0.963   0.9025   0.6278     H
C        0.976   0.6877   0.2956     C
C        0.976   0.8123   0.7956     C
H       0.9877   0.2476   0.8244     H
H       0.9877   0.2524   0.3244     H
N        0.998   0.0797   0.2157     N
N        0.998   0.4203   0.7157     N
