data_I
_chemical_name_common  '/home/zhangsd/repos/MofS-CGCNN/ML/data/SSD/clean_cifs/GAMTOE_clean'
_cell_length_a 11.85700
_cell_length_b 12.55400
_cell_length_c 12.51500
_cell_angle_alpha 119.12000
_cell_angle_beta  98.44000
_cell_angle_gamma 108.27000
_space_group_name_H-M_alt      'P 1'


loop_
_space_group_symop_operation_xyz
  'x, y, z' 

loop_
_atom_site_label
_atom_site_fract_x
_atom_site_fract_y
_atom_site_fract_z
_atom_site_type_symbol
C       0.0432   0.4041    0.754     C
O       0.0433   0.3682   0.8336     O
O       0.0597   0.6391   0.3329     O
C       0.0602   0.8251   0.9112     C
H       0.0727   0.9188    0.974     H
C       0.0811   0.2681   0.1476     C
H       0.0822    0.412   0.3218     H
H       0.0872   0.8242   0.8397     H
O       0.1098   0.7267   0.0243     O
O       0.1159   0.9502    0.294     O
H       0.1225   0.1553   0.9903     H
C       0.1354   0.3862   0.2747     C
C       0.1499   0.7968   0.9815     C
H        0.152   0.3465   0.5161     H
H        0.152   0.5367   0.7155     H
C       0.1593   0.2333   0.0782     C
H       0.1645   0.1815   0.3228     H
C       0.1681   0.4961   0.7634     C
La     0.19715  0.76407   0.2439    La
C       0.2119   0.3407   0.5699     C
C       0.2181   0.0345   0.3078     C
H       0.2204   0.5709   0.8564     H
C       0.2387    0.413   0.7043     C
C       0.2413   0.1806   0.3652     C
C       0.2665   0.4668   0.3332     C
O       0.2666   0.8535   0.9971     O
H       0.2684   0.5918   0.5183     H
C       0.2722   0.2594   0.5127     C
C        0.291    0.311   0.1354     C
O        0.305   0.9998   0.2782     O
H       0.3129   0.2258   0.3466     H
C       0.3268   0.5974   0.4702     C
C        0.327   0.4045   0.7825     C
H       0.3273   0.2083   0.9673     H
O       0.3315    0.717  0.36772     O
H       0.3431   0.4511   0.8739     H
C       0.3438   0.4277   0.2636     C
C        0.357   0.7255   0.4731     C
C       0.3633   0.2559   0.5936     C
C       0.3762   0.2664   0.0628     C
C       0.3921    0.329   0.7291     C
O       0.3949   0.1109   0.7649     O
O       0.3983   0.8017   0.1876     O
H       0.4064   0.2031   0.5561     H
H       0.4066   0.6046   0.5172     H
O       0.4074   0.8385   0.5842     O
H        0.419   0.6135   0.1883     H
O       0.4256    0.975   0.4668     O
O       0.4276    0.198   0.2035     O
C        0.428   0.1881   0.0999     C
H       0.4336    0.481   0.3038     H
H       0.4482   0.3478   0.0825     H
O        0.471   0.1133   0.0232     O
La     0.47975  0.01103  0.17795    La
H       0.4937   0.6044   0.0905     H
C       0.4964   0.2059   0.7935     C
C       0.4989   0.6617   0.1818     C
C       0.5011   0.3383   0.8182     C
C       0.5036   0.7941   0.2065     C
H       0.5063   0.3956   0.9095     H
La     0.52025  0.98897  0.82205    La
O        0.529   0.8867   0.9768     O
H       0.5518   0.6522   0.9175     H
H       0.5664    0.519   0.6962     H
C        0.572   0.8119   0.9001     C
O       0.5724    0.802   0.7965     O
O       0.5744    0.025   0.5332     O
H        0.581   0.3865   0.8117     H
O       0.5926   0.1615   0.4158     O
H       0.5934   0.3954   0.4828     H
H       0.5936   0.7969   0.4439     H
O       0.6017   0.1983   0.8124     O
O       0.6051   0.8891   0.2351     O
C       0.6079    0.671   0.2709     C
C       0.6238   0.7336   0.9372     C
C       0.6367   0.7441   0.4064     C
C        0.643   0.2745   0.5269     C
C       0.6562   0.5723   0.7364     C
H       0.6569   0.5489   0.1261     H
O       0.6685    0.283  0.63228     O
H       0.6727   0.7917   0.0327     H
C        0.673   0.5955   0.2175     C
C       0.6732   0.4026   0.5298     C
H       0.6871   0.7742   0.6534     H
O        0.695   0.0002   0.7218     O
C        0.709    0.689   0.8646     C
C       0.7278   0.7406   0.4873     C
H       0.7316   0.4082   0.4817     H
O       0.7334   0.1465   0.0029     O
C       0.7335   0.5332   0.6668     C
C       0.7587   0.8194   0.6348     C
C       0.7613    0.587   0.2957     C
H       0.7796   0.4291   0.1436     H
C       0.7819   0.9655   0.6922     C
C       0.7881   0.6593   0.4301     C
La     0.80285  0.23593   0.7561    La
C       0.8319   0.5039   0.2366     C
H       0.8355   0.8185   0.6772     H
C       0.8407   0.7667   0.9218     C
H        0.848   0.4633   0.2845     H
H        0.848   0.6535   0.4839     H
C       0.8501   0.2032   0.0185     C
C       0.8646   0.6138   0.7253     C
H       0.8775   0.8447   0.0097     H
O       0.8841   0.0498    0.706     O
O       0.8902   0.2733   0.9757     O
H       0.9128   0.1758   0.1603     H
H       0.9178    0.588   0.6782     H
C       0.9189   0.7319   0.8524     C
H       0.9273   0.0812    0.026     H
C       0.9398   0.1749   0.0888     C
O       0.9403   0.3609   0.6671     O
O       0.9567   0.6318   0.1664     O
C       0.9568   0.5959    0.246     C
