data_I
_chemical_name_common  '/home/zhangsd/repos/MofS-CGCNN/ML/data/SSD/clean_cifs/GAMTUK_clean'
_cell_length_a 11.81200
_cell_length_b 12.44400
_cell_length_c 12.52200
_cell_angle_alpha 118.94900
_cell_angle_beta  108.30000
_cell_angle_gamma 98.38700
_space_group_name_H-M_alt      'P 1'


loop_
_space_group_symop_operation_xyz
  'x, y, z' 

loop_
_atom_site_label
_atom_site_fract_x
_atom_site_fract_y
_atom_site_fract_z
_atom_site_type_symbol
O       0.0419   0.8356   0.3691     O
C       0.0423   0.7541   0.4031     C
C       0.0614   0.9071   0.8219     C
O       0.0622   0.3352   0.6433     O
H       0.0746   0.9675   0.9165     H
C       0.0822   0.1499   0.2717     C
H       0.0879   0.3274   0.4193     H
H       0.0879   0.8336   0.8173     H
O       0.1102   0.0248   0.7258     O
O       0.1151   0.2935   0.9462     O
H       0.1234   0.9918   0.1625     H
C       0.1399   0.2788   0.3917     C
H       0.1513   0.5102   0.3443     H
C       0.1519   0.9813   0.7955     C
H        0.153   0.7181   0.5385     H
C       0.1611   0.0809   0.2385     C
H       0.1611   0.3219   0.1771     H
C       0.1683   0.7649   0.4962     C
Ce      0.1973  0.24333  0.76396    Ce
C       0.2101    0.565   0.3381     C
C       0.2178   0.3089   0.0335     C
H       0.2208   0.8584   0.5697     H
C       0.2373   0.7039   0.4115     C
C        0.239   0.3648   0.1777     C
O       0.2669   0.9978   0.8565     O
C       0.2698   0.3345   0.4687     C
C       0.2706   0.5126   0.2584     C
H       0.2736   0.5218   0.5918     H
C       0.2916    0.136   0.3111     C
O       0.3044   0.2769   0.9989     O
H         0.31    0.345   0.2229     H
H       0.3231   0.9675   0.2056     H
C       0.3263   0.7813   0.4023     C
C       0.3311   0.4725   0.5986     C
O       0.3314   0.3687   0.7192     O
H       0.3421    0.873   0.4476     H
C       0.3446   0.2643   0.4289     C
C       0.3588    0.476   0.7266     C
C       0.3629    0.593   0.2566     C
C       0.3738   0.0629   0.2649     C
C       0.3918   0.7276   0.3288     C
O       0.3969   0.1863   0.8011     O
O        0.397   0.7676   0.1123     O
H       0.4072   0.5552    0.205     H
O       0.4092    0.585   0.8416     O
H        0.412   0.5181    0.606     H
H       0.4186   0.1917   0.6168     H
O       0.4264    0.203   0.1927     O
C       0.4284      0.1   0.1877     C
H       0.4346   0.3035   0.4824     H
H       0.4452   0.0798   0.3454     H
O       0.4721   0.0228   0.1136     O
Ce     0.47831  0.17776  0.00985    Ce
H       0.4918   0.0916   0.6049     H
C       0.4965    0.794   0.2058     C
C       0.4984   0.1836   0.6635     C
C       0.5016   0.8164   0.3365     C
C       0.5035    0.206   0.7942     C
H       0.5082   0.9084   0.3951     H
Ce     0.52169  0.82224  0.99015    Ce
O       0.5279   0.9772   0.8864     O
H       0.5548   0.9202   0.6546     H
H       0.5654   0.6965   0.5176     H
C       0.5716      0.9   0.8123     C
O       0.5736    0.797   0.8073     O
H       0.5814   0.8083   0.3832     H
H        0.588   0.4819    0.394     H
O       0.5908    0.415   0.1584     O
H       0.5928   0.4448    0.795     H
O        0.603   0.2324   0.8877     O
O       0.6031   0.8137   0.1989     O
C       0.6082   0.2724   0.6712     C
C       0.6262   0.9371   0.7351     C
C       0.6371    0.407   0.7434     C
C       0.6412    0.524   0.2734     C
C       0.6554   0.7357   0.5711     C
H       0.6579    0.127   0.5524     H
O       0.6686   0.6313   0.2808     O
C       0.6689   0.5275   0.4014     C
C       0.6737   0.2187   0.5977     C
H       0.6769   0.0325   0.7944     H
H         0.69    0.655   0.7771     H
O       0.6956   0.7231   0.0011     O
C       0.7084    0.864   0.6889     C
H       0.7264   0.4782   0.4082     H
C       0.7294   0.4874   0.7416     C
C       0.7302   0.6655   0.5313     C
O       0.7331   0.0022   0.1435     O
C        0.761   0.6352   0.8223     C
C       0.7627   0.2961   0.5885     C
H       0.7792   0.1416   0.4303     H
C       0.7822   0.6911   0.9665     C
C       0.7899    0.435   0.6619     C
Ce      0.8027  0.75667  0.23604    Ce
C       0.8317   0.2351   0.5038     C
H       0.8389   0.6781   0.8229     H
C       0.8389   0.9191   0.7615     C
H        0.847   0.2819   0.4615     H
C       0.8481   0.0187   0.2045     C
H       0.8487   0.4898   0.6557     H
C       0.8601   0.7212   0.6083     C
H       0.8766   0.0082   0.8375     H
O       0.8849   0.7065   0.0538     O
O       0.8898   0.9752   0.2742     O
H       0.9121   0.1664   0.1827     H
H       0.9121   0.6726   0.5807     H
C       0.9178   0.8501   0.7283     C
H       0.9254   0.0325   0.0835     H
O       0.9378   0.6648   0.3567     O
C       0.9386   0.0929   0.1781     C
C       0.9577   0.2459   0.5969     C
O       0.9581   0.1644   0.6309     O
