data_I
_chemical_name_common  '/home/zhangsd/repos/MofS-CGCNN/ML/data/SSD/clean_cifs/GAMVAS_clean'
_cell_length_a 11.78100
_cell_length_b 12.41600
_cell_length_c 12.50300
_cell_angle_alpha 118.87000
_cell_angle_beta  108.30000
_cell_angle_gamma 98.42000
_space_group_name_H-M_alt      'P 1'


loop_
_space_group_symop_operation_xyz
  'x, y, z' 

loop_
_atom_site_label
_atom_site_fract_x
_atom_site_fract_y
_atom_site_fract_z
_atom_site_type_symbol
C       0.0011   0.3181   0.8373     C
C       0.0023   0.7058   0.2948     C
H       0.0063   0.4099   0.8945     H
Pr     0.02218  0.32221   0.4904    Pr
O       0.0279   0.4791   0.3886     O
H       0.0486   0.4157    0.152     H
H       0.0619   0.1951   0.0216     H
C       0.0718    0.402   0.3133     C
O       0.0756   0.2994   0.3088     O
H       0.0812   0.3113   0.8859     H
H       0.0867   0.9795   0.8903     H
O       0.0894   0.9135   0.6555     O
H       0.0968   0.9458    0.301     H
O       0.1022   0.3109   0.6952     O
O       0.1049   0.7332   0.3907     O
C       0.1081   0.7706    0.172     C
C       0.1219   0.4359   0.2332     C
C       0.1392   0.9077   0.2469     C
C       0.1401   0.0249   0.7702     C
C       0.1525   0.2344   0.0718     C
H       0.1574   0.6261   0.0495     H
C       0.1679   0.0261   0.8984     C
O       0.1683   0.1318   0.7804     O
H       0.1709   0.5317   0.2898     H
C       0.1744   0.7182   0.0973     C
H       0.1947   0.1587   0.2799     H
O       0.1962   0.2234   0.5029     O
C       0.2079   0.3621   0.1868     C
H       0.2257   0.9766   0.9043     H
C       0.2285   0.1623   0.0284     C
O        0.231   0.5018   0.6439     O
C        0.231   0.9887   0.2435     C
C       0.2643   0.7963   0.0907     C
C       0.2647   0.1378   0.3252     C
H       0.2814   0.6435   0.9306     H
C       0.2847   0.1932   0.4683     C
C       0.2907   0.9318   0.1626     C
Pr     0.30216  0.25658  0.73515    Pr
C       0.3344   0.7365   0.0058     C
C       0.3401   0.4192    0.264     C
H       0.3436   0.1799   0.3263     H
C       0.3485   0.5197   0.7036     C
H       0.3504   0.9858    0.156     H
H       0.3513   0.7855   0.9659     H
C       0.3601   0.2207   0.1087     C
H       0.3778   0.5073   0.3422     H
O       0.3863   0.2052   0.5541     O
O       0.3892   0.4741    0.773     O
H       0.4117   0.6684   0.6848     H
H       0.4124   0.1719   0.0815     H
C       0.4184   0.3466   0.2263     C
H       0.4269   0.5359   0.5859     H
O       0.4384   0.1652   0.8558     O
C        0.439   0.5953   0.6802     C
O       0.4588   0.6626   0.1306     O
C       0.4592   0.7449   0.0984     C
C       0.5408   0.2551   0.9016     C
O       0.5412   0.3374   0.8694     O
C        0.561   0.4047   0.3198     C
O       0.5616   0.8348   0.1442     O
H       0.5731   0.4641   0.4141     H
C       0.5816   0.6534   0.7737     C
H       0.5876   0.8281   0.9185     H
H       0.5883   0.3316   0.3152     H
O       0.6108   0.5259    0.227     O
O       0.6137   0.7948   0.4459     O
H       0.6222   0.4927   0.6578     H
C       0.6399   0.7793   0.8913     C
H       0.6487   0.2145   0.0341     H
H       0.6496   0.0142    0.844     H
C       0.6515   0.4803   0.2964     C
H       0.6564   0.8201   0.6737     H
C       0.6599   0.5808    0.736     C
C       0.6656   0.2635   0.9942     C
Pr     0.69784  0.74342  0.26485    Pr
C       0.7093   0.0682   0.8374     C
C       0.7153   0.8068   0.5317     C
H       0.7186   0.3565   0.0694     H
C       0.7353   0.8622   0.6748     C
C       0.7357   0.2037   0.9093     C
C        0.769   0.0113   0.7565     C
O        0.769   0.4982   0.3561     O
C       0.7715   0.8377   0.9716     C
H       0.7743   0.0234   0.0957     H
C       0.7921   0.6379   0.8132     C
O       0.8038   0.7766   0.4971     O
H       0.8053   0.8413   0.7201     H
C       0.8256   0.2818   0.9027     C
H       0.8291   0.4683   0.7102     H
O       0.8317   0.8682   0.2196     O
C       0.8321   0.9739   0.1016     C
H       0.8426   0.3739   0.9505     H
C       0.8475   0.7656   0.9282     C
C       0.8599   0.9751   0.2298     C
C       0.8608   0.0923   0.7531     C
C       0.8781   0.5641   0.7668     C
C       0.8919   0.2294    0.828     C
O       0.8951   0.2668   0.6093     O
O       0.8978   0.6891   0.3048     O
H       0.9032   0.0542    0.699     H
O       0.9106   0.0865   0.3445     O
H       0.9133   0.0205   0.1097     H
H       0.9188   0.6887   0.1141     H
O       0.9244   0.7006   0.6912     O
C       0.9282    0.598   0.6867     C
H       0.9381   0.8049   0.9784     H
H       0.9514   0.5843    0.848     H
O       0.9721   0.5209   0.6114     O
Pr     0.97782  0.67779   0.5096    Pr
H       0.9937   0.5901   0.1055     H
C       0.9977   0.2942   0.7052     C
C       0.9989   0.6819   0.1627     C
