data_I
_chemical_name_common  '/home/zhangsd/repos/MofS-CGCNN/ML/data/SSD/clean_cifs/GAPNOD_clean'
_cell_length_a 15.82740
_cell_length_b  9.62210
_cell_length_c 20.20220
_cell_angle_alpha 90.00000
_cell_angle_beta  96.85500
_cell_angle_gamma 90.00000
_space_group_name_H-M_alt      'P 1'


loop_
_space_group_symop_operation_xyz
  'x, y, z' 

loop_
_atom_site_label
_atom_site_fract_x
_atom_site_fract_y
_atom_site_fract_z
_atom_site_type_symbol
O       0.0163   0.1774   0.2192     O
O       0.0163   0.3226   0.7192     O
O       0.0329   0.2054   0.8128     O
O       0.0329   0.2946   0.3128     O
C       0.0635   0.2434   0.2635     C
C       0.0635   0.2566   0.7635     C
U      0.11439   0.7167  0.22436     U
U      0.11439   0.7833  0.72436     U
O        0.134   0.5598   0.3193     O
O        0.134   0.9402   0.8193     O
C       0.1579   0.2455   0.7596     C
C       0.1579   0.2545   0.2596     C
H       0.1631   0.0989   0.1922     H
H       0.1631   0.4011   0.6922     H
C       0.1736   0.0423   0.8432     C
C       0.1736   0.4577   0.3432     C
O       0.1908   0.0598   0.9069     O
O       0.1908   0.4402   0.4069     O
C        0.197   0.1603   0.2211     C
C        0.197   0.3397   0.7211     C
C       0.2079   0.1512    0.801     C
C       0.2079   0.3488    0.301     C
O       0.2474   0.7032   0.6746     O
O       0.2474   0.7968   0.1746     O
O       0.2642   0.6543     0.26     O
O       0.2642   0.8457     0.76     O
C       0.2837   0.1547   0.2241     C
C       0.2837   0.3453   0.7241     C
U      0.28412  0.53175  0.49231     U
U      0.28412  0.96825  0.99231     U
C       0.2949    0.728   0.2174     C
C       0.2949    0.772   0.7174     C
C       0.2964   0.1569   0.8031     C
C       0.2964   0.3431   0.3031     C
H       0.3091   0.0883   0.1979     H
H       0.3091   0.4117   0.6979     H
H       0.3303   0.0932   0.8307     H
H       0.3303   0.4068   0.3307     H
C       0.3364    0.247   0.2659     C
C       0.3364    0.253   0.7659     C
O       0.3484   0.7241   0.5612     O
O       0.3484   0.7759   0.0612     O
C       0.3839   0.6457   0.6056     C
C       0.3839   0.8543   0.1056     C
O       0.3841    0.515   0.5954     O
O       0.3841    0.985   0.0954     O
C       0.3901   0.7328   0.2188     C
C       0.3901   0.7672   0.7188     C
H       0.4125   0.6327   0.3081     H
H       0.4125   0.8673   0.8081     H
C       0.4301   0.7034   0.6682     C
C       0.4301   0.7966   0.1682     C
C       0.4306   0.2421   0.2714     C
C       0.4306   0.2579   0.7714     C
C       0.4394   0.6745   0.2735     C
C       0.4394   0.8255   0.7735     C
H       0.4408   0.1341   0.1853     H
H       0.4408   0.3659   0.6853     H
H       0.4538   0.1556   0.8595     H
H       0.4538   0.3444   0.3595     H
C       0.4733   0.1771   0.2223     C
C       0.4733   0.3229   0.7223     C
C       0.4809   0.1996   0.8255     C
C       0.4809   0.3004   0.3255     C
C       0.5191   0.6996   0.6745     C
C       0.5191   0.8004   0.1745     C
C       0.5267   0.6771   0.2777     C
C       0.5267   0.8229   0.7777     C
H       0.5462   0.6556   0.6405     H
H       0.5462   0.8444   0.1405     H
H       0.5592   0.6341   0.3147     H
H       0.5592   0.8659   0.8147     H
C       0.5606   0.1745   0.2265     C
C       0.5606   0.3255   0.7265     C
C       0.5694   0.7421   0.2286     C
C       0.5694   0.7579   0.7286     C
C       0.5699   0.2034   0.8318     C
C       0.5699   0.2966   0.3318     C
H       0.5875   0.1327   0.1919     H
H       0.5875   0.3673   0.6919     H
C       0.6099   0.2328   0.2812     C
C       0.6099   0.2672   0.7812     C
O       0.6159    0.015   0.9046     O
O       0.6159    0.485   0.4046     O
C       0.6161   0.1457   0.8944     C
C       0.6161   0.3543   0.3944     C
O       0.6516   0.2241   0.9388     O
O       0.6516   0.2759   0.4388     O
C       0.6636    0.747   0.2341     C
C       0.6636    0.753   0.7341     C
H       0.6697   0.5932   0.6693     H
H       0.6697   0.9068   0.1693     H
H       0.6909   0.5883   0.3021     H
H       0.6909   0.9117   0.8021     H
C       0.7036   0.6569   0.6969     C
C       0.7036   0.8431   0.1969     C
C       0.7051    0.228   0.2826     C
C       0.7051    0.272   0.7826     C
U      0.71588  0.03175  0.00769     U
U      0.71588  0.46825  0.50769     U
C       0.7163   0.6547   0.2759     C
C       0.7163   0.8453   0.7759     C
O       0.7358   0.1543     0.24     O
O       0.7358   0.3457     0.74     O
O       0.7526   0.2032   0.8254     O
O       0.7526   0.2968   0.3254     O
C       0.7921   0.6512    0.699     C
C       0.7921   0.8488    0.199     C
C        0.803   0.6603   0.2789     C
C        0.803   0.8397   0.7789     C
O       0.8092   0.5598   0.5931     O
O       0.8092   0.9402   0.0931     O
C       0.8264   0.5423   0.6568     C
C       0.8264   0.9577   0.1568     C
H       0.8369   0.5989   0.3078     H
H       0.8369   0.9011   0.8078     H
C       0.8421   0.7455   0.7404     C
C       0.8421   0.7545   0.2404     C
O        0.866   0.0598   0.1807     O
O        0.866   0.4402   0.6807     O
U      0.88561   0.2167  0.27564     U
U      0.88561   0.2833  0.77564     U
C       0.9365   0.7434   0.2365     C
C       0.9365   0.7566   0.7365     C
O       0.9671   0.7054   0.6872     O
O       0.9671   0.7946   0.1872     O
O       0.9837   0.6774   0.2808     O
O       0.9837   0.8226   0.7808     O
