data_I
_chemical_name_common  '/home/zhangsd/repos/MofS-CGCNN/ML/data/SSD/clean_cifs/GARLAP_clean'
_cell_length_a 15.86100
_cell_length_b 10.59900
_cell_length_c 21.23500
_cell_angle_alpha 90.00000
_cell_angle_beta  106.91400
_cell_angle_gamma 90.00000
_space_group_name_H-M_alt      'P 1'


loop_
_space_group_symop_operation_xyz
  'x, y, z' 

loop_
_atom_site_label
_atom_site_fract_x
_atom_site_fract_y
_atom_site_fract_z
_atom_site_type_symbol
O       0.0079   0.4223   0.5933     O
O       0.0079   0.5777   0.0933     O
O       0.0448   0.3258   0.0638     O
O       0.0448   0.6742   0.5638     O
H       0.0714   0.4699   0.7173     H
H       0.0714   0.5301   0.2173     H
C       0.0804   0.3637   0.6048     C
C       0.0804   0.6363   0.1048     C
La     0.10075  0.41834  0.45244    La
La     0.10075  0.58166  0.95244    La
H        0.103    0.184   0.1631     H
H        0.103    0.816   0.6631     H
O       0.1083   0.4371   0.3341     O
O       0.1083   0.5629   0.8341     O
O       0.1111   0.3238   0.5609     O
O       0.1111   0.6762   0.0609     O
C       0.1159   0.4097    0.726     C
C       0.1159   0.5903    0.226     C
C       0.1243   0.3303   0.0681     C
C       0.1243   0.6697   0.5681     C
C       0.1318   0.3407   0.6755     C
C       0.1318   0.6593   0.1755     C
C       0.1548   0.4643    0.846     C
C       0.1548   0.5357    0.346     C
C       0.1559   0.1638   0.1549     C
C       0.1559   0.8362   0.6549     C
O       0.1578   0.4126   0.0393     O
O       0.1578   0.5874   0.5393     O
C       0.1674   0.3878   0.7901     C
C       0.1674   0.6122   0.2901     C
C       0.1821   0.2307    0.108     C
C       0.1821   0.7693    0.608     C
H        0.188   0.0235   0.2208     H
H        0.188   0.9765   0.7208     H
O       0.1912   0.4286    0.904     O
O       0.1912   0.5714    0.404     O
C       0.1984   0.2502   0.6889     C
C       0.1984   0.7498   0.1889     C
C       0.2071   0.0678   0.1896     C
C       0.2071   0.9322   0.6896     C
H       0.2095   0.2059   0.6543     H
H       0.2095   0.7941   0.1543     H
C       0.2333   0.2963   0.8036     C
C       0.2333   0.7037   0.3036     C
C       0.2486   0.2251   0.7531     C
C       0.2486   0.7749   0.2531     C
C       0.2631    0.202   0.0988     C
C       0.2631    0.798   0.5988     C
O       0.2641   0.3662   0.5107     O
O       0.2641   0.6338   0.0107     O
H       0.2673   0.2827   0.8468     H
H       0.2673   0.7173   0.3468     H
H       0.2834   0.2484   0.0689     H
H       0.2834   0.7516   0.5689     H
C       0.2859   0.0361   0.1791     C
C       0.2859   0.9639   0.6791     C
O        0.308   0.4888   0.5991     O
O        0.308   0.5112   0.0991     O
N       0.3129   0.1287   0.7666     N
N       0.3129   0.8713   0.2666     N
C       0.3136   0.1051   0.1336     C
C       0.3136   0.8949   0.6336     C
C       0.3168   0.3916   0.5637     C
C       0.3168   0.6084   0.0637     C
H        0.328   0.1145   0.8615     H
H        0.328   0.8855   0.3615     H
C        0.341    0.073    0.714     C
H        0.341    0.138   0.6819     H
H        0.341    0.862   0.1819     H
C        0.341    0.927    0.214     C
C       0.3644   0.1008   0.8325     C
C       0.3644   0.8992   0.3325     C
H       0.3672   0.0858   0.1263     H
H       0.3672   0.9142   0.6263     H
H       0.3711   0.1841   0.5212     H
H       0.3711   0.8159   0.0212     H
H       0.3799   0.0121   0.8349     H
H       0.3799   0.9879   0.3349     H
C       0.3989   0.3163   0.5918     C
C       0.3989   0.6837   0.0918     C
H       0.4013   0.0441    0.732     H
H       0.4013   0.9559    0.232     H
C       0.4128   0.2091   0.5598     C
C       0.4128   0.7909   0.0598     C
H       0.4231   0.3052   0.7869     H
H       0.4231   0.6948   0.2869     H
C       0.4483   0.1771    0.858     C
C       0.4483   0.8229    0.358     C
H       0.4498   0.4233   0.6715     H
H       0.4498   0.5767   0.1715     H
C       0.4595    0.352   0.6491     C
C       0.4595    0.648   0.1491     C
C        0.464   0.2809   0.8261     C
C        0.464   0.7191   0.3261     C
C       0.4887   0.1378   0.5847     C
C       0.4887   0.8622   0.0847     C
H       0.4974   0.0644   0.5634     H
H       0.4974   0.9356   0.0634     H
H       0.5026   0.0644   0.9366     H
H       0.5026   0.9356   0.4366     H
C       0.5113   0.1378   0.9153     C
C       0.5113   0.8622   0.4153     C
C        0.536   0.2809   0.6739     C
C        0.536   0.7191   0.1739     C
C       0.5405    0.352   0.8509     C
C       0.5405    0.648   0.3509     C
H       0.5502   0.4233   0.8285     H
H       0.5502   0.5767   0.3285     H
C       0.5517   0.1771    0.642     C
C       0.5517   0.8229    0.142     C
H       0.5769   0.3052   0.7131     H
H       0.5769   0.6948   0.2131     H
C       0.5872   0.2091   0.9402     C
C       0.5872   0.7909   0.4402     C
H       0.5987   0.0441    0.768     H
H       0.5987   0.9559    0.268     H
C       0.6011   0.3163   0.9082     C
C       0.6011   0.6837   0.4082     C
H       0.6201   0.0121   0.6651     H
H       0.6201   0.9879   0.1651     H
H       0.6289   0.1841   0.9788     H
H       0.6289   0.8159   0.4788     H
H       0.6328   0.0858   0.3737     H
H       0.6328   0.9142   0.8737     H
C       0.6356   0.1008   0.6675     C
C       0.6356   0.8992   0.1675     C
C        0.659    0.073    0.786     C
H        0.659    0.138   0.8181     H
H        0.659    0.862   0.3181     H
C        0.659    0.927    0.286     C
H        0.672   0.1145   0.6385     H
H        0.672   0.8855   0.1385     H
C       0.6832   0.3916   0.9363     C
C       0.6832   0.6084   0.4363     C
C       0.6864   0.1051   0.3664     C
C       0.6864   0.8949   0.8664     C
N       0.6871   0.1287   0.7334     N
N       0.6871   0.8713   0.2334     N
O        0.692   0.4888   0.9009     O
O        0.692   0.5112   0.4009     O
C       0.7141   0.0361   0.3209     C
C       0.7141   0.9639   0.8209     C
H       0.7166   0.2484   0.4311     H
H       0.7166   0.7516   0.9311     H
H       0.7327   0.2827   0.6532     H
H       0.7327   0.7173   0.1532     H
O       0.7359   0.3662   0.9893     O
O       0.7359   0.6338   0.4893     O
C       0.7369    0.202   0.4012     C
C       0.7369    0.798   0.9012     C
C       0.7514   0.2251   0.7469     C
C       0.7514   0.7749   0.2469     C
C       0.7667   0.2963   0.6964     C
C       0.7667   0.7037   0.1964     C
H       0.7905   0.2059   0.8457     H
H       0.7905   0.7941   0.3457     H
C       0.7929   0.0678   0.3104     C
C       0.7929   0.9322   0.8104     C
C       0.8016   0.2502   0.8111     C
C       0.8016   0.7498   0.3111     C
O       0.8088   0.4286    0.596     O
O       0.8088   0.5714    0.096     O
H        0.812   0.0235   0.2792     H
H        0.812   0.9765   0.7792     H
C       0.8179   0.2307    0.392     C
C       0.8179   0.7693    0.892     C
C       0.8326   0.3878   0.7099     C
C       0.8326   0.6122   0.2099     C
O       0.8422   0.4126   0.4607     O
O       0.8422   0.5874   0.9607     O
C       0.8441   0.1638   0.3451     C
C       0.8441   0.8362   0.8451     C
C       0.8452   0.4643    0.654     C
C       0.8452   0.5357    0.154     C
C       0.8682   0.3407   0.8245     C
C       0.8682   0.6593   0.3245     C
C       0.8757   0.3303   0.4319     C
C       0.8757   0.6697   0.9319     C
C       0.8841   0.4097    0.774     C
C       0.8841   0.5903    0.274     C
O       0.8889   0.3238   0.9391     O
O       0.8889   0.6762   0.4391     O
O       0.8917   0.4371   0.1659     O
O       0.8917   0.5629   0.6659     O
H        0.897    0.184   0.3369     H
H        0.897    0.816   0.8369     H
La     0.89925  0.41834  0.04756    La
La     0.89925  0.58166  0.54756    La
C       0.9196   0.3637   0.8952     C
C       0.9196   0.6363   0.3952     C
H       0.9286   0.4699   0.7827     H
H       0.9286   0.5301   0.2827     H
O       0.9552   0.3258   0.4362     O
O       0.9552   0.6742   0.9362     O
O       0.9921   0.4223   0.9067     O
O       0.9921   0.5777   0.4067     O
