data_I
_chemical_name_common  '/home/zhangsd/repos/MofS-CGCNN/ML/data/SSD/clean_cifs/GARLUJ_clean'
_cell_length_a 15.85400
_cell_length_b 10.51500
_cell_length_c 20.94700
_cell_angle_alpha 90.00000
_cell_angle_beta  107.58700
_cell_angle_gamma 90.00000
_space_group_name_H-M_alt      'P 1'


loop_
_space_group_symop_operation_xyz
  'x, y, z' 

loop_
_atom_site_label
_atom_site_fract_x
_atom_site_fract_y
_atom_site_fract_z
_atom_site_type_symbol
H       0.0075   0.4325   0.4402     H
H       0.0075   0.5675   0.9402     H
C       0.0153   0.3592   0.4177     C
C       0.0153   0.6408   0.9177     C
C       0.0354   0.2148   0.1718     C
C       0.0354   0.7852   0.6718     C
C       0.0422   0.1441   0.3521     C
C       0.0422   0.8559   0.8521     C
C       0.0504   0.3208   0.1398     C
C       0.0504   0.6792   0.6398     C
H       0.0512   0.0725   0.3289     H
H       0.0512   0.9275   0.8289     H
H       0.0781   0.1886   0.2107     H
H       0.0781   0.8114   0.7107     H
C       0.0923   0.2886   0.4417     C
C       0.0923   0.7114   0.9417     C
H       0.0995   0.4526   0.2677     H
H       0.0995   0.5474   0.7677     H
C       0.1049   0.1807   0.4097     C
C       0.1049   0.8193   0.9097     C
H       0.1193   0.4877   0.1629     H
H       0.1193   0.5123   0.6629     H
C       0.1347   0.3982   0.1647     C
C       0.1347   0.6018   0.6647     C
H       0.1359   0.3151     0.48     H
H       0.1359   0.6849     0.98     H
H       0.1384   0.4165   0.8757     H
H       0.1384   0.5835   0.3757     H
C       0.1601   0.4234   0.2858     C
C       0.1601   0.5766   0.7858     C
H       0.1611   0.3581   0.3187     H
H       0.1611   0.6419   0.8187     H
H         0.17    0.385   0.1347     H
H         0.17    0.615   0.6347     H
C       0.1875   0.1042   0.4374     C
C       0.1875   0.8958   0.9374     C
N       0.1878   0.3674   0.2321     N
N       0.1878   0.6326   0.7321     N
C       0.1914    0.397   0.8676     C
C       0.1914    0.603   0.3676     C
O       0.1955   0.0081   0.4005     O
O       0.1955   0.9919   0.9005     O
C       0.2172   0.4661   0.8205     C
C       0.2172   0.5339   0.3205     C
H       0.2249   0.2542   0.9342     H
H       0.2249   0.7458   0.4342     H
H       0.2348   0.2135   0.1499     H
H       0.2348   0.7865   0.6499     H
O       0.2419   0.1332   0.4897     O
O       0.2419   0.8668   0.9897     O
C       0.2432   0.2994   0.9026     C
C       0.2432   0.7006   0.4026     C
C       0.2524   0.2722   0.2452     C
C       0.2524   0.7278   0.7452     C
C       0.2687   0.1995    0.194     C
C       0.2687   0.8005    0.694     C
H       0.2935   0.2913   0.3459     H
H       0.2935   0.7087   0.8459     H
C       0.2947   0.4327   0.8082     C
C       0.2947   0.5673   0.3082     C
C       0.3041   0.2468   0.3107     C
C       0.3041   0.7532   0.8107     C
O       0.3114   0.0705  0.09164     O
O       0.3114   0.9295  0.59164     O
H       0.3121   0.4764   0.7758     H
H       0.3121   0.5236   0.2758     H
C       0.3219    0.268   0.8912     C
C       0.3219    0.732   0.3912     C
C       0.3339   0.1078   0.2076     C
C       0.3339   0.8922   0.7076     C
C        0.347   0.0324   0.1503     C
C        0.347   0.9676   0.6503     C
C       0.3472    0.335   0.8433     C
C       0.3472    0.665   0.3433     C
O       0.3486   0.0881  0.96181     O
O       0.3486   0.9119  0.46181     O
C       0.3708   0.1565   0.3243     C
C       0.3708   0.8435   0.8243     C
C       0.3813   0.1682   0.9313     C
C       0.3813   0.8318   0.4313     C
C       0.3867   0.0857   0.2727     C
C       0.3867   0.9143   0.7727     C
O       0.3921   0.1688  0.44057     O
O       0.3921   0.8312  0.94057     O
O       0.3944    0.066  0.66149     O
O       0.3944    0.934  0.16149     O
Eu     0.39911  0.07866  0.54577    Eu
Eu     0.39911  0.92134  0.04577    Eu
H       0.3997   0.3145   0.8346     H
H       0.3997   0.6855   0.3346     H
C       0.4247   0.1325    0.396     C
C       0.4247   0.8675    0.896     C
H       0.4316   0.0253   0.2817     H
H       0.4316   0.9747   0.7817     H
O       0.4605   0.1701   0.9331     O
O       0.4605   0.8299   0.4331     O
O        0.498   0.0797  0.40744     O
O        0.498   0.9203  0.90744     O
O        0.502   0.0797  0.09256     O
O        0.502   0.9203  0.59256     O
O       0.5395   0.1701   0.5669     O
O       0.5395   0.8299   0.0669     O
H       0.5684   0.0253   0.2183     H
H       0.5684   0.9747   0.7183     H
C       0.5753   0.1325    0.104     C
C       0.5753   0.8675    0.604     C
H       0.6003   0.3145   0.6654     H
H       0.6003   0.6855   0.1654     H
Eu     0.60089  0.07866  0.95423    Eu
Eu     0.60089  0.92134  0.45423    Eu
O       0.6056    0.066  0.83851     O
O       0.6056    0.934  0.33851     O
O       0.6079   0.1688  0.05943     O
O       0.6079   0.8312  0.55943     O
C       0.6133   0.0857   0.2273     C
C       0.6133   0.9143   0.7273     C
C       0.6187   0.1682   0.5687     C
C       0.6187   0.8318   0.0687     C
C       0.6292   0.1565   0.1757     C
C       0.6292   0.8435   0.6757     C
O       0.6514   0.0881  0.53819     O
O       0.6514   0.9119  0.03819     O
C       0.6528    0.335   0.6567     C
C       0.6528    0.665   0.1567     C
C        0.653   0.0324   0.3497     C
C        0.653   0.9676   0.8497     C
C       0.6661   0.1078   0.2924     C
C       0.6661   0.8922   0.7924     C
C       0.6781    0.268   0.6088     C
C       0.6781    0.732   0.1088     C
H       0.6879   0.4764   0.7242     H
H       0.6879   0.5236   0.2242     H
O       0.6886   0.0705  0.40836     O
O       0.6886   0.9295  0.90836     O
C       0.6959   0.2468   0.1893     C
C       0.6959   0.7532   0.6893     C
C       0.7053   0.4327   0.6918     C
C       0.7053   0.5673   0.1918     C
H       0.7065   0.2913   0.1541     H
H       0.7065   0.7087   0.6541     H
C       0.7313   0.1995    0.306     C
C       0.7313   0.8005    0.806     C
C       0.7476   0.2722   0.2548     C
C       0.7476   0.7278   0.7548     C
C       0.7568   0.2994   0.5974     C
C       0.7568   0.7006   0.0974     C
O       0.7581   0.1332   0.0103     O
O       0.7581   0.8668   0.5103     O
H       0.7652   0.2135   0.3501     H
H       0.7652   0.7865   0.8501     H
H       0.7751   0.2542   0.5658     H
H       0.7751   0.7458   0.0658     H
C       0.7828   0.4661   0.6795     C
C       0.7828   0.5339   0.1795     C
O       0.8045   0.0081   0.0995     O
O       0.8045   0.9919   0.5995     O
C       0.8086    0.397   0.6324     C
C       0.8086    0.603   0.1324     C
N       0.8122   0.3674   0.2679     N
N       0.8122   0.6326   0.7679     N
C       0.8125   0.1042   0.0626     C
C       0.8125   0.8958   0.5626     C
H         0.83    0.385   0.3653     H
H         0.83    0.615   0.8653     H
H       0.8389   0.3581   0.1813     H
H       0.8389   0.6419   0.6813     H
C       0.8399   0.4234   0.2142     C
C       0.8399   0.5766   0.7142     C
H       0.8616   0.4165   0.6243     H
H       0.8616   0.5835   0.1243     H
H       0.8641   0.3151     0.02     H
H       0.8641   0.6849     0.52     H
C       0.8653   0.3982   0.3353     C
C       0.8653   0.6018   0.8353     C
H       0.8807   0.4877   0.3371     H
H       0.8807   0.5123   0.8371     H
C       0.8951   0.1807   0.0903     C
C       0.8951   0.8193   0.5903     C
H       0.9005   0.4526   0.2323     H
H       0.9005   0.5474   0.7323     H
C       0.9077   0.2886   0.0583     C
C       0.9077   0.7114   0.5583     C
H       0.9219   0.1886   0.2893     H
H       0.9219   0.8114   0.7893     H
H       0.9488   0.0725   0.1711     H
H       0.9488   0.9275   0.6711     H
C       0.9496   0.3208   0.3602     C
C       0.9496   0.6792   0.8602     C
C       0.9578   0.1441   0.1479     C
C       0.9578   0.8559   0.6479     C
C       0.9646   0.2148   0.3282     C
C       0.9646   0.7852   0.8282     C
C       0.9847   0.3592   0.0823     C
C       0.9847   0.6408   0.5823     C
H       0.9925   0.4325   0.0598     H
H       0.9925   0.5675   0.5598     H
