data_I
_chemical_name_common  '/home/zhangsd/repos/MofS-CGCNN/ML/data/SSD/clean_cifs/GAXWAF_clean'
_cell_length_a 10.40640
_cell_length_b 14.49840
_cell_length_c 18.53320
_cell_angle_alpha 90.00000
_cell_angle_beta  90.00000
_cell_angle_gamma 100.15300
_space_group_name_H-M_alt      'P 1'


loop_
_space_group_symop_operation_xyz
  'x, y, z' 

loop_
_atom_site_label
_atom_site_fract_x
_atom_site_fract_y
_atom_site_fract_z
_atom_site_type_symbol
O       0.0091   0.5156  0.84043     O
O        0.013   0.6289  0.20415     O
C       0.0293   0.9369   0.7032     C
H       0.0401   0.8353   0.7749     H
C       0.0586   0.5591   0.1842     C
H       0.0628    0.039   0.6294     H
H       0.0839   0.6093   0.4313     H
H       0.0846   0.5216   0.5346     H
C       0.0892   0.8765   0.7428     C
C       0.1026   0.9983   0.6568     C
Sr     0.10654  0.31751   0.6953    Sr
O       0.1076   0.7581  0.35425     O
O       0.1098   0.4847  0.66426     O
C       0.1148   0.0627   0.2877     C
C       0.1213   0.5849   0.5353     C
C       0.1234   0.6369   0.4729     C
C       0.1623   0.5687   0.6669     C
O       0.1647   0.0128  0.33251     O
C       0.1729   0.6256   0.5984     C
O        0.174   0.1101   0.2401     O
C       0.1833   0.7292   0.4716     C
C       0.1874   0.7855   0.4027     C
Zn     0.19417    0.556  0.81875    Zn
C       0.2033   0.5611   0.1895     C
O       0.2054   0.6126  0.72341     O
H       0.2136   0.4573   0.1192     H
H       0.2191   0.6692   0.0333     H
C       0.2222    0.876   0.7357     C
O       0.2242   0.6434  0.89956     O
H       0.2298   0.7534   0.1393     H
C       0.2332   0.7182   0.5974     C
C       0.2372     -0.0   0.6502     C
C       0.2387   0.7687   0.5338     C
H       0.2391   0.6665   0.2619     H
H       0.2609   0.8335   0.7619     H
C       0.2613   0.7313   0.0338     C
C       0.2628      0.5   0.1502     C
C       0.2668   0.7818   0.0974     C
H       0.2702   0.7466   0.6393     H
O       0.2758   0.8566  0.39956     O
C       0.2778    0.624   0.2357     C
H       0.2809   0.8308   0.5333     H
H       0.2864   0.0427   0.6192     H
O       0.2946   0.8874  0.22341     O
C       0.2967   0.9389   0.6895     C
Zn     0.30583    0.944  0.31875    Zn
C       0.3126   0.7145   0.9027     C
C       0.3167   0.7708   0.9716     C
O        0.326   0.3899   0.7401     O
C       0.3271   0.8744   0.0984     C
O       0.3353   0.4872  0.83251     O
C       0.3377   0.9313   0.1669     C
C       0.3766   0.8631   0.9729     C
C       0.3787   0.9151   0.0353     C
C       0.3852   0.4373   0.7877     C
O       0.3902   0.0153  0.16426     O
O       0.3924   0.7419  0.85425     O
Sr     0.39346  0.18249   0.1953    Sr
C       0.3974   0.5017   0.1568     C
C       0.4108   0.6235   0.2428     C
H       0.4154   0.9784   0.0346     H
H       0.4161   0.8907   0.9313     H
H       0.4372    0.461   0.1294     H
C       0.4414   0.9409   0.6842     C
H       0.4599   0.6647   0.2749     H
C       0.4707   0.5631   0.2032     C
O        0.487   0.8711  0.70415     O
O       0.4909   0.9844  0.34043     O
O       0.5091   0.0156  0.65957     O
O        0.513   0.1289  0.29585     O
C       0.5293   0.4369   0.7968     C
H       0.5401   0.3353   0.7251     H
C       0.5586   0.0591   0.3158     C
H       0.5628    0.539   0.8706     H
H       0.5839   0.1093   0.0687     H
H       0.5846   0.0216   0.9654     H
C       0.5892   0.3765   0.7572     C
C       0.6026   0.4983   0.8432     C
Sr     0.60654  0.81751   0.8047    Sr
O       0.6076   0.2581  0.14575     O
O       0.6098   0.9847  0.83574     O
C       0.6148   0.5627   0.2123     C
C       0.6213   0.0849   0.9647     C
C       0.6234   0.1369   0.0271     C
C       0.6623   0.0687   0.8331     C
O       0.6647   0.5128  0.16749     O
C       0.6729   0.1256   0.9016     C
O        0.674   0.6101   0.2599     O
C       0.6833   0.2292   0.0284     C
C       0.6874   0.2855   0.0973     C
Zn     0.69417    0.056  0.68125    Zn
C       0.7033   0.0611   0.3105     C
O       0.7054   0.1126  0.77659     O
H       0.7136   0.9573   0.3808     H
H       0.7191   0.1692   0.4667     H
C       0.7222    0.376   0.7643     C
O       0.7242   0.1434  0.60044     O
H       0.7298   0.2534   0.3607     H
C       0.7332   0.2182   0.9026     C
C       0.7372      0.5   0.8498     C
C       0.7387   0.2687   0.9662     C
H       0.7391   0.1665   0.2381     H
H       0.7609   0.3335   0.7381     H
C       0.7613   0.2313   0.4662     C
C       0.7628      0.0   0.3498     C
C       0.7668   0.2818   0.4026     C
H       0.7702   0.2466   0.8607     H
O       0.7758   0.3566  0.10044     O
C       0.7778    0.124   0.2643     C
H       0.7809   0.3308   0.9667     H
H       0.7864   0.5427   0.8808     H
O       0.7946   0.3874  0.27659     O
C       0.7967   0.4389   0.8105     C
Zn     0.80583    0.444  0.18125    Zn
C       0.8126   0.2145   0.5973     C
C       0.8167   0.2708   0.5284     C
O        0.826   0.8899   0.7599     O
C       0.8271   0.3744   0.4016     C
O       0.8353   0.9872  0.66749     O
C       0.8377   0.4313   0.3331     C
C       0.8766   0.3631   0.5271     C
C       0.8787   0.4151   0.4647     C
C       0.8852   0.9373   0.7123     C
O       0.8902   0.5153  0.33574     O
O       0.8924   0.2419  0.64575     O
Sr     0.89346  0.68249   0.3047    Sr
C       0.8974   0.0017   0.3432     C
C       0.9108   0.1235   0.2572     C
H       0.9154   0.4784   0.4654     H
H       0.9161   0.3907   0.5687     H
H       0.9372    0.961   0.3706     H
C       0.9414   0.4409   0.8158     C
H       0.9599   0.1647   0.2251     H
C       0.9707   0.0631   0.2968     C
O        0.987   0.3711  0.79585     O
O       0.9909   0.4844  0.15957     O
