data_I
_chemical_name_common  '/home/zhangsd/repos/MofS-CGCNN/ML/data/SSD/clean_cifs/GELVEZ01_clean'
_cell_length_a  9.06590
_cell_length_b  9.06590
_cell_length_c 21.72730
_cell_angle_alpha 90.00000
_cell_angle_beta  90.00000
_cell_angle_gamma 120.00000
_space_group_name_H-M_alt      'P 1'


loop_
_space_group_symop_operation_xyz
  'x, y, z' 

loop_
_atom_site_label
_atom_site_fract_x
_atom_site_fract_y
_atom_site_fract_z
_atom_site_type_symbol
O          0.0    0.109  0.33333     O
O          0.0   0.1351  0.83333     O
C          0.0   0.2557  0.33333     C
C          0.0   0.2827  0.83333     C
C          0.0    0.563  0.33333     C
C          0.0   0.5891  0.83333     C
C          0.0   0.7257  0.33333     C
C          0.0   0.7527  0.83333     C
Mn     0.01724  0.97805  0.58373    Mn
Mn     0.02195  0.03919  0.91706    Mn
C        0.038   0.5319   0.8874     C
Mn     0.03919  0.02195  0.41627    Mn
O       0.0408   0.8118  0.28381     O
C       0.0416   0.3813  0.88668     C
O       0.0519   0.8438  0.78526     O
C       0.0521   0.5126  0.38599     C
C        0.055   0.3622  0.38484     C
H       0.0612   0.5958   0.9243     H
O       0.0832   0.3146  0.93632     O
H       0.0851   0.5812  0.42203     H
H        0.101    0.374   0.9695     H
O        0.109      0.0      0.0     O
O       0.1096   0.3016  0.43309     O
H        0.132    0.364  0.46573     H
O       0.1351      0.0      0.5     O
O       0.1562   0.2081  0.11859     O
O       0.1882    0.229  0.61715     O
O        0.192   0.8904  0.09976     O
O       0.2081   0.1562  0.21474     O
O        0.229   0.1882  0.71619     O
O       0.2314   0.9168  0.60299     O
H        0.232    0.868   0.1324     H
C       0.2473   0.2473  0.16667     C
C       0.2557      0.0      0.0     C
H        0.273    0.899  0.63617     H
C       0.2743   0.2743  0.66667     C
C       0.2827      0.0      0.5     C
O       0.3016   0.1096  0.90024     O
C       0.3072    0.945  0.05151     C
O       0.3146   0.0832  0.39701     O
C       0.3397   0.9584  0.55335     C
C       0.3622    0.055  0.94849     C
H        0.364    0.132   0.8676     H
H        0.374    0.101  0.36383     H
C       0.3813   0.0416  0.44665     C
H       0.4042   0.4654  0.25763     H
C       0.4109   0.4109  0.16667     C
H       0.4188   0.5039  0.75537     H
C        0.437    0.437  0.66667     C
C       0.4605   0.9479  0.05266     C
H       0.4654   0.4042   0.0757     H
C       0.4681   0.5061  0.22073     C
C       0.4874   0.5395  0.71933     C
C       0.4939    0.962  0.55407     C
H       0.4961   0.9149   0.0887     H
H       0.5039   0.4188  0.57797     H
C       0.5061   0.4681   0.1126     C
C       0.5126   0.0521  0.94734     C
C       0.5319    0.038  0.44593     C
H       0.5346   0.9388  0.59097     H
C       0.5395   0.4874  0.61401     C
C        0.563      0.0      0.0     C
H       0.5812   0.0851   0.9113     H
C       0.5891      0.0      0.5     C
H       0.5958   0.0612  0.40903     H
C       0.6187   0.6603  0.22001     C
H        0.626    0.727  0.30283     H
H        0.636    0.768  0.79907     H
C       0.6378   0.6928  0.71818     C
C       0.6603   0.6187  0.11332     C
O       0.6854   0.7686  0.26965     O
C       0.6928   0.6378  0.61516     C
O       0.6984    0.808  0.76643     O
C       0.7173   0.7173  0.16667     C
C       0.7257      0.0      0.0     C
H        0.727    0.626   0.0305     H
C       0.7443   0.7443  0.66667     C
C       0.7527      0.0      0.5     C
H        0.768    0.636  0.53427     H
O       0.7686   0.6854  0.06368     O
O        0.771   0.9592  0.95048     O
O       0.7919   0.9481  0.45192     O
O        0.808   0.6984  0.56691     O
O       0.8118   0.0408  0.04952     O
O       0.8438   0.0519  0.54808     O
O       0.8649   0.8649  0.16667     O
H        0.868    0.232  0.20093     H
O       0.8904    0.192  0.23357     O
O        0.891    0.891  0.66667     O
H        0.899    0.273  0.69717     H
H       0.9149   0.4961  0.24463     H
O       0.9168   0.2314  0.73035     O
H       0.9388   0.5346  0.74237     H
C        0.945   0.3072  0.28182     C
C       0.9479   0.4605  0.28067     C
O       0.9481   0.7919  0.88141     O
C       0.9584   0.3397  0.77999     C
O       0.9592    0.771  0.38285     O
Mn     0.96081  0.98276  0.25039    Mn
C        0.962   0.4939  0.77927     C
Mn     0.97805  0.01724  0.74961    Mn
Mn     0.98276  0.96081  0.08294    Mn
