data_I
_chemical_name_common  '/home/zhangsd/repos/MofS-CGCNN/ML/data/SSD/clean_cifs/GELVEZ02_clean'
_cell_length_a  9.05530
_cell_length_b  9.05530
_cell_length_c 10.88720
_cell_angle_alpha 90.00000
_cell_angle_beta  90.00000
_cell_angle_gamma 120.00000
_space_group_name_H-M_alt      'P 1'


loop_
_space_group_symop_operation_xyz
  'x, y, z' 

loop_
_atom_site_label
_atom_site_fract_x
_atom_site_fract_y
_atom_site_fract_z
_atom_site_type_symbol
Mn         0.0     0.03  0.16667    Mn
C          0.0   0.2598  0.66667     C
C          0.0   0.4245  0.66667     C
C          0.0   0.7307  0.66667     C
O          0.0   0.8773  0.66667     O
Mn        0.03      1.0      0.5    Mn
O        0.045   0.2173  0.76384     O
C       0.0461   0.5228  0.56065     C
C       0.0493   0.6765  0.56246     C
H       0.0743   0.4855   0.4895     H
O       0.0984   0.7887  0.46516     O
O       0.1227   0.1227  0.33333     O
H        0.127    0.753    0.403     H
O       0.1723    0.955  0.09718     O
O       0.2113   0.3097  0.13183     O
O       0.2173    0.045  0.90282     O
H        0.247    0.374  0.06967     H
C       0.2598      0.0      0.0     C
C       0.2693   0.2693  0.33333     C
O       0.3097   0.2113  0.53484     O
C       0.3235   0.3728  0.22913     C
C       0.3728   0.3235  0.43754     C
H        0.374    0.247    0.597     H
H       0.4112   0.9257  0.82283     H
C       0.4245      1.0      0.0     C
C       0.4767   0.9539  0.89398     C
C       0.4772   0.5233  0.22732     C
H       0.4855   0.0743  0.17717     H
H       0.5145   0.5888  0.15617     H
C       0.5228   0.0461  0.10602     C
C       0.5233   0.4772  0.43935     C
C       0.5755   0.5755  0.33333     C
H       0.5888   0.5145   0.5105     H
H        0.626    0.873  0.73633     H
C       0.6272   0.9507  0.89579     C
C       0.6765   0.0493  0.10421     C
O       0.6903   0.9016  0.79849     O
C       0.7307     -0.0      0.0     C
C       0.7402   0.7402  0.33333     C
H        0.753    0.127  0.26367     H
O       0.7827   0.8277  0.43051     O
O       0.7887   0.0984  0.20151     O
O       0.8277   0.7827  0.23616     O
H        0.873    0.626  0.93033     H
O       0.8773     -0.0      0.0     O
O       0.9016   0.6903  0.86817     O
H       0.9257   0.4112  0.84383     H
C       0.9507   0.6272  0.77087     C
C       0.9539   0.4767  0.77268     C
O        0.955   0.1723  0.56949     O
Mn        0.97     0.97  0.83333    Mn
