data_I
_chemical_name_common  '/home/zhangsd/repos/MofS-CGCNN/ML/data/SSD/clean_cifs/GIKMOD_clean'
_cell_length_a  7.33360
_cell_length_b 10.12520
_cell_length_c 18.18290
_cell_angle_alpha 90.00000
_cell_angle_beta  90.00000
_cell_angle_gamma 94.49300
_space_group_name_H-M_alt      'P 1'


loop_
_space_group_symop_operation_xyz
  'x, y, z' 

loop_
_atom_site_label
_atom_site_fract_x
_atom_site_fract_y
_atom_site_fract_z
_atom_site_type_symbol
Cu     0.04748  0.93336  0.93158    Cu
O       0.0475   0.0845  0.16812     O
O       0.0507   0.6436  0.59533     O
H       0.0549   0.2014   0.2932     H
C       0.0938   0.9894   0.2071     C
C        0.098   0.1327   0.3205     C
O       0.1155   0.8749  0.18544     O
S      0.11616  0.30802  0.43399     S
O       0.1179   0.2963  0.51287     O
C       0.1275   0.0141    0.287     C
O       0.1284   0.9434  0.03485     O
C       0.1326   0.1493   0.3951     C
Cu     0.13323  0.78208  0.09376    Cu
O       0.1592   0.6632  0.01144     O
C       0.1919   0.9121   0.3289     C
O       0.1939   0.7899   0.9098     O
C       0.1956   0.0485   0.4371     C
C       0.2043   0.6826   0.9453     C
H       0.2136   0.8324   0.3064     H
H       0.2187    0.061    0.487     H
C       0.2241   0.9279   0.4037     C
O       0.2254   0.1156   0.9047     O
H         0.23    0.979    0.036     H
H         0.27    0.521    0.536     H
O       0.2746   0.3844   0.4047     O
C       0.2759   0.5721   0.9037     C
H       0.2813    0.439    0.987     H
H       0.2864   0.6676   0.8064     H
C       0.2957   0.8174   0.4453     C
C       0.3044   0.4515   0.9371     C
O       0.3061   0.7101   0.4098     O
C       0.3081   0.5879   0.8289     C
O       0.3408   0.8368  0.51144     O
Cu     0.36677  0.71792  0.59376    Cu
C       0.3674   0.3507   0.8951     C
O       0.3716   0.5566  0.53485     O
C       0.3725   0.4859    0.787     C
O       0.3821   0.2037  0.01287     O
S      0.38384  0.19198  0.93399     S
O       0.3845   0.6251  0.68544     O
C        0.402   0.3673   0.8205     C
C       0.4062   0.5106   0.7071     C
H       0.4451   0.2986   0.7932     H
O       0.4493   0.8564  0.09533     O
O       0.4525   0.4155  0.66812     O
Cu     0.45252  0.56664  0.43158    Cu
Cu     0.54748  0.43336  0.56842    Cu
O       0.5475   0.5845  0.33188     O
O       0.5507   0.1436  0.90467     O
H       0.5549   0.7014   0.2068     H
C       0.5938   0.4894   0.2929     C
C        0.598   0.6327   0.1795     C
O       0.6155   0.3749  0.31456     O
S      0.61616  0.80802  0.06601     S
O       0.6179   0.7963  0.98713     O
C       0.6275   0.5141    0.213     C
O       0.6284   0.4434  0.46515     O
C       0.6326   0.6493   0.1049     C
Cu     0.63323  0.28208  0.40624    Cu
O       0.6592   0.1632  0.48856     O
C       0.6919   0.4121   0.1711     C
O       0.6939   0.2899   0.5902     O
C       0.6956   0.5485   0.0629     C
C       0.7043   0.1826   0.5547     C
H       0.7136   0.3324   0.1936     H
H       0.7187    0.561    0.013     H
C       0.7241   0.4279   0.0963     C
O       0.7254   0.6156   0.5953     O
H         0.73    0.479    0.464     H
H         0.77    0.021    0.964     H
O       0.7746   0.8844   0.0953     O
C       0.7759   0.0721   0.5963     C
H       0.7813    0.939    0.513     H
H       0.7864   0.1676   0.6936     H
C       0.7957   0.3174   0.0547     C
C       0.8044   0.9515   0.5629     C
O       0.8061   0.2101   0.0902     O
C       0.8081   0.0879   0.6711     C
O       0.8408   0.3368  0.98856     O
Cu     0.86677  0.21792  0.90624    Cu
C       0.8674   0.8507   0.6049     C
O       0.8716   0.0566  0.96515     O
C       0.8725   0.9859    0.713     C
O       0.8821   0.7037  0.48713     O
S      0.88384  0.69198  0.56601     S
O       0.8845   0.1251  0.81456     O
C        0.902   0.8673   0.6795     C
C       0.9062   0.0106   0.7929     C
H       0.9451   0.7986   0.7068     H
O       0.9493   0.3564  0.40467     O
O       0.9525   0.9155  0.83188     O
Cu     0.95252  0.06664  0.06842    Cu
