data_I
_chemical_name_common  '/home/zhangsd/repos/MofS-CGCNN/ML/data/SSD/clean_cifs/GIQXIO_clean'
_cell_length_a  9.61160
_cell_length_b  9.61160
_cell_length_c 15.54800
_cell_angle_alpha 92.93020
_cell_angle_beta  92.93020
_cell_angle_gamma 99.07450
_space_group_name_H-M_alt      'P 1'


loop_
_space_group_symop_operation_xyz
  'x, y, z' 

loop_
_atom_site_label
_atom_site_fract_x
_atom_site_fract_y
_atom_site_fract_z
_atom_site_type_symbol
Dy     0.01085  0.98915     0.75    Dy
C       0.0191   0.5063   0.2189     C
P      0.02392   0.3485  0.84571     P
P      0.04483  0.35393  0.14557     P
O       0.0456   0.2278   0.7856     O
O       0.0758   0.2342   0.1999     O
O       0.0908     0.69   0.9137     O
O       0.1004   0.5504   0.7322     O
O       0.1039   0.6919   0.0986     O
Ru      0.1216  0.54552  0.00202    Ru
H       0.1311   0.6343   0.3149     H
C       0.1456   0.5524   0.2784     C
O       0.1569   0.4047   0.9054     O
H       0.1608   0.4752   0.3147     H
O       0.1684   0.4084   0.0894     O
H        0.176    0.578     0.77     H
O       0.2278   0.0456   0.2856     O
H       0.2283   0.5779   0.2447     H
O       0.2342   0.0758   0.6999     O
O       0.3081   0.8961   0.4014     O
O         0.31   0.9092   0.5863     O
P       0.3485  0.02392  0.34571     P
P      0.35393  0.04483  0.64557     P
H       0.3657   0.8689   0.1851     H
O       0.4047   0.1569   0.4054     O
O       0.4084   0.1684   0.5894     O
H        0.422    0.824     0.73     H
H       0.4221   0.7717   0.2553     H
C       0.4476   0.8544   0.2216     C
O       0.4496   0.8996   0.7678     O
Ru     0.45448   0.8784  0.49798    Ru
H       0.4752   0.1608   0.8147     H
C       0.4937   0.9809   0.2811     C
C       0.5063   0.0191   0.7189     C
H       0.5248   0.8392   0.1853     H
Ru     0.54552   0.1216  0.50202    Ru
O       0.5504   0.1004   0.2322     O
C       0.5524   0.1456   0.7784     C
H       0.5779   0.2283   0.7447     H
H        0.578    0.176     0.27     H
O       0.5916   0.8316   0.4106     O
O       0.5953   0.8431   0.5946     O
H       0.6343   0.1311   0.8149     H
P      0.64607  0.95517  0.35443     P
P       0.6515  0.97608  0.65429     P
O         0.69   0.0908   0.4137     O
O       0.6919   0.1039   0.5986     O
O       0.7658   0.9242   0.3001     O
H       0.7717   0.4221   0.7553     H
O       0.7722   0.9544   0.7144     O
H        0.824    0.422     0.23     H
O       0.8316   0.5916   0.9106     O
H       0.8392   0.5248   0.6853     H
O       0.8431   0.5953   0.0946     O
C       0.8544   0.4476   0.7216     C
H       0.8689   0.3657   0.6851     H
Ru      0.8784  0.45448  0.99798    Ru
O       0.8961   0.3081   0.9014     O
O       0.8996   0.4496   0.2678     O
O       0.9092     0.31   0.0863     O
O       0.9242   0.7658   0.8001     O
O       0.9544   0.7722   0.2144     O
P      0.95517  0.64607  0.85443     P
P      0.97608   0.6515  0.15429     P
C       0.9809   0.4937   0.7811     C
Dy     0.98915  0.01085     0.25    Dy
