data_I
_chemical_name_common  '/home/zhangsd/repos/MofS-CGCNN/ML/data/SSD/clean_cifs/GIQXUA_clean'
_cell_length_a  9.61160
_cell_length_b  9.61160
_cell_length_c 15.54800
_cell_angle_alpha 92.93020
_cell_angle_beta  92.93020
_cell_angle_gamma 99.07450
_space_group_name_H-M_alt      'P 1'


loop_
_space_group_symop_operation_xyz
  'x, y, z' 

loop_
_atom_site_label
_atom_site_fract_x
_atom_site_fract_y
_atom_site_fract_z
_atom_site_type_symbol
Gd     0.01105  0.98895     0.75    Gd
C       0.0174   0.5046   0.2172     C
P      0.02359  0.34909  0.84596     P
P       0.0453  0.35442  0.14483     P
O       0.0459   0.2295   0.7857     O
O       0.0769   0.2349   0.1988     O
O       0.0912   0.6902   0.9141     O
O       0.1004   0.5506   0.7334     O
O       0.1047   0.6911   0.0984     O
Ru     0.12123  0.54565  0.00195    Ru
H       0.1283   0.6327   0.3159     H
C       0.1453   0.5527   0.2784     C
O       0.1551   0.4065   0.9064     O
H       0.1624    0.475   0.3138     H
O       0.1685   0.4091   0.0895     O
H        0.176    0.578     0.77     H
H       0.2278   0.5818   0.2452     H
O       0.2295   0.0459   0.2857     O
O       0.2349   0.0769   0.6988     O
O       0.3089   0.8953   0.4016     O
O       0.3098   0.9088   0.5859     O
P      0.34909  0.02359  0.34596     P
P      0.35442   0.0453  0.64483     P
H       0.3673   0.8717   0.1841     H
O       0.4065   0.1551   0.4064     O
O       0.4091   0.1685   0.5895     O
H       0.4182   0.7722   0.2548     H
H        0.422    0.824     0.73     H
C       0.4473   0.8547   0.2216     C
O       0.4494   0.8996   0.7666     O
Ru     0.45435  0.87877  0.49805    Ru
H        0.475   0.1624   0.8138     H
C       0.4954   0.9826   0.2828     C
C       0.5046   0.0174   0.7172     C
H        0.525   0.8376   0.1862     H
Ru     0.54565  0.12123  0.50195    Ru
O       0.5506   0.1004   0.2334     O
C       0.5527   0.1453   0.7784     C
H        0.578    0.176     0.27     H
H       0.5818   0.2278   0.7452     H
O       0.5909   0.8315   0.4105     O
O       0.5935   0.8449   0.5936     O
H       0.6327   0.1283   0.8159     H
P      0.64558   0.9547  0.35517     P
P      0.65091  0.97641  0.65404     P
O       0.6902   0.0912   0.4141     O
O       0.6911   0.1047   0.5984     O
O       0.7651   0.9231   0.3012     O
O       0.7705   0.9541   0.7143     O
H       0.7722   0.4182   0.7548     H
H        0.824    0.422     0.23     H
O       0.8315   0.5909   0.9105     O
H       0.8376    0.525   0.6862     H
O       0.8449   0.5935   0.0936     O
C       0.8547   0.4473   0.7216     C
H       0.8717   0.3673   0.6841     H
Ru     0.87877  0.45435  0.99805    Ru
O       0.8953   0.3089   0.9016     O
O       0.8996   0.4494   0.2666     O
O       0.9088   0.3098   0.0859     O
O       0.9231   0.7651   0.8012     O
O       0.9541   0.7705   0.2143     O
P       0.9547  0.64558  0.85517     P
P      0.97641  0.65091  0.15404     P
C       0.9826   0.4954   0.7828     C
Gd     0.98895  0.01105     0.25    Gd
