data_I
_chemical_name_common  '/home/zhangsd/repos/MofS-CGCNN/ML/data/SSD/clean_cifs/GIQXOU_clean'
_cell_length_a  9.53210
_cell_length_b  9.53210
_cell_length_c 15.45100
_cell_angle_alpha 92.86510
_cell_angle_beta  92.86510
_cell_angle_gamma 99.04120
_space_group_name_H-M_alt      'P 1'


loop_
_space_group_symop_operation_xyz
  'x, y, z' 

loop_
_atom_site_label
_atom_site_fract_x
_atom_site_fract_y
_atom_site_fract_z
_atom_site_type_symbol
Er     0.01086  0.98914     0.75    Er
C       0.0167   0.5047   0.2197     C
P      0.02373  0.34835  0.84571     P
P      0.04491  0.35393  0.14596     P
O        0.045   0.2274   0.7852     O
O       0.0741   0.2331   0.1995     O
O       0.0903   0.6911   0.9139     O
O       0.0999   0.5493   0.7326     O
O       0.1043   0.6913   0.0987     O
Ru     0.12164  0.54568   0.0019    Ru
H       0.1262   0.6316   0.3165     H
C       0.1422   0.5506   0.2787     C
O       0.1582   0.4056   0.9058     O
H        0.159    0.472   0.3143     H
O       0.1678   0.4086   0.0896     O
H       0.1704   0.5796   0.7675     H
H       0.2252    0.579    0.245     H
O       0.2274    0.045   0.2852     O
O       0.2331   0.0741   0.6995     O
O       0.3087   0.8957   0.4013     O
O       0.3089   0.9097   0.5861     O
P      0.34835  0.02373  0.34571     P
P      0.35393  0.04491  0.64596     P
H       0.3684   0.8738   0.1835     H
O       0.4056   0.1582   0.4058     O
O       0.4086   0.1678   0.5896     O
H       0.4204   0.8296   0.7325     H
H        0.421   0.7748    0.255     H
C       0.4494   0.8578   0.2213     C
O       0.4507   0.9001   0.7674     O
Ru     0.45432  0.87836   0.4981    Ru
H        0.472    0.159   0.8143     H
C       0.4953   0.9833   0.2803     C
C       0.5047   0.0167   0.7197     C
H        0.528    0.841   0.1857     H
Ru     0.54568  0.12164   0.5019    Ru
O       0.5493   0.0999   0.2326     O
C       0.5506   0.1422   0.7787     C
H        0.579   0.2252    0.745     H
H       0.5796   0.1704   0.2675     H
O       0.5914   0.8322   0.4104     O
O       0.5944   0.8418   0.5942     O
H       0.6316   0.1262   0.8165     H
P      0.64607  0.95509  0.35404     P
P      0.65165  0.97627  0.65429     P
O       0.6911   0.0903   0.4139     O
O       0.6913   0.1043   0.5987     O
O       0.7669   0.9259   0.3005     O
O       0.7726    0.955   0.7148     O
H       0.7748    0.421    0.755     H
H       0.8296   0.4204   0.2325     H
O       0.8322   0.5914   0.9104     O
H        0.841    0.528   0.6857     H
O       0.8418   0.5944   0.0942     O
C       0.8578   0.4494   0.7213     C
H       0.8738   0.3684   0.6835     H
Ru     0.87836  0.45432   0.9981    Ru
O       0.8957   0.3087   0.9013     O
O       0.9001   0.4507   0.2674     O
O       0.9097   0.3089   0.0861     O
O       0.9259   0.7669   0.8005     O
O        0.955   0.7726   0.2148     O
P      0.95509  0.64607  0.85404     P
P      0.97627  0.65165  0.15429     P
C       0.9833   0.4953   0.7803     C
Er     0.98914  0.01086     0.25    Er
