data_I
_chemical_name_common  '/home/zhangsd/repos/MofS-CGCNN/ML/data/SSD/clean_cifs/GIQYOV_clean'
_cell_length_a  9.94020
_cell_length_b  9.94020
_cell_length_c 15.69000
_cell_angle_alpha 92.46620
_cell_angle_beta  92.46620
_cell_angle_gamma 97.17810
_space_group_name_H-M_alt      'P 1'


loop_
_space_group_symop_operation_xyz
  'x, y, z' 

loop_
_atom_site_label
_atom_site_fract_x
_atom_site_fract_y
_atom_site_fract_z
_atom_site_type_symbol
Pr     0.01058  0.98942     0.75    Pr
H       0.0145   0.1507   0.6213     H
C       0.0187   0.5013   0.2173     C
P       0.0226  0.35026  0.84833     P
O       0.0317   0.9319   0.3766     O
P      0.04635  0.35683  0.14161     P
O       0.0626   0.2438   0.7778     O
O       0.0681   0.9683   0.1234     O
H       0.0698    0.881   0.1127     H
O       0.0768    0.237   0.1987     O
O       0.0819   0.5397   0.7444     O
O       0.0949   0.6943   0.9196     O
O       0.1016   0.6882   0.0959     O
Ru     0.11899  0.54469  0.00338    Ru
H        0.119   0.9302   0.3873     H
H       0.1286   0.5496   0.3306     H
C       0.1465   0.5533   0.2698     C
H       0.1507   0.0145   0.1213     H
H       0.1525   0.5699   0.7793     H
O       0.1567   0.4153   0.9029     O
O       0.1688   0.4072   0.0912     O
H       0.1766   0.6472   0.2562     H
H       0.2176   0.4966   0.2566     H
O        0.237   0.0768   0.6987     O
O       0.2438   0.0626   0.2778     O
O       0.3057   0.9051   0.5804     O
O       0.3118   0.8984   0.4041     O
P      0.35026   0.0226  0.34833     P
H       0.3528   0.8234   0.2438     H
P      0.35683  0.04635  0.64161     P
O       0.4072   0.1688   0.5912     O
O       0.4153   0.1567   0.4029     O
H       0.4301   0.8475   0.7207     H
C       0.4467   0.8535   0.2302     C
H       0.4504   0.8714   0.1694     H
Ru     0.45531  0.88101  0.49662    Ru
O       0.4603   0.9181   0.7556     O
H       0.4966   0.2176   0.7566     H
C       0.4987   0.9813   0.2827     C
C       0.5013   0.0187   0.7173     C
H       0.5034   0.7824   0.2434     H
O       0.5397   0.0819   0.2444     O
Ru     0.54469  0.11899  0.50338    Ru
H       0.5496   0.1286   0.8306     H
C       0.5533   0.1465   0.7698     C
H       0.5699   0.1525   0.2793     H
O       0.5847   0.8433   0.5971     O
O       0.5928   0.8312   0.4088     O
P      0.64317  0.95365  0.35839     P
H       0.6472   0.1766   0.7562     H
P      0.64974   0.9774  0.65167     P
O       0.6882   0.1016   0.5959     O
O       0.6943   0.0949   0.4196     O
O       0.7562   0.9374   0.7222     O
O        0.763   0.9232   0.3013     O
H       0.7824   0.5034   0.7434     H
H       0.8234   0.3528   0.7438     H
O       0.8312   0.5928   0.9088     O
O       0.8433   0.5847   0.0971     O
H       0.8475   0.4301   0.2207     H
H       0.8493   0.9855   0.8787     H
C       0.8535   0.4467   0.7302     C
H       0.8714   0.4504   0.6694     H
H        0.881   0.0698   0.6127     H
Ru     0.88101  0.45531  0.99662    Ru
O       0.8984   0.3118   0.9041     O
O       0.9051   0.3057   0.0804     O
O       0.9181   0.4603   0.2556     O
O       0.9232    0.763   0.8013     O
H       0.9302    0.119   0.8873     H
O       0.9319   0.0317   0.8766     O
O       0.9374   0.7562   0.2222     O
P      0.95365  0.64317  0.85839     P
O       0.9683   0.0681   0.6234     O
P       0.9774  0.64974  0.15167     P
C       0.9813   0.4987   0.7827     C
H       0.9855   0.8493   0.3787     H
Pr     0.98942  0.01058     0.25    Pr
