data_I
_chemical_name_common  '/home/zhangsd/repos/MofS-CGCNN/ML/data/SSD/clean_cifs/GIRYUD_clean'
_cell_length_a 16.29100
_cell_length_b 24.68400
_cell_length_c 13.43500
_cell_angle_alpha 90.00000
_cell_angle_beta  124.09800
_cell_angle_gamma 90.00000
_space_group_name_H-M_alt      'P 1'


loop_
_space_group_symop_operation_xyz
  'x, y, z' 

loop_
_atom_site_label
_atom_site_fract_x
_atom_site_fract_y
_atom_site_fract_z
_atom_site_type_symbol
Zn         0.0      0.5      0.0    Zn
Zn         0.0      0.5      0.5    Zn
H       0.0015    0.438   0.1547     H
H       0.0015    0.562   0.6547     H
O        0.018   0.2164   0.4703     O
H        0.018    0.373   0.5158     H
H        0.018    0.627   0.0158     H
O        0.018   0.7836   0.9703     O
C       0.0207   0.3784   0.9541     C
C       0.0207   0.6216   0.4541     C
O        0.031   0.1568   0.9639     O
O        0.031   0.8432   0.4639     O
N       0.0319   0.1778    0.045     N
N       0.0319   0.8222    0.545     N
H       0.0384    0.299    0.938     H
H       0.0384    0.701    0.438     H
O       0.0402  0.46103   0.1544     O
O       0.0402  0.53897   0.6544     O
N       0.0403    0.429   0.9408     N
N       0.0403    0.571   0.4408     N
C        0.054   0.3337   0.9264     C
C        0.054   0.6663   0.4264     C
H       0.0755   0.2168    0.248     H
H       0.0755   0.7832    0.748     H
H       0.0945   0.2347   0.8714     H
H       0.0945   0.7653   0.3714     H
C       0.0969   0.4364   0.8972     C
C       0.0969   0.5636   0.3972     C
C       0.0999   0.1567   0.1657     C
C       0.0999   0.8433   0.6657     C
C       0.1115   0.1854   0.2607     C
C       0.1115   0.8146   0.7607     C
H       0.1119   0.4716   0.8877     H
H       0.1119   0.5284   0.3877     H
C       0.1125    0.341     0.88     C
C       0.1125    0.659     0.38     C
O         0.12   0.3777   0.4105     O
O         0.12   0.6223   0.9105     O
H       0.1245   0.1392   0.8595     H
H       0.1245   0.8608   0.3595     H
C       0.1327   0.3943   0.8667     C
C       0.1327   0.6057   0.3667     C
C       0.1361   0.2448   0.8477     C
C       0.1361   0.7552   0.3477     C
H       0.1402   0.0908   0.1154     H
H       0.1402   0.9092   0.6154     H
O       0.1509   0.4702   0.5835     O
O       0.1509   0.5298   0.0835     O
C        0.151   0.1096   0.1817     C
C        0.151   0.8904   0.6817     C
C       0.1512   0.2967   0.8453     C
C       0.1512   0.7033   0.3453     C
C       0.1634   0.1477    0.831     C
C       0.1634   0.8523    0.331     C
H        0.171   0.4013   0.8366     H
H        0.171   0.5987   0.3366     H
Zn     0.17491  0.44762  0.27097    Zn
Zn     0.17491  0.55238  0.77097    Zn
C       0.1787   0.1659   0.3759     C
C       0.1787   0.8341   0.8759     C
C       0.1788   0.2008    0.816     C
C       0.1788   0.7992    0.316     C
H       0.1823   0.3257   0.2786     H
H       0.1823   0.6743   0.7786     H
H       0.1887   0.1852   0.4414     H
H       0.1887   0.8148   0.9414     H
H        0.191   0.3065   0.8188     H
H        0.191   0.6935   0.3188     H
H       0.1929   0.0714   0.8142     H
H       0.1929   0.9286   0.3142     H
C       0.2005   0.4003   0.4766     C
C       0.2005   0.5997   0.9766     C
C       0.2054    0.107   0.8041     C
C       0.2054    0.893   0.3041     C
C       0.2185   0.0903   0.2965     C
C       0.2185   0.9097   0.7965     C
C       0.2215   0.4596   0.6854     C
C       0.2215   0.5404   0.1854     C
C       0.2223   0.3329   0.2509     C
C       0.2223   0.6671   0.7509     C
C       0.2317    0.118   0.3958     C
C       0.2317    0.882   0.8958     C
O       0.2361   0.4366   0.4436     O
O       0.2361   0.5634   0.9436     O
N       0.2372   0.3844   0.2356     N
N       0.2372   0.6156   0.7356     N
C       0.2373   0.2104    0.772     C
C       0.2373   0.7896    0.272     C
H       0.2489   0.2456   0.7583     H
H       0.2489   0.7544   0.2583     H
O       0.2492   0.0129   0.2197     O
O       0.2492   0.9871   0.7197     O
O       0.2508   0.4871   0.7803     O
O       0.2508   0.5129   0.2803     O
H       0.2511   0.2544   0.2417     H
H       0.2511   0.7456   0.7417     H
C       0.2627   0.2896    0.228     C
C       0.2627   0.7104    0.728     C
N       0.2628   0.1156   0.7644     N
N       0.2628   0.8844   0.2644     N
O       0.2639   0.0634   0.5564     O
O       0.2639   0.9366   0.0564     O
C       0.2683    0.382   0.6042     C
C       0.2683    0.618   0.1042     C
C       0.2777   0.1671   0.7491     C
C       0.2777   0.8329   0.2491     C
C       0.2785   0.0404   0.3146     C
C       0.2785   0.9596   0.8146     C
C       0.2815   0.4097   0.7035     C
C       0.2815   0.5903   0.2035     C
C       0.2946    0.393   0.1959     C
C       0.2946    0.607   0.6959     C
C       0.2995   0.0997   0.5234     C
C       0.2995   0.9003   0.0234     C
H       0.3071   0.4286   0.1858     H
H       0.3071   0.5714   0.6858     H
H        0.309   0.1935   0.1812     H
H        0.309   0.8065   0.6812     H
H       0.3113   0.3148   0.5586     H
H       0.3113   0.6852   0.0586     H
H       0.3177   0.1743   0.7214     H
H       0.3177   0.8257   0.2214     H
C       0.3212   0.2992    0.184     C
C       0.3212   0.7008    0.684     C
C       0.3213   0.3341   0.6241     C
C       0.3213   0.6659   0.1241     C
Zn     0.32509  0.05238  0.72903    Zn
Zn     0.32509  0.94762  0.22903    Zn
H        0.329   0.0987   0.1634     H
H        0.329   0.9013   0.6634     H
C       0.3366   0.3523    0.169     C
C       0.3366   0.6477    0.669     C
C       0.3488   0.2033   0.1547     C
C       0.3488   0.7967   0.6547     C
C        0.349   0.3904   0.8183     C
C        0.349   0.6096   0.3183     C
O       0.3491   0.0298   0.4165     O
O       0.3491   0.9702   0.9165     O
H       0.3598   0.4092   0.8846     H
H       0.3598   0.5908   0.3846     H
C       0.3639   0.2552   0.1523     C
C       0.3639   0.7448   0.6523     C
C       0.3673   0.1057   0.1333     C
C       0.3673   0.8943   0.6333     C
H       0.3755   0.3608   0.1405     H
H       0.3755   0.6392   0.6405     H
O         0.38   0.1223   0.5895     O
O         0.38   0.8777   0.0895     O
C       0.3875    0.159     0.12     C
C       0.3875    0.841     0.62     C
H       0.3881   0.0284   0.1123     H
H       0.3881   0.9716   0.6123     H
C       0.3885   0.3146   0.7393     C
C       0.3885   0.6854   0.2393     C
C       0.4001   0.3433   0.8343     C
C       0.4001   0.6567   0.3343     C
C       0.4031   0.0636   0.1028     C
C       0.4031   0.9364   0.6028     C
H       0.4055   0.2653   0.1286     H
H       0.4055   0.7347   0.6286     H
H       0.4245   0.2832    0.752     H
H       0.4245   0.7168    0.252     H
C        0.446   0.1663   0.0736     C
C        0.446   0.8337   0.5736     C
N       0.4597    0.071   0.0592     N
N       0.4597    0.929   0.5592     N
O       0.4598  0.03897   0.8456     O
O       0.4598  0.96103   0.3456     O
H       0.4616    0.201    0.062     H
H       0.4616    0.799    0.562     H
N       0.4681   0.3222    0.955     N
N       0.4681   0.6778    0.455     N
O        0.469   0.3432   0.0361     O
O        0.469   0.6568   0.5361     O
C       0.4793   0.1216   0.0459     C
C       0.4793   0.8784   0.5459     C
H        0.482    0.127   0.4842     H
O        0.482   0.2836   0.5297     O
O        0.482   0.7164   0.0297     O
H        0.482    0.873   0.9842     H
H       0.4985    0.062   0.8453     H
H       0.4985    0.938   0.3453     H
Zn         0.5      0.0      0.0    Zn
Zn         0.5      0.0      0.5    Zn
H       0.5015    0.062   0.6547     H
H       0.5015    0.938   0.1547     H
H        0.518    0.127   0.0158     H
O        0.518   0.2836   0.9703     O
O        0.518   0.7164   0.4703     O
H        0.518    0.873   0.5158     H
C       0.5207   0.1216   0.4541     C
C       0.5207   0.8784   0.9541     C
O        0.531   0.3432   0.4639     O
O        0.531   0.6568   0.9639     O
N       0.5319   0.3222    0.545     N
N       0.5319   0.6778    0.045     N
H       0.5384    0.201    0.438     H
H       0.5384    0.799    0.938     H
O       0.5402  0.03897   0.6544     O
O       0.5402  0.96103   0.1544     O
N       0.5403    0.071   0.4408     N
N       0.5403    0.929   0.9408     N
C        0.554   0.1663   0.4264     C
C        0.554   0.8337   0.9264     C
H       0.5755   0.2832    0.748     H
H       0.5755   0.7168    0.248     H
H       0.5945   0.2653   0.3714     H
H       0.5945   0.7347   0.8714     H
C       0.5969   0.0636   0.3972     C
C       0.5969   0.9364   0.8972     C
C       0.5999   0.3433   0.6657     C
C       0.5999   0.6567   0.1657     C
C       0.6115   0.3146   0.7607     C
C       0.6115   0.6854   0.2607     C
H       0.6119   0.0284   0.3877     H
H       0.6119   0.9716   0.8877     H
C       0.6125    0.159     0.38     C
C       0.6125    0.841     0.88     C
O         0.62   0.1223   0.9105     O
O         0.62   0.8777   0.4105     O
H       0.6245   0.3608   0.3595     H
H       0.6245   0.6392   0.8595     H
C       0.6327   0.1057   0.3667     C
C       0.6327   0.8943   0.8667     C
C       0.6361   0.2552   0.3477     C
C       0.6361   0.7448   0.8477     C
H       0.6402   0.4092   0.6154     H
H       0.6402   0.5908   0.1154     H
O       0.6509   0.0298   0.0835     O
O       0.6509   0.9702   0.5835     O
C        0.651   0.3904   0.6817     C
C        0.651   0.6096   0.1817     C
C       0.6512   0.2033   0.3453     C
C       0.6512   0.7967   0.8453     C
C       0.6634   0.3523    0.331     C
C       0.6634   0.6477    0.831     C
H        0.671   0.0987   0.3366     H
H        0.671   0.9013   0.8366     H
Zn     0.67491  0.05238  0.77097    Zn
Zn     0.67491  0.94762  0.27097    Zn
C       0.6787   0.3341   0.8759     C
C       0.6787   0.6659   0.3759     C
C       0.6788   0.2992    0.316     C
C       0.6788   0.7008    0.816     C
H       0.6823   0.1743   0.7786     H
H       0.6823   0.8257   0.2786     H
H       0.6887   0.3148   0.9414     H
H       0.6887   0.6852   0.4414     H
H        0.691   0.1935   0.3188     H
H        0.691   0.8065   0.8188     H
H       0.6929   0.4286   0.3142     H
H       0.6929   0.5714   0.8142     H
C       0.7005   0.0997   0.9766     C
C       0.7005   0.9003   0.4766     C
C       0.7054    0.393   0.3041     C
C       0.7054    0.607   0.8041     C
C       0.7185   0.4097   0.7965     C
C       0.7185   0.5903   0.2965     C
C       0.7215   0.0404   0.1854     C
C       0.7215   0.9596   0.6854     C
C       0.7223   0.1671   0.7509     C
C       0.7223   0.8329   0.2509     C
C       0.7317    0.382   0.8958     C
C       0.7317    0.618   0.3958     C
O       0.7361   0.0634   0.9436     O
O       0.7361   0.9366   0.4436     O
N       0.7372   0.1156   0.7356     N
N       0.7372   0.8844   0.2356     N
C       0.7373   0.2896    0.272     C
C       0.7373   0.7104    0.772     C
H       0.7489   0.2544   0.2583     H
H       0.7489   0.7456   0.7583     H
O       0.7492   0.4871   0.7197     O
O       0.7492   0.5129   0.2197     O
O       0.7508   0.0129   0.2803     O
O       0.7508   0.9871   0.7803     O
H       0.7511   0.2456   0.7417     H
H       0.7511   0.7544   0.2417     H
C       0.7627   0.2104    0.728     C
C       0.7627   0.7896    0.228     C
N       0.7628   0.3844   0.2644     N
N       0.7628   0.6156   0.7644     N
O       0.7639   0.4366   0.0564     O
O       0.7639   0.5634   0.5564     O
C       0.7683    0.118   0.1042     C
C       0.7683    0.882   0.6042     C
C       0.7777   0.3329   0.2491     C
C       0.7777   0.6671   0.7491     C
C       0.7785   0.4596   0.8146     C
C       0.7785   0.5404   0.3146     C
C       0.7815   0.0903   0.2035     C
C       0.7815   0.9097   0.7035     C
C       0.7946    0.107   0.6959     C
C       0.7946    0.893   0.1959     C
C       0.7995   0.4003   0.0234     C
C       0.7995   0.5997   0.5234     C
H       0.8071   0.0714   0.6858     H
H       0.8071   0.9286   0.1858     H
H        0.809   0.3065   0.6812     H
H        0.809   0.6935   0.1812     H
H       0.8113   0.1852   0.0586     H
H       0.8113   0.8148   0.5586     H
H       0.8177   0.3257   0.2214     H
H       0.8177   0.6743   0.7214     H
C       0.8212   0.2008    0.684     C
C       0.8212   0.7992    0.184     C
C       0.8213   0.1659   0.1241     C
C       0.8213   0.8341   0.6241     C
Zn     0.82509  0.44762  0.22903    Zn
Zn     0.82509  0.55238  0.72903    Zn
H        0.829   0.4013   0.6634     H
H        0.829   0.5987   0.1634     H
C       0.8366   0.1477    0.669     C
C       0.8366   0.8523    0.169     C
C       0.8488   0.2967   0.6547     C
C       0.8488   0.7033   0.1547     C
C        0.849   0.1096   0.3183     C
C        0.849   0.8904   0.8183     C
O       0.8491   0.4702   0.9165     O
O       0.8491   0.5298   0.4165     O
H       0.8598   0.0908   0.3846     H
H       0.8598   0.9092   0.8846     H
C       0.8639   0.2448   0.6523     C
C       0.8639   0.7552   0.1523     C
C       0.8673   0.3943   0.6333     C
C       0.8673   0.6057   0.1333     C
H       0.8755   0.1392   0.6405     H
H       0.8755   0.8608   0.1405     H
O         0.88   0.3777   0.0895     O
O         0.88   0.6223   0.5895     O
C       0.8875    0.341     0.62     C
C       0.8875    0.659     0.12     C
H       0.8881   0.4716   0.6123     H
H       0.8881   0.5284   0.1123     H
C       0.8885   0.1854   0.2393     C
C       0.8885   0.8146   0.7393     C
C       0.9001   0.1567   0.3343     C
C       0.9001   0.8433   0.8343     C
C       0.9031   0.4364   0.6028     C
C       0.9031   0.5636   0.1028     C
H       0.9055   0.2347   0.6286     H
H       0.9055   0.7653   0.1286     H
H       0.9245   0.2168    0.252     H
H       0.9245   0.7832    0.752     H
C        0.946   0.3337   0.5736     C
C        0.946   0.6663   0.0736     C
N       0.9597    0.429   0.5592     N
N       0.9597    0.571   0.0592     N
O       0.9598  0.46103   0.3456     O
O       0.9598  0.53897   0.8456     O
H       0.9616    0.299    0.562     H
H       0.9616    0.701    0.062     H
N       0.9681   0.1778    0.455     N
N       0.9681   0.8222    0.955     N
O        0.969   0.1568   0.5361     O
O        0.969   0.8432   0.0361     O
C       0.9793   0.3784   0.5459     C
C       0.9793   0.6216   0.0459     C
O        0.982   0.2164   0.0297     O
H        0.982    0.373   0.9842     H
H        0.982    0.627   0.4842     H
O        0.982   0.7836   0.5297     O
H       0.9985    0.438   0.3453     H
H       0.9985    0.562   0.8453     H
