data_I
_chemical_name_common  '/home/zhangsd/repos/MofS-CGCNN/ML/data/SSD/clean_cifs/GISMAY_clean'
_cell_length_a 23.96470
_cell_length_b 23.96470
_cell_length_c 23.96470
_cell_angle_alpha 90.00000
_cell_angle_beta  90.00000
_cell_angle_gamma 90.00000
_space_group_name_H-M_alt      'P 1'


loop_
_space_group_symop_operation_xyz
  'x, y, z' 

loop_
_atom_site_label
_atom_site_fract_x
_atom_site_fract_y
_atom_site_fract_z
_atom_site_type_symbol
C       0.0171   0.1304    0.802     C
C       0.0171   0.8696    0.198     C
O       0.0187   0.1822   0.8306     O
O       0.0187   0.8178   0.1694     O
H       0.0213   0.0498   0.2427     H
H       0.0213   0.9502   0.7573     H
C       0.0264   0.3733   0.6883     C
C       0.0264   0.6267   0.3117     C
O       0.0303   0.3793   0.3053     O
O       0.0303   0.6207   0.6947     O
H       0.0305   0.2942   0.7133     H
H       0.0305   0.7058   0.2867     H
H       0.0326   0.2915    0.108     H
H       0.0326   0.7085    0.892     H
H       0.0363   0.3444   0.2376     H
H       0.0363   0.6556   0.7624     H
H        0.037   0.4521   0.6636     H
H        0.037   0.5479   0.3364     H
C       0.0371   0.1317   0.2306     C
C       0.0371   0.8683   0.7694     C
O       0.0452   0.0862   0.8029     O
O       0.0452   0.9138   0.1971     O
C       0.0463   0.0785   0.2501     C
C       0.0463   0.9215   0.7499     C
H       0.0498   0.2427   0.0213     H
H       0.0498   0.7573   0.9787     H
H       0.0503    0.466   0.8304     H
H       0.0503    0.534   0.1696     H
C       0.0511   0.3241   0.6995     C
C       0.0511   0.6759   0.3005     C
H       0.0514   0.2137   0.2445     H
H       0.0514   0.7863   0.7555     H
C       0.0553   0.4185   0.6704     C
C       0.0553   0.5815   0.3296     C
C       0.0597   0.3542   0.2692     C
C       0.0597   0.6458   0.7308     C
H       0.0601   0.3709   0.8602     H
H       0.0601   0.6291   0.1398     H
H       0.0632   0.4613   0.2388     H
H       0.0632   0.5387   0.7612     H
C       0.0649   0.1777   0.2502     C
C       0.0649   0.8223   0.7498     C
H       0.0667   0.4264   0.1834     H
H       0.0667   0.5736   0.8166     H
C       0.0687   0.2828   0.0966     C
C       0.0687   0.7172   0.9034     C
H       0.0737   0.3198   0.2853     H
H       0.0737   0.6802   0.7147     H
C       0.0785   0.2501   0.0463     C
C       0.0785   0.7499   0.9537     C
C       0.0844   0.4477   0.8283     C
C       0.0844   0.5523   0.1717     C
O       0.0862   0.1971   0.9548     O
O       0.0862   0.8029   0.0452     O
Zn     0.08743  0.19621  0.87132    Zn
Zn     0.08743  0.80379  0.12868    Zn
C       0.0878   0.4392   0.2155     C
C       0.0878   0.5608   0.7845     C
C       0.0894    0.389   0.8423     C
C       0.0894    0.611   0.1577     C
C       0.0966   0.0687   0.2828     C
C       0.0966   0.9313   0.7172     C
O       0.0983   0.2743   0.8532     O
O       0.0983   0.7257   0.1468     O
O       0.0999   0.3348   0.1712     O
O       0.0999   0.6652   0.8288     O
H        0.108   0.0326   0.2915     H
H        0.108   0.9674   0.7085     H
C       0.1094   0.3893   0.2483     C
C       0.1094   0.6107   0.7517     C
C       0.1122   0.3189   0.6894     C
C       0.1122   0.6811   0.3106     C
C       0.1143   0.3006   0.1269     C
C       0.1143   0.6994   0.8731     C
C       0.1148   0.4139   0.6619     C
C       0.1148   0.5861   0.3381     C
C       0.1189    0.167   0.2816     C
C       0.1189    0.833   0.7184     C
C       0.1269   0.1143   0.3006     C
C       0.1269   0.8857   0.6994     C
Zn     0.12868  0.08743  0.80379    Zn
Zn     0.12868  0.91257  0.19621    Zn
H       0.1296   0.4276   0.3218     H
H       0.1296   0.5724   0.6782     H
O       0.1297     0.47   0.1986     O
O       0.1297     0.53   0.8014     O
C       0.1304    0.198   0.9829     C
H       0.1304   0.2853    0.696     H
H       0.1304   0.7147    0.304     H
C       0.1304    0.802   0.0171     C
C       0.1305   0.4746   0.8122     C
C       0.1305   0.5254   0.1878     C
C       0.1317   0.2306   0.0371     C
C       0.1317   0.7694   0.9629     C
H       0.1352   0.4449   0.6507     H
H       0.1352   0.5551   0.3493     H
C       0.1371   0.3597   0.8292     C
C       0.1371   0.6403   0.1708     C
C        0.138   0.2971   0.8348     C
C        0.138   0.7029   0.1652     C
H       0.1398   0.0601   0.6291     H
H       0.1398   0.9399   0.3709     H
C       0.1411   0.3643   0.6701     C
C       0.1411   0.6357   0.3299     C
C       0.1422   0.3494   0.2051     C
C       0.1422   0.6506   0.7949     C
H       0.1451   0.1951   0.2876     H
H       0.1451   0.8049   0.7124     H
O       0.1468   0.0983   0.7257     O
O       0.1468   0.9017   0.2743     O
C       0.1491   0.4073   0.2927     C
C       0.1491   0.5927   0.7073     C
O       0.1519   0.1519   0.8481     O
O       0.1519   0.8481   0.1519     O
C       0.1577   0.0894    0.611     C
C       0.1577   0.9106    0.389     C
H       0.1584   0.3173   0.2237     H
H       0.1584   0.6827   0.7763     H
C       0.1652    0.138   0.7029     C
C       0.1652    0.862   0.2971     C
C        0.167   0.2816   0.1189     C
C        0.167   0.7184   0.8811     C
O       0.1694   0.0187   0.8178     O
O       0.1694   0.9813   0.1822     O
H       0.1696   0.0503    0.534     H
H       0.1696   0.9497    0.466     H
C       0.1708   0.1371   0.6403     C
C       0.1708   0.8629   0.3597     C
H       0.1711   0.3695   0.1851     H
H       0.1711   0.6305   0.8149     H
O       0.1712   0.0999   0.3348     O
O       0.1712   0.9001   0.6652     O
C       0.1717   0.0844   0.5523     C
C       0.1717   0.9156   0.4477     C
O       0.1722   0.3585   0.3138     O
O       0.1722   0.6415   0.6862     O
C       0.1777   0.2502   0.0649     C
C       0.1777   0.7498   0.9351     C
H       0.1779   0.4312   0.2773     H
H       0.1779   0.5688   0.7227     H
C       0.1788   0.4474   0.7995     C
C       0.1788   0.5526   0.2005     C
O       0.1806   0.1845   0.7247     O
O       0.1806   0.8155   0.2753     O
C       0.1819    0.388   0.8103     C
C       0.1819    0.612   0.1897     C
O       0.1822   0.1694   0.9813     O
O       0.1822   0.8306   0.0187     O
H       0.1834   0.0667   0.4264     H
H       0.1834   0.9333   0.5736     H
O       0.1845   0.2753   0.8194     O
O       0.1845   0.7247   0.1806     O
H       0.1851   0.1711   0.3695     H
H       0.1851   0.8289   0.6305     H
C       0.1878   0.1305   0.5254     C
C       0.1878   0.8695   0.4746     C
C       0.1897   0.1819    0.612     C
C       0.1897   0.8181    0.388     C
H       0.1898   0.4469   0.3732     H
H       0.1898   0.5531   0.6268     H
H       0.1951   0.2876   0.1451     H
H       0.1951   0.7124   0.8549     H
H       0.1959   0.2153   0.6309     H
H       0.1959   0.7847   0.3691     H
Zn     0.19621  0.12868  0.91257    Zn
Zn     0.19621  0.87132  0.08743    Zn
Zn     0.19636  0.19636  0.80364    Zn
Zn     0.19636  0.80364  0.19636    Zn
O       0.1971   0.0452   0.9138     O
O       0.1971   0.9548   0.0862     O
C        0.198   0.0171   0.8696     C
C        0.198   0.9829   0.1304     C
O       0.1986   0.1297     0.47     O
O       0.1986   0.8703     0.53     O
C       0.1994   0.3653   0.3652     C
C       0.1994   0.6347   0.6348     C
C       0.2005   0.1788   0.5526     C
C       0.2005   0.8212   0.4474     C
C       0.2025   0.3612   0.6668     C
C       0.2025   0.6388   0.3332     C
C       0.2051   0.1422   0.3494     C
C       0.2051   0.8578   0.6506     C
C        0.207   0.4157   0.3885     C
C        0.207   0.5843   0.6115     C
H       0.2089   0.4665   0.7842     H
H       0.2089   0.5335   0.2158     H
H       0.2137   0.2445   0.0514     H
H       0.2137   0.7555   0.9486     H
H       0.2153   0.3691   0.8041     H
H       0.2153   0.6309   0.1959     H
C       0.2155   0.0878   0.4392     C
C       0.2155   0.9122   0.5608     C
H       0.2158   0.2089   0.5335     H
H       0.2158   0.7911   0.4665     H
H        0.223    0.285    0.366     H
H        0.223    0.715    0.634     H
H       0.2237   0.1584   0.3173     H
H       0.2237   0.8416   0.6827     H
O       0.2246   0.3176   0.6809     O
O       0.2246   0.6824   0.3191     O
O       0.2254   0.4028   0.6469     O
O       0.2254   0.5972   0.3531     O
C       0.2256   0.3186   0.3852     C
C       0.2256   0.6814   0.6148     C
C       0.2306   0.0371   0.1317     C
C       0.2306   0.9629   0.8683     C
H       0.2376   0.0363   0.3444     H
H       0.2376   0.9637   0.6556     H
H       0.2388   0.0632   0.4613     H
H       0.2388   0.9368   0.5387     H
H       0.2427   0.0213   0.0498     H
H       0.2427   0.9787   0.9502     H
C       0.2434   0.4218   0.4395     C
C       0.2434   0.5782   0.5605     C
H       0.2445   0.0514   0.2137     H
H       0.2445   0.9486   0.7863     H
C       0.2483   0.1094   0.3893     C
C       0.2483   0.8906   0.6107     C
C       0.2501   0.0463   0.0785     C
C       0.2501   0.9537   0.9215     C
C       0.2502   0.0649   0.1777     C
C       0.2502   0.9351   0.8223     C
H       0.2516   0.4567   0.4544     H
H       0.2516   0.5433   0.5456     H
C        0.258   0.3225   0.4378     C
C        0.258   0.6775   0.5622     C
C       0.2643   0.3733   0.4636     C
C       0.2643   0.6267   0.5364     C
C       0.2692   0.0597   0.3542     C
C       0.2692   0.9403   0.6458     C
H        0.274   0.2907   0.4533     H
H        0.274   0.7093   0.5467     H
O       0.2743   0.1468   0.9017     O
O       0.2743   0.8532   0.0983     O
O       0.2753   0.1806   0.8155     O
O       0.2753   0.8194   0.1845     O
H       0.2773   0.1779   0.4312     H
H       0.2773   0.8221   0.5688     H
C       0.2816   0.1189    0.167     C
C       0.2816   0.8811    0.833     C
C       0.2828   0.0966   0.0687     C
C       0.2828   0.9034   0.9313     C
H        0.285    0.366    0.223     H
H        0.285    0.634    0.777     H
H       0.2853   0.0737   0.3198     H
H       0.2853    0.304   0.8696     H
H       0.2853    0.696   0.1304     H
H       0.2853   0.9263   0.6802     H
H       0.2867   0.0305   0.7058     H
H       0.2867   0.9695   0.2942     H
H       0.2876   0.1451   0.1951     H
H       0.2876   0.8549   0.8049     H
H       0.2907   0.4533    0.274     H
H       0.2907   0.5467    0.726     H
H       0.2915    0.108   0.0326     H
H       0.2915    0.892   0.9674     H
C       0.2927   0.1491   0.4073     C
C       0.2927   0.8509   0.5927     C
H       0.2942   0.2867   0.9695     H
H       0.2942   0.7133   0.0305     H
C       0.2963    0.369    0.518     C
C       0.2963    0.631    0.482     C
C       0.2971   0.1652    0.862     C
C       0.2971   0.8348    0.138     C
C       0.3005   0.0511   0.6759     C
C       0.3005   0.9489   0.3241     C
C       0.3006   0.1269   0.1143     C
C       0.3006   0.8731   0.8857     C
O       0.3009   0.4156   0.5487     O
O       0.3009   0.5844   0.4513     O
Zn     0.30317  0.30317  0.69683    Zn
Zn     0.30317  0.69683  0.30317    Zn
Zn     0.30362  0.41248  0.62838    Zn
Zn     0.30362  0.58752  0.37162    Zn
H        0.304   0.1304   0.7147     H
H        0.304   0.8696   0.2853     H
O       0.3053   0.0303   0.3793     O
O       0.3053   0.9697   0.6207     O
C       0.3106   0.1122   0.6811     C
C       0.3106   0.8878   0.3189     C
C       0.3117   0.0264   0.6267     C
C       0.3117   0.9736   0.3733     C
O       0.3138   0.1722   0.3585     O
O       0.3138   0.8278   0.6415     O
H       0.3173   0.2237   0.1584     H
H       0.3173   0.7763   0.8416     H
O       0.3176   0.3191   0.7754     O
O       0.3176   0.6809   0.2246     O
C       0.3186   0.3852   0.2256     C
C       0.3186   0.6148   0.7744     C
O       0.3187   0.4822   0.6672     O
O       0.3187   0.5178   0.3328     O
C       0.3189   0.3106   0.8878     C
C       0.3189   0.6894   0.1122     C
O       0.3191   0.2246   0.6824     O
O       0.3191   0.7754   0.3176     O
H       0.3198   0.2853   0.0737     H
H       0.3198   0.7147   0.9263     H
H       0.3218   0.1296   0.4276     H
H       0.3218   0.8704   0.5724     H
C       0.3225   0.4378    0.258     C
C       0.3225   0.5622    0.742     C
C       0.3241   0.3005   0.9489     C
C       0.3241   0.6995   0.0511     C
C       0.3296   0.0553   0.5815     C
C       0.3296   0.9447   0.4185     C
C       0.3299   0.1411   0.6357     C
C       0.3299   0.8589   0.3643     C
O       0.3328   0.3187   0.5178     O
O       0.3328   0.6813   0.4822     O
C       0.3332   0.2025   0.6388     C
C       0.3332   0.7975   0.3612     C
O       0.3348   0.1712   0.0999     O
O       0.3348   0.8288   0.9001     O
H       0.3364    0.037   0.5479     H
H       0.3364    0.963   0.4521     H
C       0.3381   0.1148   0.5861     C
C       0.3381   0.8852   0.4139     C
H       0.3444   0.2376   0.0363     H
H       0.3444   0.7624   0.9637     H
O       0.3488   0.3488   0.6512     O
O       0.3488   0.6512   0.3488     O
H       0.3493   0.1352   0.5551     H
H       0.3493   0.8648   0.4449     H
C       0.3494   0.2051   0.1422     C
C       0.3494   0.7949   0.8578     C
O       0.3531   0.2254   0.5972     O
O       0.3531   0.7746   0.4028     O
C       0.3542   0.2692   0.0597     C
C       0.3542   0.7308   0.9403     C
O       0.3585   0.3138   0.1722     O
O       0.3585   0.6862   0.8278     O
C       0.3597   0.1708   0.8629     C
C       0.3597   0.8292   0.1371     C
C       0.3612   0.3332   0.7975     C
C       0.3612   0.6668   0.2025     C
C       0.3643   0.3299   0.8589     C
C       0.3643   0.6701   0.1411     C
C       0.3652   0.1994   0.3653     C
C       0.3652   0.8006   0.6347     C
C       0.3653   0.3652   0.1994     C
C       0.3653   0.6348   0.8006     C
H        0.366    0.223    0.285     H
H        0.366    0.777    0.715     H
C        0.369    0.482   0.7037     C
C        0.369    0.518   0.2963     C
H       0.3691   0.1959   0.7847     H
H       0.3691   0.8041   0.2153     H
H       0.3695   0.1851   0.1711     H
H       0.3695   0.8149   0.8289     H
H       0.3709   0.1398   0.9399     H
H       0.3709   0.8602   0.0601     H
Zn     0.37162  0.30362  0.58752    Zn
Zn     0.37162  0.69638  0.41248    Zn
H       0.3732   0.1898   0.4469     H
H       0.3732   0.8102   0.5531     H
C       0.3733   0.3117   0.9736     C
C       0.3733   0.4636   0.2643     C
C       0.3733   0.5364   0.7357     C
C       0.3733   0.6883   0.0264     C
O       0.3793   0.3053   0.0303     O
O       0.3793   0.6947   0.9697     O
C       0.3852   0.2256   0.3186     C
C       0.3852   0.7744   0.6814     C
C        0.388   0.1897   0.8181     C
C        0.388   0.8103   0.1819     C
C       0.3885    0.207   0.4157     C
C       0.3885    0.793   0.5843     C
C        0.389   0.1577   0.9106     C
C        0.389   0.8423   0.0894     C
C       0.3893   0.2483   0.1094     C
C       0.3893   0.7517   0.8906     C
O       0.4028   0.3531   0.7746     O
O       0.4028   0.6469   0.2254     O
C       0.4073   0.2927   0.1491     C
C       0.4073   0.7073   0.8509     C
Zn     0.41248  0.37162  0.69638    Zn
Zn     0.41248  0.62838  0.30362    Zn
C       0.4139   0.3381   0.8852     C
C       0.4139   0.6619   0.1148     C
O       0.4156   0.4513   0.6991     O
O       0.4156   0.5487   0.3009     O
C       0.4157   0.3885    0.207     C
C       0.4157   0.6115    0.793     C
C       0.4185   0.3296   0.9447     C
C       0.4185   0.6704   0.0553     C
C       0.4218   0.4395   0.2434     C
C       0.4218   0.5605   0.7566     C
H       0.4264   0.1834   0.0667     H
H       0.4264   0.8166   0.9333     H
H       0.4276   0.3218   0.1296     H
H       0.4276   0.6782   0.8704     H
H       0.4312   0.2773   0.1779     H
H       0.4312   0.7227   0.8221     H
C       0.4378    0.258   0.3225     C
C       0.4378    0.742   0.6775     C
C       0.4392   0.2155   0.0878     C
C       0.4392   0.7845   0.9122     C
C       0.4395   0.2434   0.4218     C
C       0.4395   0.7566   0.5782     C
H       0.4449   0.3493   0.8648     H
H       0.4449   0.6507   0.1352     H
H       0.4469   0.3732   0.1898     H
H       0.4469   0.6268   0.8102     H
C       0.4474   0.2005   0.8212     C
C       0.4474   0.7995   0.1788     C
C       0.4477   0.1717   0.9156     C
C       0.4477   0.8283   0.0844     C
O       0.4513   0.3009   0.5844     O
O       0.4513   0.6991   0.4156     O
H       0.4521   0.3364    0.963     H
H       0.4521   0.6636    0.037     H
H       0.4533    0.274   0.2907     H
H       0.4533    0.726   0.7093     H
H       0.4544   0.2516   0.4567     H
H       0.4544   0.7484   0.5433     H
H       0.4567   0.4544   0.2516     H
H       0.4567   0.5456   0.7484     H
H       0.4613   0.2388   0.0632     H
H       0.4613   0.7612   0.9368     H
C       0.4636   0.2643   0.3733     C
C       0.4636   0.7357   0.6267     C
H        0.466   0.1696   0.9497     H
H        0.466   0.8304   0.0503     H
H       0.4665   0.2158   0.7911     H
H       0.4665   0.7842   0.2089     H
O         0.47   0.1986   0.1297     O
O         0.47   0.8014   0.8703     O
C       0.4746   0.1878   0.8695     C
C       0.4746   0.8122   0.1305     C
C        0.482   0.2963    0.631     C
C        0.482   0.7037    0.369     C
O       0.4822   0.3328   0.6813     O
O       0.4822   0.6672   0.3187     O
O       0.5178   0.3328   0.3187     O
O       0.5178   0.6672   0.6813     O
C        0.518   0.2963    0.369     C
C        0.518   0.7037    0.631     C
C       0.5254   0.1878   0.1305     C
C       0.5254   0.8122   0.8695     C
O         0.53   0.1986   0.8703     O
O         0.53   0.8014   0.1297     O
H       0.5335   0.2158   0.2089     H
H       0.5335   0.7842   0.7911     H
H        0.534   0.1696   0.0503     H
H        0.534   0.8304   0.9497     H
C       0.5364   0.2643   0.6267     C
C       0.5364   0.7357   0.3733     C
H       0.5387   0.2388   0.9368     H
H       0.5387   0.7612   0.0632     H
H       0.5433   0.4544   0.7484     H
H       0.5433   0.5456   0.2516     H
H       0.5456   0.2516   0.5433     H
H       0.5456   0.7484   0.4567     H
H       0.5467    0.274   0.7093     H
H       0.5467    0.726   0.2907     H
H       0.5479   0.3364    0.037     H
H       0.5479   0.6636    0.963     H
O       0.5487   0.3009   0.4156     O
O       0.5487   0.6991   0.5844     O
C       0.5523   0.1717   0.0844     C
C       0.5523   0.8283   0.9156     C
C       0.5526   0.2005   0.1788     C
C       0.5526   0.7995   0.8212     C
H       0.5531   0.3732   0.8102     H
H       0.5531   0.6268   0.1898     H
H       0.5551   0.3493   0.1352     H
H       0.5551   0.6507   0.8648     H
C       0.5605   0.2434   0.5782     C
C       0.5605   0.7566   0.4218     C
C       0.5608   0.2155   0.9122     C
C       0.5608   0.7845   0.0878     C
C       0.5622    0.258   0.6775     C
C       0.5622    0.742   0.3225     C
H       0.5688   0.2773   0.8221     H
H       0.5688   0.7227   0.1779     H
H       0.5724   0.3218   0.8704     H
H       0.5724   0.6782   0.1296     H
H       0.5736   0.1834   0.9333     H
H       0.5736   0.8166   0.0667     H
C       0.5782   0.4395   0.7566     C
C       0.5782   0.5605   0.2434     C
C       0.5815   0.3296   0.0553     C
C       0.5815   0.6704   0.9447     C
C       0.5843   0.3885    0.793     C
C       0.5843   0.6115    0.207     C
O       0.5844   0.4513   0.3009     O
O       0.5844   0.5487   0.6991     O
C       0.5861   0.3381   0.1148     C
C       0.5861   0.6619   0.8852     C
Zn     0.58752  0.37162  0.30362    Zn
Zn     0.58752  0.62838  0.69638    Zn
C       0.5927   0.2927   0.8509     C
C       0.5927   0.7073   0.1491     C
O       0.5972   0.3531   0.2254     O
O       0.5972   0.6469   0.7746     O
C       0.6107   0.2483   0.8906     C
C       0.6107   0.7517   0.1094     C
C        0.611   0.1577   0.0894     C
C        0.611   0.8423   0.9106     C
C       0.6115    0.207   0.5843     C
C       0.6115    0.793   0.4157     C
C        0.612   0.1897   0.1819     C
C        0.612   0.8103   0.8181     C
C       0.6148   0.2256   0.6814     C
C       0.6148   0.7744   0.3186     C
O       0.6207   0.3053   0.9697     O
O       0.6207   0.6947   0.0303     O
C       0.6267   0.3117   0.0264     C
C       0.6267   0.4636   0.7357     C
C       0.6267   0.5364   0.2643     C
C       0.6267   0.6883   0.9736     C
H       0.6268   0.1898   0.5531     H
H       0.6268   0.8102   0.4469     H
Zn     0.62838  0.30362  0.41248    Zn
Zn     0.62838  0.69638  0.58752    Zn
H       0.6291   0.1398   0.0601     H
H       0.6291   0.8602   0.9399     H
H       0.6305   0.1851   0.8289     H
H       0.6305   0.8149   0.1711     H
H       0.6309   0.1959   0.2153     H
H       0.6309   0.8041   0.7847     H
C        0.631    0.482   0.2963     C
C        0.631    0.518   0.7037     C
H        0.634    0.223    0.715     H
H        0.634    0.777    0.285     H
C       0.6347   0.3652   0.8006     C
C       0.6347   0.6348   0.1994     C
C       0.6348   0.1994   0.6347     C
C       0.6348   0.8006   0.3653     C
C       0.6357   0.3299   0.1411     C
C       0.6357   0.6701   0.8589     C
C       0.6388   0.3332   0.2025     C
C       0.6388   0.6668   0.7975     C
C       0.6403   0.1708   0.1371     C
C       0.6403   0.8292   0.8629     C
O       0.6415   0.3138   0.8278     O
O       0.6415   0.6862   0.1722     O
C       0.6458   0.2692   0.9403     C
C       0.6458   0.7308   0.0597     C
O       0.6469   0.2254   0.4028     O
O       0.6469   0.7746   0.5972     O
C       0.6506   0.2051   0.8578     C
C       0.6506   0.7949   0.1422     C
H       0.6507   0.1352   0.4449     H
H       0.6507   0.8648   0.5551     H
O       0.6512   0.3488   0.3488     O
O       0.6512   0.6512   0.6512     O
H       0.6556   0.2376   0.9637     H
H       0.6556   0.7624   0.0363     H
C       0.6619   0.1148   0.4139     C
C       0.6619   0.8852   0.5861     C
H       0.6636    0.037   0.4521     H
H       0.6636    0.963   0.5479     H
O       0.6652   0.1712   0.9001     O
O       0.6652   0.8288   0.0999     O
C       0.6668   0.2025   0.3612     C
C       0.6668   0.7975   0.6388     C
O       0.6672   0.3187   0.4822     O
O       0.6672   0.6813   0.5178     O
C       0.6701   0.1411   0.3643     C
C       0.6701   0.8589   0.6357     C
C       0.6704   0.0553   0.4185     C
C       0.6704   0.9447   0.5815     C
C       0.6759   0.3005   0.0511     C
C       0.6759   0.6995   0.9489     C
C       0.6775   0.4378    0.742     C
C       0.6775   0.5622    0.258     C
H       0.6782   0.1296   0.5724     H
H       0.6782   0.8704   0.4276     H
H       0.6802   0.2853   0.9263     H
H       0.6802   0.7147   0.0737     H
O       0.6809   0.2246   0.3176     O
O       0.6809   0.7754   0.6824     O
C       0.6811   0.3106   0.1122     C
C       0.6811   0.6894   0.8878     C
O       0.6813   0.4822   0.3328     O
O       0.6813   0.5178   0.6672     O
C       0.6814   0.3852   0.7744     C
C       0.6814   0.6148   0.2256     C
O       0.6824   0.3191   0.2246     O
O       0.6824   0.6809   0.7754     O
H       0.6827   0.2237   0.8416     H
H       0.6827   0.7763   0.1584     H
O       0.6862   0.1722   0.6415     O
O       0.6862   0.8278   0.3585     O
C       0.6883   0.0264   0.3733     C
C       0.6883   0.9736   0.6267     C
C       0.6894   0.1122   0.3189     C
C       0.6894   0.8878   0.6811     C
O       0.6947   0.0303   0.6207     O
O       0.6947   0.9697   0.3793     O
H        0.696   0.1304   0.2853     H
H        0.696   0.8696   0.7147     H
Zn     0.69638  0.41248  0.37162    Zn
Zn     0.69638  0.58752  0.62838    Zn
Zn     0.69683  0.30317  0.30317    Zn
Zn     0.69683  0.69683  0.69683    Zn
O       0.6991   0.4156   0.4513     O
O       0.6991   0.5844   0.5487     O
C       0.6994   0.1269   0.8857     C
C       0.6994   0.8731   0.1143     C
C       0.6995   0.0511   0.3241     C
C       0.6995   0.9489   0.6759     C
C       0.7029   0.1652    0.138     C
C       0.7029   0.8348    0.862     C
C       0.7037    0.369    0.482     C
C       0.7037    0.631    0.518     C
H       0.7058   0.2867   0.0305     H
H       0.7058   0.7133   0.9695     H
C       0.7073   0.1491   0.5927     C
C       0.7073   0.8509   0.4073     C
H       0.7085    0.108   0.9674     H
H       0.7085    0.892   0.0326     H
H       0.7093   0.4533    0.726     H
H       0.7093   0.5467    0.274     H
H       0.7124   0.1451   0.8049     H
H       0.7124   0.8549   0.1951     H
H       0.7133   0.0305   0.2942     H
H       0.7133   0.9695   0.7058     H
H       0.7147   0.0737   0.6802     H
H       0.7147    0.304   0.1304     H
H       0.7147    0.696   0.8696     H
H       0.7147   0.9263   0.3198     H
H        0.715    0.366    0.777     H
H        0.715    0.634    0.223     H
C       0.7172   0.0966   0.9313     C
C       0.7172   0.9034   0.0687     C
C       0.7184   0.1189    0.833     C
C       0.7184   0.8811    0.167     C
H       0.7227   0.1779   0.5688     H
H       0.7227   0.8221   0.4312     H
O       0.7247   0.1806   0.1845     O
O       0.7247   0.8194   0.8155     O
O       0.7257   0.1468   0.0983     O
O       0.7257   0.8532   0.9017     O
H        0.726   0.2907   0.5467     H
H        0.726   0.7093   0.4533     H
C       0.7308   0.0597   0.6458     C
C       0.7308   0.9403   0.3542     C
C       0.7357   0.3733   0.5364     C
C       0.7357   0.6267   0.4636     C
C        0.742   0.3225   0.5622     C
C        0.742   0.6775   0.4378     C
H       0.7484   0.4567   0.5456     H
H       0.7484   0.5433   0.4544     H
C       0.7498   0.0649   0.8223     C
C       0.7498   0.9351   0.1777     C
C       0.7499   0.0463   0.9215     C
C       0.7499   0.9537   0.0785     C
C       0.7517   0.1094   0.6107     C
C       0.7517   0.8906   0.3893     C
H       0.7555   0.0514   0.7863     H
H       0.7555   0.9486   0.2137     H
C       0.7566   0.4218   0.5605     C
C       0.7566   0.5782   0.4395     C
H       0.7573   0.0213   0.9502     H
H       0.7573   0.9787   0.0498     H
H       0.7612   0.0632   0.5387     H
H       0.7612   0.9368   0.4613     H
H       0.7624   0.0363   0.6556     H
H       0.7624   0.9637   0.3444     H
C       0.7694   0.0371   0.8683     C
C       0.7694   0.9629   0.1317     C
C       0.7744   0.3186   0.6148     C
C       0.7744   0.6814   0.3852     C
O       0.7746   0.4028   0.3531     O
O       0.7746   0.5972   0.6469     O
O       0.7754   0.3176   0.3191     O
O       0.7754   0.6824   0.6809     O
H       0.7763   0.1584   0.6827     H
H       0.7763   0.8416   0.3173     H
H        0.777    0.285    0.634     H
H        0.777    0.715    0.366     H
H       0.7842   0.2089   0.4665     H
H       0.7842   0.7911   0.5335     H
C       0.7845   0.0878   0.5608     C
C       0.7845   0.9122   0.4392     C
H       0.7847   0.3691   0.1959     H
H       0.7847   0.6309   0.8041     H
H       0.7863   0.2445   0.9486     H
H       0.7863   0.7555   0.0514     H
H       0.7911   0.4665   0.2158     H
H       0.7911   0.5335   0.7842     H
C        0.793   0.4157   0.6115     C
C        0.793   0.5843   0.3885     C
C       0.7949   0.1422   0.6506     C
C       0.7949   0.8578   0.3494     C
C       0.7975   0.3612   0.3332     C
C       0.7975   0.6388   0.6668     C
C       0.7995   0.1788   0.4474     C
C       0.7995   0.8212   0.5526     C
C       0.8006   0.3653   0.6348     C
C       0.8006   0.6347   0.3652     C
O       0.8014   0.1297     0.53     O
O       0.8014   0.8703     0.47     O
C        0.802   0.0171   0.1304     C
C        0.802   0.9829   0.8696     C
O       0.8029   0.0452   0.0862     O
O       0.8029   0.9548   0.9138     O
Zn     0.80364  0.19636  0.19636    Zn
Zn     0.80364  0.80364  0.80364    Zn
Zn     0.80379  0.12868  0.08743    Zn
Zn     0.80379  0.87132  0.91257    Zn
H       0.8041   0.2153   0.3691     H
H       0.8041   0.7847   0.6309     H
H       0.8049   0.2876   0.8549     H
H       0.8049   0.7124   0.1451     H
H       0.8102   0.4469   0.6268     H
H       0.8102   0.5531   0.3732     H
C       0.8103   0.1819    0.388     C
C       0.8103   0.8181    0.612     C
C       0.8122   0.1305   0.4746     C
C       0.8122   0.8695   0.5254     C
H       0.8149   0.1711   0.6305     H
H       0.8149   0.8289   0.3695     H
O       0.8155   0.2753   0.1806     O
O       0.8155   0.7247   0.8194     O
H       0.8166   0.0667   0.5736     H
H       0.8166   0.9333   0.4264     H
O       0.8178   0.1694   0.0187     O
O       0.8178   0.8306   0.9813     O
C       0.8181    0.388   0.1897     C
C       0.8181    0.612   0.8103     C
O       0.8194   0.1845   0.2753     O
O       0.8194   0.8155   0.7247     O
C       0.8212   0.4474   0.2005     C
C       0.8212   0.5526   0.7995     C
H       0.8221   0.4312   0.7227     H
H       0.8221   0.5688   0.2773     H
C       0.8223   0.2502   0.9351     C
C       0.8223   0.7498   0.0649     C
O       0.8278   0.3585   0.6862     O
O       0.8278   0.6415   0.3138     O
C       0.8283   0.0844   0.4477     C
C       0.8283   0.9156   0.5523     C
O       0.8288   0.0999   0.6652     O
O       0.8288   0.9001   0.3348     O
H       0.8289   0.3695   0.8149     H
H       0.8289   0.6305   0.1851     H
C       0.8292   0.1371   0.3597     C
C       0.8292   0.8629   0.6403     C
H       0.8304   0.0503    0.466     H
H       0.8304   0.9497    0.534     H
O       0.8306   0.0187   0.1822     O
O       0.8306   0.9813   0.8178     O
C        0.833   0.2816   0.8811     C
C        0.833   0.7184   0.1189     C
C       0.8348    0.138   0.2971     C
C       0.8348    0.862   0.7029     C
H       0.8416   0.3173   0.7763     H
H       0.8416   0.6827   0.2237     H
C       0.8423   0.0894    0.389     C
C       0.8423   0.9106    0.611     C
O       0.8481   0.1519   0.1519     O
O       0.8481   0.8481   0.8481     O
C       0.8509   0.4073   0.7073     C
C       0.8509   0.5927   0.2927     C
O       0.8532   0.0983   0.2743     O
O       0.8532   0.9017   0.7257     O
H       0.8549   0.1951   0.7124     H
H       0.8549   0.8049   0.2876     H
C       0.8578   0.3494   0.7949     C
C       0.8578   0.6506   0.2051     C
C       0.8589   0.3643   0.3299     C
C       0.8589   0.6357   0.6701     C
H       0.8602   0.0601   0.3709     H
H       0.8602   0.9399   0.6291     H
C        0.862   0.2971   0.1652     C
C        0.862   0.7029   0.8348     C
C       0.8629   0.3597   0.1708     C
C       0.8629   0.6403   0.8292     C
H       0.8648   0.4449   0.3493     H
H       0.8648   0.5551   0.6507     H
C       0.8683   0.2306   0.9629     C
C       0.8683   0.7694   0.0371     C
C       0.8695   0.4746   0.1878     C
C       0.8695   0.5254   0.8122     C
C       0.8696    0.198   0.0171     C
H       0.8696   0.2853    0.304     H
H       0.8696   0.7147    0.696     H
C       0.8696    0.802   0.9829     C
O       0.8703     0.47   0.8014     O
O       0.8703     0.53   0.1986     O
H       0.8704   0.4276   0.6782     H
H       0.8704   0.5724   0.3218     H
Zn     0.87132  0.08743  0.19621    Zn
Zn     0.87132  0.91257  0.80379    Zn
C       0.8731   0.1143   0.6994     C
C       0.8731   0.8857   0.3006     C
C       0.8811    0.167   0.7184     C
C       0.8811    0.833   0.2816     C
C       0.8852   0.4139   0.3381     C
C       0.8852   0.5861   0.6619     C
C       0.8857   0.3006   0.8731     C
C       0.8857   0.6994   0.1269     C
C       0.8878   0.3189   0.3106     C
C       0.8878   0.6811   0.6894     C
C       0.8906   0.3893   0.7517     C
C       0.8906   0.6107   0.2483     C
H        0.892   0.0326   0.7085     H
H        0.892   0.9674   0.2915     H
O       0.9001   0.3348   0.8288     O
O       0.9001   0.6652   0.1712     O
O       0.9017   0.2743   0.1468     O
O       0.9017   0.7257   0.8532     O
C       0.9034   0.0687   0.7172     C
C       0.9034   0.9313   0.2828     C
C       0.9106    0.389   0.1577     C
C       0.9106    0.611   0.8423     C
C       0.9122   0.4392   0.7845     C
C       0.9122   0.5608   0.2155     C
Zn     0.91257  0.19621  0.12868    Zn
Zn     0.91257  0.80379  0.87132    Zn
O       0.9138   0.1971   0.0452     O
O       0.9138   0.8029   0.9548     O
C       0.9156   0.4477   0.1717     C
C       0.9156   0.5523   0.8283     C
C       0.9215   0.2501   0.9537     C
C       0.9215   0.7499   0.0463     C
H       0.9263   0.3198   0.7147     H
H       0.9263   0.6802   0.2853     H
C       0.9313   0.2828   0.9034     C
C       0.9313   0.7172   0.0966     C
H       0.9333   0.4264   0.8166     H
H       0.9333   0.5736   0.1834     H
C       0.9351   0.1777   0.7498     C
C       0.9351   0.8223   0.2502     C
H       0.9368   0.4613   0.7612     H
H       0.9368   0.5387   0.2388     H
H       0.9399   0.3709   0.1398     H
H       0.9399   0.6291   0.8602     H
C       0.9403   0.3542   0.7308     C
C       0.9403   0.6458   0.2692     C
C       0.9447   0.4185   0.3296     C
C       0.9447   0.5815   0.6704     C
H       0.9486   0.2137   0.7555     H
H       0.9486   0.7863   0.2445     H
C       0.9489   0.3241   0.3005     C
C       0.9489   0.6759   0.6995     C
H       0.9497    0.466   0.1696     H
H       0.9497    0.534   0.8304     H
H       0.9502   0.2427   0.9787     H
H       0.9502   0.7573   0.0213     H
C       0.9537   0.0785   0.7499     C
C       0.9537   0.9215   0.2501     C
O       0.9548   0.0862   0.1971     O
O       0.9548   0.9138   0.8029     O
C       0.9629   0.1317   0.7694     C
C       0.9629   0.8683   0.2306     C
H        0.963   0.4521   0.3364     H
H        0.963   0.5479   0.6636     H
H       0.9637   0.3444   0.7624     H
H       0.9637   0.6556   0.2376     H
H       0.9674   0.2915    0.892     H
H       0.9674   0.7085    0.108     H
H       0.9695   0.2942   0.2867     H
H       0.9695   0.7058   0.7133     H
O       0.9697   0.3793   0.6947     O
O       0.9697   0.6207   0.3053     O
C       0.9736   0.3733   0.3117     C
C       0.9736   0.6267   0.6883     C
H       0.9787   0.0498   0.7573     H
H       0.9787   0.9502   0.2427     H
O       0.9813   0.1822   0.1694     O
O       0.9813   0.8178   0.8306     O
C       0.9829   0.1304    0.198     C
C       0.9829   0.8696    0.802     C
