data_I
_chemical_name_common  '/home/zhangsd/repos/MofS-CGCNN/ML/data/SSD/clean_cifs/GISNED_clean'
_cell_length_a 26.66900
_cell_length_b 26.66900
_cell_length_c 86.62200
_cell_angle_alpha 90.00000
_cell_angle_beta  90.00000
_cell_angle_gamma 120.00000
_space_group_name_H-M_alt      'P 1'


loop_
_space_group_symop_operation_xyz
  'x, y, z' 

loop_
_atom_site_label
_atom_site_fract_x
_atom_site_fract_y
_atom_site_fract_z
_atom_site_type_symbol
Zn         0.0      0.0  0.13748    Zn
O          0.0      0.0  0.15999     O
O          0.0      0.0  0.34001     O
Zn         0.0      0.0  0.36252    Zn
Zn         0.0      0.0  0.63748    Zn
O          0.0      0.0  0.65999     O
O          0.0      0.0  0.84001     O
Zn         0.0      0.0  0.86252    Zn
C          0.0  0.31096     0.75     C
C          0.0  0.68904     0.25     C
O      0.00133    0.068  0.12904     O
O      0.00133  0.93334  0.62904     O
C      0.00185  0.15359  0.38888     C
C      0.00185  0.84825  0.88888     C
C      0.00235  0.19741  0.39758     C
C      0.00235  0.80493  0.89758     C
H      0.00273  0.27247  0.07917     H
H      0.00273  0.73027  0.57917     H
Zn     0.00827  0.07242   0.1673    Zn
Zn     0.00827  0.93585   0.6673    Zn
C       0.0123  0.11076  0.81455     C
C       0.0123  0.90153  0.31455     C
H      0.01237  0.12853  0.39333     H
H      0.01237  0.88383  0.89333     H
C      0.01386  0.11404  0.13586     C
C      0.01386  0.89983  0.63586     C
C       0.0144  0.16138  0.12659     C
C       0.0144  0.85303  0.62659     C
H      0.01457  0.20213  0.40783     H
H      0.01457  0.81243  0.90783     H
C      0.01492  0.24897  0.10859     C
C      0.01492  0.76596  0.60859     C
O      0.01592  0.29374  0.10127     O
O      0.01592  0.72219  0.60127     O
C      0.01678  0.29739  0.41258     C
C      0.01678  0.71938  0.91258     C
C      0.01699  0.15305  0.80286     C
C      0.01699  0.86393  0.30286     C
H      0.01757  0.38313  0.39443     H
H      0.01757  0.63443  0.89443     H
C      0.01862  0.28784  0.73611     C
C      0.01862  0.73079  0.23611     C
O      0.01989  0.12334  0.15033     O
O      0.01989  0.89656  0.65033     O
C      0.02237  0.22793  0.78009     C
C      0.02237  0.35571  0.41667     C
C      0.02237  0.66667  0.91667     C
C      0.02237  0.79443  0.28009     C
C      0.02908  0.22155  0.71317     C
C      0.02908  0.80754  0.21317     C
O      0.03082  0.26638  0.76856     O
O      0.03082  0.76443  0.26856     O
H       0.0317   0.4198   0.0778     H
H       0.0317   0.6119   0.5778     H
C      0.03206  0.21467  0.13256     C
C      0.03206   0.8174  0.63256     C
H      0.03223  0.31577  0.72777     H
H      0.03223  0.71647  0.22777     H
C       0.0328  0.18777  0.70174     C
C       0.0328  0.84504  0.20174     C
C      0.03433  0.25854  0.12393     C
C      0.03433   0.7758  0.62393     C
C      0.03594  0.38605  0.07925     C
C      0.03594  0.64989  0.57925     C
O      0.03704  0.11421  0.67989     O
O      0.03704  0.92284  0.17989     O
H      0.03817  0.42043  0.79493     H
H      0.03817  0.61773  0.29493     H
O       0.0396  0.38885  0.76793     O
O       0.0396  0.65074  0.26793     O
H      0.04303  0.22157  0.14287     H
H      0.04303  0.82147  0.64287     H
C       0.0455  0.39745  0.40277     C
C       0.0455  0.64804  0.90277     C
H      0.04893  0.29517  0.12827     H
H      0.04893  0.75377  0.62827     H
H      0.04963  0.28077  0.73907     H
H      0.04963  0.76887  0.23907     H
H       0.0498   0.3509   0.4389     H
H       0.0498   0.6989   0.9389     H
H      0.05257  0.43553  0.40573     H
H      0.05257  0.61703  0.90573     H
C      0.05272  0.36927  0.75408     C
C      0.05272  0.68344  0.25408     C
O      0.05422  0.11121  0.31857     O
O      0.05422    0.943  0.81857     O
H      0.05477  0.30163  0.41113     H
H      0.05477  0.75313  0.91113     H
O      0.05552  0.37293   0.0654     O
O      0.05552  0.68259   0.5654     O
O        0.057  0.11121  0.81857     O
O        0.057  0.94578  0.31857     O
H      0.06087  0.39693  0.74583     H
H      0.06087  0.66393  0.24583     H
H      0.06203  0.25537  0.71627     H
H      0.06203  0.80667  0.21627     H
H       0.0636   0.3942   0.0875     H
H       0.0636   0.6694   0.5875     H
C      0.06412  0.37883  0.43056     C
C      0.06412  0.68529  0.93056     C
Zn     0.06415  0.07242   0.6673    Zn
Zn     0.06415  0.99173   0.1673    Zn
O      0.06666    0.068  0.62904     O
O      0.06666  0.99867  0.12904     O
O      0.06695   0.4311  0.43523     O
O      0.06695  0.63585  0.93523     O
O        0.068  0.00133  0.37096     O
O        0.068  0.06666  0.87096     O
H      0.06813  0.19897  0.69707     H
H      0.06813  0.86917  0.19707     H
C      0.06938  0.18911  0.79553     C
C      0.06938  0.88026  0.29553     C
C      0.07184   0.2265  0.78434     C
C      0.07184  0.84533  0.28434     C
Zn     0.07242  0.00827   0.3327    Zn
Zn     0.07242  0.06415   0.8327    Zn
C       0.0748  0.44246  0.79059     C
C       0.0748  0.63233  0.29059     C
O      0.07716  0.11421  0.17989     O
O      0.07716  0.96296  0.67989     O
H      0.07797  0.47333  0.38293     H
H      0.07797  0.60463  0.88293     H
H       0.0822   0.5224   0.4462     H
H       0.0822   0.5598   0.9462     H
C      0.08437  0.43262  0.77525     C
C      0.08437  0.65174  0.27525     C
H      0.08537  0.18783  0.29823     H
H      0.08537  0.89753  0.79823     H
H      0.08647  0.36503  0.75553     H
H      0.08647  0.72143  0.25553     H
H       0.0871   0.3715   0.0384     H
H       0.0871   0.7156   0.5384     H
O      0.09777  0.40028   0.3981     O
O      0.09777  0.69748   0.8981     O
C      0.09847  0.11076  0.31455     C
C      0.09847   0.9877  0.81455     C
C      0.09929   0.4177  0.05808     C
C      0.09929  0.68159  0.55808     C
C      0.10017  0.11404  0.63586     C
C      0.10017  0.98614  0.13586     C
H       0.1022   0.3859   0.4276     H
H       0.1022   0.7163   0.9276     H
H      0.10247  0.18783  0.79823     H
H      0.10247  0.91463  0.29823     H
O      0.10344  0.12334  0.65033     O
O      0.10344  0.98011  0.15033     O
C       0.1054   0.4611  0.44676     C
C       0.1054   0.6443  0.94676     C
C      0.10683    0.512  0.45101     C
C      0.10683  0.59483  0.95101     C
H      0.10687  0.25113  0.77953     H
H      0.10687  0.85573  0.27953     H
C      0.10913  0.40813  0.04274     C
C      0.10913    0.701  0.54274     C
C      0.11076   0.0123  0.68545     C
C      0.11076  0.09847  0.18545     C
O      0.11121  0.05422  0.18143     O
O      0.11121    0.057  0.68143     O
H      0.11177  0.48813  0.80953     H
H      0.11177  0.62363  0.30953     H
C      0.11179   0.4742  0.37983     C
C      0.11179  0.63758  0.87983     C
C      0.11404  0.01386  0.36414     C
C      0.11404  0.10017  0.86414     C
O      0.11421  0.03704  0.82011     O
O      0.11421  0.07716  0.32011     O
H      0.11617  0.12853  0.89333     H
H      0.11617  0.98763  0.39333     H
C      0.11867  0.48406  0.79922     C
C      0.11867   0.6346  0.29922     C
C      0.11974  0.18911  0.29553     C
C      0.11974  0.93062  0.79553     C
O      0.12334  0.01989  0.34967     O
O      0.12334  0.10344  0.84967     O
C      0.12777  0.43873  0.38657     C
C      0.12777  0.68903  0.88657     C
H      0.12853  0.01237  0.10667     H
H      0.12853  0.11617  0.60667     H
H      0.13083  0.19897  0.19707     H
H      0.13083  0.93187  0.69707     H
H       0.1312   0.4791   0.0745     H
H       0.1312   0.6521   0.5745     H
H      0.13437  0.53583  0.36373     H
H      0.13437  0.59853  0.86373     H
C      0.13592   0.4716  0.06425     C
C      0.13592  0.66432  0.56425     C
C      0.13607  0.15305  0.30286     C
C      0.13607  0.98301  0.80286     C
C      0.13827  0.46925  0.76908     C
C      0.13827  0.66901  0.26908     C
H         0.14   0.4113   0.4504     H
H         0.14   0.7287   0.9504     H
C      0.14087  0.44512   0.4535     C
C      0.14087  0.69575   0.9535     C
C      0.14422  0.54693   0.4622     C
C      0.14422  0.59729   0.9622     C
H      0.14427  0.25113  0.27953     H
H      0.14427  0.89313  0.77953     H
H       0.1455   0.5642   0.9649     H
H       0.1455   0.5813   0.4649     H
C      0.14557   0.5117   0.3684     C
C      0.14557  0.63386   0.8684     C
H      0.14577  0.46453  0.75883     H
H      0.14577  0.68123  0.25883     H
C      0.14697  0.16138  0.62659     C
C      0.14697   0.9856  0.12659     C
C      0.15073    0.452  0.03411     C
C      0.15073  0.69873  0.53411     C
C      0.15175  0.15359  0.88888     C
C      0.15175  0.99815  0.38888     C
C      0.15305  0.01699  0.69714     C
C      0.15305  0.13607  0.19714     C
C      0.15359  0.00185  0.11112     C
C      0.15359  0.15175  0.61112     C
C      0.15467   0.2265  0.28434     C
C      0.15467  0.92816  0.78434     C
H       0.1548   0.4451   0.0238     H
H       0.1548   0.7097   0.5238     H
C      0.15496  0.18777  0.20174     C
C      0.15496   0.9672  0.70174     C
C      0.16138   0.0144  0.37341     C
C      0.16138  0.14697  0.87341     C
C      0.17196  0.51969  0.79325     C
C      0.17196  0.65226  0.29325     C
C      0.17837   0.4789  0.46493     C
C      0.17837  0.69947  0.96493     C
H      0.17853  0.22157  0.64287     H
H      0.17853  0.95697  0.14287     H
C      0.17867  0.44016  0.38232     C
C      0.17867   0.7385  0.88232     C
C      0.17974  0.51492  0.05555     C
C      0.17974  0.66482  0.55555     C
C      0.18028   0.5306  0.46953     C
C      0.18028  0.64968  0.96953     C
C      0.18159  0.51307  0.77778     C
C      0.18159  0.66851  0.27778     C
C       0.1826  0.21467  0.63256     C
C       0.1826  0.96794  0.13256     C
C      0.18636  0.50529  0.04008     C
C      0.18636  0.68107  0.54008     C
H      0.18757  0.20213  0.90783     H
H      0.18757  0.98543  0.40783     H
C      0.18777   0.0328  0.79826     C
C      0.18777  0.15496  0.29826     C
H      0.18783  0.08537  0.20177     H
H      0.18783  0.10247  0.70177     H
H      0.18907  0.41553  0.38713     H
H      0.18907  0.77353  0.88713     H
C      0.18911  0.06938  0.70447     C
C      0.18911  0.11974  0.20447     C
C      0.19246  0.22155  0.21317     C
C      0.19246  0.97092  0.71317     C
H      0.19333  0.25537  0.21627     H
H      0.19333  0.93797  0.71627     H
C      0.19507  0.19741  0.89758     C
C      0.19507  0.99765  0.39758     C
C      0.19727  0.51361   0.3638     C
C      0.19727  0.68365   0.8638     C
C      0.19741  0.00235  0.10242     C
C      0.19741  0.19507  0.60242     C
H      0.19897  0.06813  0.80293     H
H      0.19897  0.13083  0.30293     H
H      0.20213  0.01457  0.09217     H
H      0.20213  0.18757  0.59217     H
H       0.2025   0.4677   0.4696     H
H       0.2025   0.7348   0.9696     H
H       0.2048   0.5505     0.06     H
H       0.2048   0.6543     0.56     H
C      0.20557  0.22793  0.28009     C
C      0.20557  0.97763  0.78009     C
O         0.21  0.56322  0.81699     O
O         0.21  0.64677  0.31699     O
C       0.2136  0.47755  0.37113     C
C       0.2136  0.73604  0.87113     C
C      0.21467  0.03206  0.36744     C
C      0.21467   0.1826  0.86744     C
H      0.21717  0.53813  0.77333     H
H      0.21717  0.67903  0.27333     H
O      0.21913   0.5895  0.34655     O
O      0.21913  0.62962  0.84655     O
C       0.2193  0.56649  0.80252     C
C       0.2193   0.6528  0.30252     C
C      0.22155  0.02908  0.78683     C
C      0.22155  0.19246  0.28683     C
H      0.22157  0.04303  0.35713     H
H      0.22157  0.17853  0.85713     H
O      0.22212  0.60967  0.98524     O
O      0.22212  0.61245  0.48524     O
C      0.22257   0.5682  0.48122     C
C      0.22257  0.65437  0.98122     C
C       0.2242  0.25854  0.62393     C
C       0.2242  0.96567  0.12393     C
H      0.22647  0.41553  0.88713     H
H      0.22647  0.81093  0.38713     H
C       0.2265  0.07184  0.71566     C
C       0.2265  0.15467  0.21566     C
C      0.22793  0.02237  0.71991     C
C      0.22793  0.20557  0.21991     C
O      0.22989  0.54333  0.01634     O
O      0.22989  0.68656  0.51634     O
H      0.23087  0.47883  0.86843     H
H      0.23087  0.75203  0.36843     H
H      0.23113  0.28077  0.23907     H
H      0.23113  0.95037  0.73907     H
C      0.23316  0.55263  0.03081     C
C      0.23316  0.68053  0.53081     C
C      0.23404  0.24897  0.60859     C
C      0.23404  0.98508  0.10859     C
C      0.23487   0.5559  0.35211     C
C      0.23487  0.67896  0.85211     C
O      0.23557  0.26638  0.26856     O
O      0.23557  0.96918  0.76856     O
H      0.24623  0.29517  0.62827     H
H      0.24623  0.95107  0.12827     H
H      0.24687  0.30163  0.91113     H
H      0.24687  0.94523  0.41113     H
H      0.24797  0.47883  0.36843     H
H      0.24797  0.76913  0.86843     H
C      0.24897  0.01492  0.39141     C
C      0.24897  0.23404  0.89141     C
H      0.25113  0.10687  0.72047     H
H      0.25113  0.14427  0.22047     H
H      0.25537  0.06203  0.78373     H
H      0.25537  0.19333  0.28373     H
O      0.25617  0.55246  0.48678     O
O      0.25617  0.70371  0.98678     O
C      0.25854  0.03433  0.37607     C
C      0.25854   0.2242  0.87607     C
Zn     0.26091  0.60252  0.83397    Zn
Zn     0.26091   0.6584  0.33397    Zn
C       0.2615  0.44016  0.88232     C
C       0.2615  0.82133  0.38232     C
C      0.26396  0.47755  0.87113     C
C      0.26396   0.7864  0.37113     C
H       0.2652   0.4677   0.9696     H
H       0.2652   0.7975   0.4696     H
O      0.26534      0.6   0.7957     O
O      0.26534  0.66533   0.2957     O
O      0.26638  0.03082  0.73144     O
O      0.26638  0.23557  0.23144     O
O      0.26667  0.59867  0.03763     O
O      0.26667    0.668  0.53763     O
Zn     0.26918  0.59425  0.99937    Zn
Zn     0.26918  0.67494  0.49937    Zn
C      0.26921  0.28784  0.23611     C
C      0.26921  0.98138  0.73611     C
H      0.26973  0.27247  0.57917     H
H      0.26973  0.99727  0.07917     H
H       0.2713   0.4113   0.9504     H
H       0.2713     0.86   0.4504     H
H      0.27247  0.00273  0.42083     H
H      0.27247  0.26973  0.92083     H
O      0.27634  0.55545  0.84809     O
O      0.27634  0.72088  0.34809     O
O      0.27781  0.29374  0.60127     O
O      0.27781  0.98408  0.10127     O
H      0.27857  0.36503  0.25553     H
H      0.27857  0.91353  0.75553     H
O      0.27912  0.55545  0.34809     O
O      0.27912  0.72366  0.84809     O
C      0.28062  0.29739  0.91258     C
C      0.28062  0.98322  0.41258     C
H      0.28077  0.04963  0.76093     H
H      0.28077  0.23113  0.26093     H
H      0.28353  0.31577  0.22777     H
H      0.28353  0.96777  0.72777     H
H       0.2837   0.3859   0.9276     H
H       0.2837   0.8978   0.4276     H
H       0.2844   0.3715   0.5384     H
H       0.2844   0.9129   0.0384     H
C      0.28784  0.01862  0.76389     C
C      0.28784  0.26921  0.26389     C
H       0.2903   0.4451   0.5238     H
H       0.2903   0.8452   0.0238     H
O      0.29374  0.01592  0.39873     O
O      0.29374  0.27781  0.89873     O
H      0.29517  0.04893  0.37173     H
H      0.29517  0.24623  0.87173     H
O      0.29629  0.55246  0.98678     O
O      0.29629  0.74383  0.48678     O
C      0.29739  0.01678  0.08742     C
C      0.29739  0.28062  0.58742     C
C        0.299  0.40813  0.54274     C
C        0.299  0.89087  0.04274     C
C      0.30053   0.4789  0.96493     C
C      0.30053  0.82163  0.46493     C
H       0.3011   0.3509   0.9389     H
H       0.3011   0.9502   0.4389     H
C      0.30127    0.452  0.53411     C
C      0.30127  0.84927  0.03411     C
H      0.30163  0.05477  0.08887     H
H      0.30163  0.24687  0.58887     H
O      0.30252  0.40028   0.8981     O
O      0.30252  0.90223   0.3981     O
C      0.30425  0.44512   0.9535     C
C      0.30425  0.85913   0.4535     C
C      0.31096      0.0     0.75     C
C      0.31096  0.31096     0.25     C
C      0.31097  0.43873  0.88657     C
C      0.31097  0.87223  0.38657     C
O      0.31344  0.54333  0.51634     O
O      0.31344  0.77011  0.01634     O
C      0.31471  0.37883  0.93056     C
C      0.31471  0.93588  0.43056     C
H      0.31577  0.03223  0.77223     H
H      0.31577  0.28353  0.27223     H
C      0.31635  0.51361   0.8638     C
C      0.31635  0.80273   0.3638     C
C      0.31656  0.36927  0.25408     C
C      0.31656  0.94728  0.75408     C
O      0.31741  0.37293   0.5654     O
O      0.31741  0.94448   0.0654     O
C      0.31841   0.4177  0.55808     C
C      0.31841  0.90071  0.05808     C
H      0.31877  0.46453  0.25883     H
H      0.31877  0.85423  0.75883     H
C      0.31893  0.50529  0.54008     C
C      0.31893  0.81364  0.04008     C
C      0.31947  0.55263  0.53081     C
C      0.31947  0.76684  0.03081     C
H      0.32097  0.53813  0.27333     H
H      0.32097  0.78283  0.77333     H
C      0.32104   0.5559  0.85211     C
C      0.32104  0.76513  0.35211     C
Zn     0.32506  0.59425  0.49937    Zn
Zn     0.32506  0.73082  0.99937    Zn
H       0.3306   0.3942   0.5875     H
H       0.3306   0.9364   0.0875     H
C      0.33099  0.46925  0.26908     C
C      0.33099  0.86173  0.76908     C
C      0.33149  0.51307  0.27778     C
C      0.33149  0.81841  0.77778     C
O        0.332  0.59867  0.53763     O
O        0.332  0.73333  0.03763     O
C      0.33333  0.35571  0.91667     C
O      0.33333  0.66667  0.00668     O
Zn     0.33333  0.66667  0.02919    Zn
Zn     0.33333  0.66667  0.30415    Zn
O      0.33333  0.66667  0.32665     O
O      0.33333  0.66667  0.50668     O
Zn     0.33333  0.66667  0.52919    Zn
Zn     0.33333  0.66667  0.80415    Zn
O      0.33333  0.66667  0.82665     O
C      0.33333  0.97763  0.41667     C
O      0.33467      0.6   0.2957     O
O      0.33467  0.73466   0.7957     O
C      0.33518  0.51492  0.55555     C
C      0.33518  0.82026  0.05555     C
C      0.33568   0.4716  0.56425     C
C      0.33568  0.86408  0.06425     C
H      0.33607  0.39693  0.24583     H
H      0.33607  0.93913  0.74583     H
Zn      0.3416  0.60252  0.33397    Zn
Zn      0.3416  0.73909  0.83397    Zn
C      0.34563   0.5682  0.98122     C
C      0.34563  0.77743  0.48122     C
H       0.3457   0.5505     0.56     H
H       0.3457   0.7952     0.06     H
C       0.3472  0.56649  0.30252     C
C       0.3472   0.7807  0.80252     C
C      0.34774  0.51969  0.29325     C
C      0.34774  0.82804  0.79325     C
H       0.3479   0.4791   0.5745     H
H       0.3479   0.8688   0.0745     H
C      0.34826  0.43262  0.27525     C
C      0.34826  0.91563  0.77525     C
O      0.34926  0.38885  0.26793     O
O      0.34926   0.9604  0.76793     O
C      0.35011  0.38605  0.57925     C
C      0.35011  0.96406  0.07925     C
C      0.35032   0.5306  0.96953     C
C      0.35032  0.81972  0.46953     C
H       0.3509   0.0498   0.0611     H
H       0.3509   0.3011   0.5611     H
C      0.35196  0.39745  0.90277     C
C      0.35196   0.9545  0.40277     C
O      0.35323  0.56322  0.31699     O
O      0.35323     0.79  0.81699     O
C       0.3557   0.4611  0.94676     C
C       0.3557   0.8946  0.44676     C
C      0.35571  0.02237  0.08333     C
C      0.35571  0.33333  0.58333     C
C      0.36242   0.4742  0.87983     C
C      0.36242  0.88821  0.37983     C
O      0.36415   0.4311  0.93523     O
O      0.36415  0.93305  0.43523     O
H      0.36503  0.08647  0.74447     H
H      0.36503  0.27857  0.24447     H
C       0.3654  0.48406  0.29922     C
C       0.3654  0.88133  0.79922     C
H      0.36557  0.38313  0.89443     H
H      0.36557  0.98243  0.39443     H
C      0.36614   0.5117   0.8684     C
C      0.36614  0.85443   0.3684     C
C      0.36767  0.44246  0.29059     C
C      0.36767   0.9252  0.79059     C
C      0.36927  0.05272  0.74592     C
C      0.36927  0.31656  0.24592     C
O      0.37038   0.5895  0.84655     O
O      0.37038  0.78087  0.34655     O
H       0.3715   0.0871   0.4616     H
H       0.3715   0.2844   0.9616     H
O      0.37293  0.05552   0.4346     O
O      0.37293  0.31741   0.9346     O
H      0.37637  0.48813  0.30953     H
H      0.37637  0.88823  0.80953     H
C      0.37883  0.06412  0.06944     C
C      0.37883  0.31471  0.56944     C
H      0.38227  0.42043  0.29493     H
H      0.38227  0.96183  0.79493     H
H      0.38297  0.43553  0.90573     H
H      0.38297  0.94743  0.40573     H
H      0.38313  0.01757  0.10557     H
H      0.38313  0.36557  0.60557     H
H       0.3859   0.1022   0.0724     H
H       0.3859   0.2837   0.5724     H
C      0.38605  0.03594  0.42075     C
C      0.38605  0.35011  0.92075     C
O      0.38755  0.60967  0.48524     O
O      0.38755  0.77788  0.98524     O
H       0.3881   0.4198   0.5778     H
H       0.3881   0.9683   0.0778     H
O      0.38885   0.0396  0.73207     O
O      0.38885  0.34926  0.23207     O
O      0.39033  0.61245  0.98524     O
O      0.39033  0.77788  0.48524     O
H       0.3942   0.0636   0.4125     H
H       0.3942   0.3306   0.9125     H
H      0.39537  0.47333  0.88293     H
H      0.39537  0.92203  0.38293     H
H      0.39693  0.06087  0.75417     H
H      0.39693  0.33607  0.25417     H
C      0.39745   0.0455  0.09723     C
C      0.39745  0.35196  0.59723     C
Zn     0.39748   0.6584  0.83397    Zn
Zn     0.39748  0.73909  0.33397    Zn
O          0.4  0.66533   0.7957     O
O          0.4  0.73466   0.2957     O
O      0.40028  0.09777   0.1019     O
O      0.40028  0.30252   0.6019     O
O      0.40133    0.668  0.03763     O
O      0.40133  0.73333  0.53763     O
H      0.40147  0.53583  0.86373     H
H      0.40147  0.86563  0.36373     H
C      0.40271  0.54693   0.9622     C
C      0.40271  0.85578   0.4622     C
C      0.40517    0.512  0.95101     C
C      0.40517  0.89317  0.45101     C
Zn     0.40575  0.67494  0.99937    Zn
Zn     0.40575  0.73082  0.49937    Zn
C      0.40813  0.10913  0.45726     C
C      0.40813    0.299  0.95726     C
O       0.4105  0.62962  0.34655     O
O       0.4105  0.78087  0.84655     O
H       0.4113     0.14   0.0496     H
H       0.4113   0.2713   0.5496     H
H      0.41553  0.18907  0.11287     H
H      0.41553  0.22647  0.61287     H
C       0.4177  0.09929  0.44192     C
C       0.4177  0.31841  0.94192     C
H       0.4187   0.5642   0.4649     H
H       0.4187   0.8545   0.9649     H
H       0.4198   0.0317   0.4222     H
H       0.4198   0.3881   0.9222     H
H      0.42043  0.03817  0.70507     H
H      0.42043  0.38227  0.20507     H
O       0.4311  0.06695  0.06477     O
O       0.4311  0.36415  0.56477     O
C       0.4318  0.65437  0.48122     C
C       0.4318  0.77743  0.98122     C
C      0.43262  0.08437  0.72475     C
C      0.43262  0.34826  0.22475     C
C      0.43351   0.6528  0.80252     C
C      0.43351   0.7807  0.30252     C
H      0.43553  0.05257  0.09427     H
H      0.43553  0.38297  0.59427     H
H       0.4358   0.5813   0.9649     H
H       0.4358   0.8545   0.4649     H
O      0.43678  0.64677  0.81699     O
O      0.43678     0.79  0.31699     O
C      0.43873  0.12777  0.11343     C
C      0.43873  0.31097  0.61343     C
C      0.44016  0.17867  0.11768     C
C      0.44016   0.2615  0.61768     C
H       0.4402   0.5224   0.9462     H
H       0.4402   0.9178   0.4462     H
C      0.44246   0.0748  0.70941     C
C      0.44246  0.36767  0.20941     C
C       0.4441  0.67896  0.35211     C
C       0.4441  0.76513  0.85211     C
O      0.44455  0.72088  0.84809     O
O      0.44455  0.72366  0.34809     O
H       0.4451   0.1548   0.4762     H
H       0.4451   0.2903   0.9762     H
C      0.44512  0.14087   0.0465     C
C      0.44512  0.30425   0.5465     C
C      0.44737  0.68053  0.03081     C
C      0.44737  0.76684  0.53081     C
O      0.44754  0.70371  0.48678     O
O      0.44754  0.74383  0.98678     O
H       0.4495   0.6543     0.06     H
H       0.4495   0.7952     0.56     H
C        0.452  0.15073  0.46589     C
C        0.452  0.30127  0.96589     C
C      0.45307  0.59729   0.4622     C
C      0.45307  0.85578   0.9622     C
O      0.45667  0.68656  0.01634     O
O      0.45667  0.77011  0.51634     O
C       0.4611   0.1054  0.05324     C
C       0.4611   0.3557  0.55324     C
H      0.46187  0.67903  0.77333     H
H      0.46187  0.78283  0.27333     H
H      0.46417  0.59853  0.36373     H
H      0.46417  0.86563  0.86373     H
H      0.46453  0.14577  0.74117     H
H      0.46453  0.31877  0.24117     H
H       0.4677   0.2025   0.0304     H
H       0.4677   0.2652   0.5304     H
C      0.46925  0.13827  0.73092     C
C      0.46925  0.33099  0.23092     C
C       0.4694  0.64968  0.46953     C
C       0.4694  0.81972  0.96953     C
C       0.4716  0.13592  0.43575     C
C       0.4716  0.33568  0.93575     C
H      0.47333  0.07797  0.11707     H
H      0.47333  0.39537  0.61707     H
C       0.4742  0.11179  0.12017     C
C       0.4742  0.36242  0.62017     C
C      0.47755   0.2136  0.12887     C
C      0.47755  0.26396  0.62887     C
H       0.4776   0.5598   0.4462     H
H       0.4776   0.9178   0.9462     H
H      0.47883  0.23087  0.63157     H
H      0.47883  0.24797  0.13157     H
C       0.4789  0.17837  0.03507     C
C       0.4789  0.30053  0.53507     C
H       0.4791   0.1312   0.4255     H
H       0.4791   0.3479   0.9255     H
C      0.48031  0.65226  0.79325     C
C      0.48031  0.82804  0.29325     C
C      0.48406  0.11867  0.70078     C
C      0.48406   0.3654  0.20078     C
C      0.48508  0.66482  0.05555     C
C      0.48508  0.82026  0.55555     C
C      0.48639  0.68365   0.3638     C
C      0.48639  0.80273   0.8638     C
C      0.48693  0.66851  0.77778     C
C      0.48693  0.81841  0.27778     C
C        0.488  0.59483  0.45101     C
C        0.488  0.89317  0.95101     C
H      0.48813  0.11177  0.69047     H
H      0.48813  0.37637  0.19047     H
C       0.4883  0.63386   0.3684     C
C       0.4883  0.85443   0.8684     C
C      0.49471  0.68107  0.04008     C
C      0.49471  0.81364  0.54008     C
C      0.50529  0.18636  0.45992     C
C      0.50529  0.31893  0.95992     C
C       0.5117  0.14557   0.1316     C
C       0.5117  0.36614   0.6316     C
H      0.51187  0.62363  0.80953     H
H      0.51187  0.88823  0.30953     H
C        0.512  0.10683  0.04899     C
C        0.512  0.40517  0.54899     C
C      0.51307  0.18159  0.72222     C
C      0.51307  0.33149  0.22222     C
C      0.51361  0.19727   0.1362     C
C      0.51361  0.31635   0.6362     C
C      0.51492  0.17974  0.44445     C
C      0.51492  0.33518  0.94445     C
C      0.51594   0.6346  0.79922     C
C      0.51594  0.88133  0.29922     C
C      0.51969  0.17196  0.70675     C
C      0.51969  0.34774  0.20675     C
H       0.5209   0.6521   0.0745     H
H       0.5209   0.8688   0.5745     H
C       0.5211  0.69947  0.46493     C
C       0.5211  0.82163  0.96493     C
H      0.52117  0.75203  0.86843     H
H      0.52117  0.76913  0.36843     H
H       0.5224   0.0822   0.0538     H
H       0.5224   0.4402   0.5538     H
C      0.52245  0.73604  0.37113     C
C      0.52245   0.7864  0.87113     C
C       0.5258  0.63758  0.37983     C
C       0.5258  0.88821  0.87983     C
H      0.52667  0.60463  0.38293     H
H      0.52667  0.92203  0.88293     H
C       0.5284  0.66432  0.06425     C
C       0.5284  0.86408  0.56425     C
C       0.5306  0.18028  0.03047     C
C       0.5306  0.35032  0.53047     C
C      0.53075  0.66901  0.76908     C
C      0.53075  0.86173  0.26908     C
H       0.5323   0.7348   0.4696     H
H       0.5323   0.7975   0.9696     H
H      0.53547  0.68123  0.75883     H
H      0.53547  0.85423  0.25883     H
H      0.53583  0.13437  0.13627     H
H      0.53583  0.40147  0.63627     H
H      0.53813  0.21717  0.72667     H
H      0.53813  0.32097  0.22667     H
C       0.5389   0.6443  0.44676     C
C       0.5389   0.8946  0.94676     C
O      0.54333  0.22989  0.48366     O
O      0.54333  0.31344  0.98366     O
C      0.54693  0.14422   0.0378     C
C      0.54693  0.40271   0.5378     C
C        0.548  0.69873  0.03411     C
C        0.548  0.84927  0.53411     C
H       0.5505   0.2048     0.44     H
H       0.5505   0.3457     0.94     H
O      0.55246  0.25617  0.01322     O
O      0.55246  0.29629  0.51322     O
C      0.55263  0.23316  0.46919     C
C      0.55263  0.31947  0.96919     C
C      0.55488  0.69575   0.4535     C
C      0.55488  0.85913   0.9535     C
H       0.5549   0.7097   0.0238     H
H       0.5549   0.8452   0.5238     H
O      0.55545  0.27634  0.65191     O
O      0.55545  0.27912  0.15191     O
C       0.5559  0.23487  0.14789     C
C       0.5559  0.32104  0.64789     C
C      0.55754  0.63233  0.79059     C
C      0.55754   0.9252  0.29059     C
H       0.5598   0.0822   0.5538     H
H       0.5598   0.4776   0.0538     H
C      0.55984   0.7385  0.38232     C
C      0.55984  0.82133  0.88232     C
C      0.56127  0.68903  0.38657     C
C      0.56127  0.87223  0.88657     C
O      0.56322     0.21  0.68301     O
O      0.56322  0.35323  0.18301     O
H       0.5642   0.1455   0.5351     H
H       0.5642   0.4187   0.0351     H
H      0.56447  0.61703  0.40573     H
H      0.56447  0.94743  0.90573     H
C      0.56649   0.2193  0.69748     C
C      0.56649   0.3472  0.19748     C
C      0.56738  0.65174  0.77525     C
C      0.56738  0.91563  0.27525     C
C       0.5682  0.22257  0.01878     C
C       0.5682  0.34563  0.51878     C
O       0.5689  0.63585  0.43523     O
O       0.5689  0.93305  0.93523     O
H      0.57957  0.61773  0.79493     H
H      0.57957  0.96183  0.29493     H
H       0.5802   0.6119   0.0778     H
H       0.5802   0.9683   0.5778     H
H       0.5813   0.1455   0.0351     H
H       0.5813   0.4358   0.5351     H
C       0.5823  0.68159  0.05808     C
C       0.5823  0.90071  0.55808     C
H      0.58447  0.77353  0.38713     H
H      0.58447  0.81093  0.88713     H
H       0.5887   0.7287   0.4504     H
H       0.5887     0.86   0.9504     H
O       0.5895  0.21913  0.15345     O
O       0.5895  0.37038  0.65345     O
C      0.59187    0.701  0.04274     C
C      0.59187  0.89087  0.54274     C
Zn     0.59425  0.26918  0.50063    Zn
Zn     0.59425  0.32506  0.00063    Zn
C      0.59483  0.10683  0.54899     C
C      0.59483    0.488  0.04899     C
C      0.59729  0.14422   0.5378     C
C      0.59729  0.45307   0.0378     C
H      0.59853  0.13437  0.63627     H
H      0.59853  0.46417  0.13627     H
O      0.59867  0.26667  0.46237     O
O      0.59867    0.332  0.96237     O
O      0.59972  0.69748   0.3981     O
O      0.59972  0.90223   0.8981     O
O          0.6  0.26534   0.7043     O
O          0.6  0.33467   0.2043     O
Zn     0.60252  0.26091  0.66603    Zn
Zn     0.60252   0.3416  0.16603    Zn
C      0.60255  0.64804  0.40277     C
C      0.60255   0.9545  0.90277     C
H      0.60307  0.66393  0.74583     H
H      0.60307  0.93913  0.24583     H
H      0.60463  0.07797  0.61707     H
H      0.60463  0.52667  0.11707     H
H       0.6058   0.6694   0.0875     H
H       0.6058   0.9364   0.5875     H
O      0.60967  0.22212  0.51476     O
O      0.60967  0.38755  0.01476     O
O      0.61115  0.65074  0.76793     O
O      0.61115   0.9604  0.26793     O
H       0.6119   0.0317   0.9222     H
H       0.6119   0.5802   0.4222     H
O      0.61245  0.22212  0.01476     O
O      0.61245  0.39033  0.51476     O
C      0.61395  0.64989  0.07925     C
C      0.61395  0.96406  0.57925     C
H       0.6141   0.7163   0.4276     H
H       0.6141   0.8978   0.9276     H
H      0.61687  0.63443  0.39443     H
H      0.61687  0.98243  0.89443     H
H      0.61703  0.05257  0.59427     H
H      0.61703  0.56447  0.09427     H
H      0.61773  0.03817  0.20507     H
H      0.61773  0.57957  0.70507     H
C      0.62117  0.68529  0.43056     C
C      0.62117  0.93588  0.93056     C
H      0.62363  0.11177  0.19047     H
H      0.62363  0.51187  0.69047     H
O      0.62707  0.68259   0.0654     O
O      0.62707  0.94448   0.5654     O
H       0.6285   0.7156   0.0384     H
H       0.6285   0.9129   0.5384     H
O      0.62962  0.21913  0.65345     O
O      0.62962   0.4105  0.15345     O
C      0.63073  0.68344  0.75408     C
C      0.63073  0.94728  0.25408     C
C      0.63233   0.0748  0.20941     C
C      0.63233  0.55754  0.70941     C
C      0.63386  0.14557   0.6316     C
C      0.63386   0.4883   0.1316     C
H      0.63443  0.01757  0.60557     H
H      0.63443  0.61687  0.10557     H
C       0.6346  0.11867  0.20078     C
C       0.6346  0.51594  0.70078     C
H      0.63497  0.72143  0.75553     H
H      0.63497  0.91353  0.25553     H
O      0.63585  0.06695  0.56477     O
O      0.63585   0.5689  0.06477     O
C      0.63758  0.11179  0.62017     C
C      0.63758   0.5258  0.12017     C
C      0.64429  0.66667  0.41667     C
C      0.64429  0.97763  0.91667     C
C       0.6443   0.1054  0.55324     C
C       0.6443   0.5389  0.05324     C
O      0.64677     0.21  0.18301     O
O      0.64677  0.43678  0.68301     O
C      0.64804   0.0455  0.59723     C
C      0.64804  0.60255  0.09723     C
H       0.6491   0.6989   0.4389     H
H       0.6491   0.9502   0.9389     H
C      0.64968  0.18028  0.53047     C
C      0.64968   0.4694  0.03047     C
C      0.64989  0.03594  0.92075     C
C      0.64989  0.61395  0.42075     C
O      0.65074   0.0396  0.23207     O
O      0.65074  0.61115  0.73207     O
C      0.65174  0.08437  0.22475     C
C      0.65174  0.56738  0.72475     C
H       0.6521   0.1312   0.9255     H
H       0.6521   0.5209   0.4255     H
C      0.65226  0.17196  0.20675     C
C      0.65226  0.48031  0.70675     C
C       0.6528   0.2193  0.19748     C
C       0.6528  0.43351  0.69748     C
H       0.6543   0.2048     0.94     H
H       0.6543   0.4495     0.44     H
C      0.65437  0.22257  0.51878     C
C      0.65437   0.4318  0.01878     C
Zn      0.6584  0.26091  0.16603    Zn
Zn      0.6584  0.39748  0.66603    Zn
H      0.66393  0.06087  0.25417     H
H      0.66393  0.60307  0.75417     H
C      0.66432  0.13592  0.93575     C
C      0.66432   0.5284  0.43575     C
C      0.66482  0.17974  0.94445     C
C      0.66482  0.48508  0.44445     C
O      0.66533  0.26534   0.2043     O
O      0.66533      0.4   0.7043     O
C      0.66667  0.02237  0.58333     C
O      0.66667  0.33333  0.17335     O
Zn     0.66667  0.33333  0.19585    Zn
Zn     0.66667  0.33333  0.47081    Zn
O      0.66667  0.33333  0.49332     O
O      0.66667  0.33333  0.67335     O
Zn     0.66667  0.33333  0.69585    Zn
Zn     0.66667  0.33333  0.97082    Zn
O      0.66667  0.33333  0.99332     O
C      0.66667  0.64429  0.08333     C
O        0.668  0.26667  0.96237     O
O        0.668  0.40133  0.46237     O
C      0.66851  0.18159  0.22222     C
C      0.66851  0.48693  0.72222     C
C      0.66901  0.13827  0.23092     C
C      0.66901  0.53075  0.73092     C
H       0.6694   0.0636   0.9125     H
H       0.6694   0.6058   0.4125     H
Zn     0.67494  0.26918  0.00063    Zn
Zn     0.67494  0.40575  0.50063    Zn
C      0.67896  0.23487  0.64789     C
C      0.67896   0.4441  0.14789     C
H      0.67903  0.21717  0.22667     H
H      0.67903  0.46187  0.72667     H
C      0.68053  0.23316  0.96919     C
C      0.68053  0.44737  0.46919     C
C      0.68107  0.18636  0.95992     C
C      0.68107  0.49471  0.45992     C
H      0.68123  0.14577  0.24117     H
H      0.68123  0.53547  0.74117     H
C      0.68159  0.09929  0.94192     C
C      0.68159   0.5823  0.44192     C
O      0.68259  0.05552   0.9346     O
O      0.68259  0.62707   0.4346     O
C      0.68344  0.05272  0.24592     C
C      0.68344  0.63073  0.74592     C
C      0.68365  0.19727   0.6362     C
C      0.68365  0.48639   0.1362     C
H      0.68423  0.71647  0.72777     H
H      0.68423  0.96777  0.22777     H
C      0.68529  0.06412  0.56944     C
C      0.68529  0.62117  0.06944     C
O      0.68656  0.22989  0.98366     O
O      0.68656  0.45667  0.48366     O
C      0.68903  0.12777  0.61343     C
C      0.68903  0.56127  0.11343     C
C      0.68904      0.0     0.25     C
C      0.68904  0.68904     0.75     C
C      0.69575  0.14087   0.5465     C
C      0.69575  0.55488   0.0465     C
O      0.69748  0.09777   0.6019     O
O      0.69748  0.59972   0.1019     O
H      0.69837  0.75313  0.41113     H
H      0.69837  0.94523  0.91113     H
C      0.69873  0.15073  0.96589     C
C      0.69873    0.548  0.46589     C
H       0.6989   0.0498   0.5611     H
H       0.6989   0.6491   0.0611     H
C      0.69947  0.17837  0.53507     C
C      0.69947   0.5211  0.03507     C
C        0.701  0.10913  0.95726     C
C        0.701  0.59187  0.45726     C
C      0.70261  0.71938  0.41258     C
C      0.70261  0.98322  0.91258     C
O      0.70371  0.25617  0.51322     O
O      0.70371  0.44754  0.01322     O
H      0.70483  0.75377  0.12827     H
H      0.70483  0.95107  0.62827     H
O      0.70626  0.72219  0.10127     O
O      0.70626  0.98408  0.60127     O
H       0.7097   0.1548   0.9762     H
H       0.7097   0.5549   0.4762     H
C      0.71216  0.73079  0.73611     C
C      0.71216  0.98138  0.23611     C
H       0.7156   0.0871   0.9616     H
H       0.7156   0.6285   0.4616     H
H       0.7163   0.1022   0.5724     H
H       0.7163   0.6141   0.0724     H
H      0.71647  0.03223  0.27223     H
H      0.71647  0.68423  0.77223     H
H      0.71923  0.76887  0.73907     H
H      0.71923  0.95037  0.23907     H
C      0.71938  0.01678  0.58742     C
C      0.71938  0.70261  0.08742     C
O      0.72088  0.27634  0.15191     O
O      0.72088  0.44455  0.65191     O
H      0.72143  0.08647  0.24447     H
H      0.72143  0.63497  0.74447     H
O      0.72219  0.01592  0.89873     O
O      0.72219  0.70626  0.39873     O
O      0.72366  0.27912  0.65191     O
O      0.72366  0.44455  0.15191     O
H      0.72753  0.73027  0.07917     H
H      0.72753  0.99727  0.57917     H
H       0.7287     0.14   0.5496     H
H       0.7287   0.5887   0.0496     H
H      0.73027  0.00273  0.92083     H
H      0.73027  0.72753  0.42083     H
C      0.73079  0.01862  0.26389     C
C      0.73079  0.71216  0.76389     C
Zn     0.73082  0.32506  0.50063    Zn
Zn     0.73082  0.40575  0.00063    Zn
O      0.73333    0.332  0.46237     O
O      0.73333  0.40133  0.96237     O
O      0.73362  0.76443  0.76856     O
O      0.73362  0.96918  0.26856     O
O      0.73466  0.33467   0.7043     O
O      0.73466      0.4   0.2043     O
H       0.7348   0.2025   0.5304     H
H       0.7348   0.5323   0.0304     H
C      0.73604   0.2136  0.62887     C
C      0.73604  0.52245  0.12887     C
C       0.7385  0.17867  0.61768     C
C       0.7385  0.55984  0.11768     C
Zn     0.73909   0.3416  0.66603    Zn
Zn     0.73909  0.39748  0.16603    Zn
C      0.74146   0.7758  0.12393     C
C      0.74146  0.96567  0.62393     C
O      0.74383  0.29629  0.01322     O
O      0.74383  0.44754  0.51322     O
H      0.74463  0.80667  0.71627     H
H      0.74463  0.93797  0.21627     H
H      0.74887  0.85573  0.77953     H
H      0.74887  0.89313  0.27953     H
C      0.75103  0.76596  0.10859     C
C      0.75103  0.98508  0.60859     C
H      0.75203  0.23087  0.13157     H
H      0.75203  0.52117  0.63157     H
H      0.75313  0.05477  0.58887     H
H      0.75313  0.69837  0.08887     H
H      0.75377  0.04893  0.87173     H
H      0.75377  0.70483  0.37173     H
O      0.76443  0.03082  0.23144     O
O      0.76443  0.73362  0.73144     O
C      0.76513  0.32104  0.14789     C
C      0.76513   0.4441  0.64789     C
C      0.76596  0.01492  0.89141     C
C      0.76596  0.75103  0.39141     C
C      0.76684  0.31947  0.46919     C
C      0.76684  0.44737  0.96919     C
H      0.76887  0.04963  0.26093     H
H      0.76887  0.71923  0.76093     H
H      0.76913  0.24797  0.63157     H
H      0.76913  0.52117  0.13157     H
O      0.77011  0.31344  0.48366     O
O      0.77011  0.45667  0.98366     O
C      0.77207  0.79443  0.78009     C
C      0.77207  0.97763  0.28009     C
C       0.7735  0.84533  0.78434     C
C       0.7735  0.92816  0.28434     C
H      0.77353  0.18907  0.61287     H
H      0.77353  0.58447  0.11287     H
C       0.7758  0.03433  0.87607     C
C       0.7758  0.74146  0.37607     C
C      0.77743  0.34563  0.01878     C
C      0.77743   0.4318  0.51878     C
O      0.77788  0.38755  0.51476     O
O      0.77788  0.39033  0.01476     O
H      0.77843  0.82147  0.14287     H
H      0.77843  0.95697  0.64287     H
C      0.77845  0.80754  0.71317     C
C      0.77845  0.97092  0.21317     C
C       0.7807   0.3472  0.69748     C
C       0.7807  0.43351  0.19748     C
O      0.78087  0.37038  0.15345     O
O      0.78087   0.4105  0.65345     O
H      0.78283  0.32097  0.72667     H
H      0.78283  0.46187  0.22667     H
C      0.78533   0.8174  0.13256     C
C      0.78533  0.96794  0.63256     C
C       0.7864  0.26396  0.12887     C
C       0.7864  0.52245  0.62887     C
O         0.79  0.35323  0.68301     O
O         0.79  0.43678  0.18301     O
C      0.79443  0.02237  0.21991     C
C      0.79443  0.77207  0.71991     C
H       0.7952   0.3457     0.44     H
H       0.7952   0.4495     0.94     H
H       0.7975   0.2652   0.0304     H
H       0.7975   0.5323   0.5304     H
H      0.79787  0.81243  0.40783     H
H      0.79787  0.98543  0.90783     H
H      0.80103  0.86917  0.69707     H
H      0.80103  0.93187  0.19707     H
C      0.80259  0.80493  0.39758     C
C      0.80259  0.99765  0.89758     C
C      0.80273  0.31635   0.1362     C
C      0.80273  0.48639   0.6362     C
C      0.80493  0.00235  0.60242     C
C      0.80493  0.80259  0.10242     C
H      0.80667  0.06203  0.28373     H
H      0.80667  0.74463  0.78373     H
C      0.80754  0.02908  0.28683     C
C      0.80754  0.77845  0.78683     C
C      0.81089  0.88026  0.79553     C
C      0.81089  0.93062  0.29553     C
H      0.81093  0.22647  0.11287     H
H      0.81093  0.58447  0.61287     H
H      0.81217  0.89753  0.29823     H
H      0.81217  0.91463  0.79823     H
C      0.81223  0.84504  0.70174     C
C      0.81223   0.9672  0.20174     C
H      0.81243  0.01457  0.59217     H
H      0.81243  0.79787  0.09217     H
C      0.81364  0.31893  0.45992     C
C      0.81364  0.49471  0.95992     C
C       0.8174  0.03206  0.86744     C
C       0.8174  0.78533  0.36744     C
C      0.81841  0.33149  0.72222     C
C      0.81841  0.48693  0.22222     C
C      0.81972  0.35032  0.03047     C
C      0.81972   0.4694  0.53047     C
C      0.82026  0.33518  0.44445     C
C      0.82026  0.48508  0.94445     C
C      0.82133   0.2615  0.11768     C
C      0.82133  0.55984  0.61768     C
H      0.82147  0.04303  0.85713     H
H      0.82147  0.77843  0.35713     H
C      0.82163  0.30053  0.03507     C
C      0.82163   0.5211  0.53507     C
C      0.82804  0.34774  0.70675     C
C      0.82804  0.48031  0.20675     C
C      0.83862  0.85303  0.12659     C
C      0.83862   0.9856  0.62659     C
C      0.84504   0.0328  0.29826     C
C      0.84504  0.81223  0.79826     C
H       0.8452   0.2903   0.4762     H
H       0.8452   0.5549   0.9762     H
C      0.84533  0.07184  0.21566     C
C      0.84533   0.7735  0.71566     C
C      0.84641  0.84825  0.38888     C
C      0.84641  0.99815  0.88888     C
C      0.84695  0.86393  0.80286     C
C      0.84695  0.98301  0.30286     C
C      0.84825  0.00185  0.61112     C
C      0.84825  0.84641  0.11112     C
C      0.84927  0.30127  0.46589     C
C      0.84927    0.548  0.96589     C
C      0.85303   0.0144  0.87341     C
C      0.85303  0.83862  0.37341     C
H      0.85423  0.31877  0.74117     H
H      0.85423  0.53547  0.24117     H
C      0.85443  0.36614   0.1316     C
C      0.85443   0.4883   0.6316     C
H       0.8545   0.4187   0.5351     H
H       0.8545   0.4358   0.0351     H
H      0.85573  0.10687  0.22047     H
H      0.85573  0.74887  0.72047     H
C      0.85578  0.40271   0.0378     C
C      0.85578  0.45307   0.5378     C
C      0.85913  0.30425   0.0465     C
C      0.85913  0.55488   0.5465     C
H         0.86   0.2713   0.0496     H
H         0.86   0.5887   0.5496     H
C      0.86173  0.33099  0.73092     C
C      0.86173  0.53075  0.23092     C
C      0.86393  0.01699  0.19714     C
C      0.86393  0.84695  0.69714     C
C      0.86408  0.33568  0.43575     C
C      0.86408   0.5284  0.93575     C
H      0.86563  0.40147  0.13627     H
H      0.86563  0.46417  0.63627     H
H       0.8688   0.3479   0.4255     H
H       0.8688   0.5209   0.9255     H
H      0.86917  0.06813  0.30293     H
H      0.86917  0.80103  0.80293     H
H      0.87147  0.88383  0.39333     H
H      0.87147  0.98763  0.89333     H
C      0.87223  0.31097  0.11343     C
C      0.87223  0.56127  0.61343     C
O      0.87666  0.89656  0.15033     O
O      0.87666  0.98011  0.65033     O
C      0.88026  0.06938  0.20447     C
C      0.88026  0.81089  0.70447     C
C      0.88133   0.3654  0.70078     C
C      0.88133  0.51594  0.20078     C
H      0.88383  0.01237  0.60667     H
H      0.88383  0.87147  0.10667     H
O      0.88579  0.92284  0.67989     O
O      0.88579  0.96296  0.17989     O
C      0.88596  0.89983  0.13586     C
C      0.88596  0.98614  0.63586     C
C      0.88821  0.36242  0.12017     C
C      0.88821   0.5258  0.62017     C
H      0.88823  0.37637  0.69047     H
H      0.88823  0.51187  0.19047     H
O      0.88879    0.943  0.31857     O
O      0.88879  0.94578  0.81857     O
C      0.88924  0.90153  0.81455     C
C      0.88924   0.9877  0.31455     C
C      0.89087    0.299  0.45726     C
C      0.89087  0.59187  0.95726     C
H      0.89313  0.14427  0.72047     H
H      0.89313  0.74887  0.22047     H
C      0.89317  0.40517  0.04899     C
C      0.89317    0.488  0.54899     C
C       0.8946   0.3557  0.05324     C
C       0.8946   0.5389  0.55324     C
O      0.89656  0.01989  0.84967     O
O      0.89656  0.87666  0.34967     O
H      0.89753  0.08537  0.70177     H
H      0.89753  0.81217  0.20177     H
H       0.8978   0.2837   0.0724     H
H       0.8978   0.6141   0.5724     H
C      0.89983  0.01386  0.86414     C
C      0.89983  0.88596  0.36414     C
C      0.90071  0.31841  0.44192     C
C      0.90071   0.5823  0.94192     C
C      0.90153   0.0123  0.18545     C
C      0.90153  0.88924  0.68545     C
O      0.90223  0.30252   0.1019     O
O      0.90223  0.59972   0.6019     O
H       0.9129   0.2844   0.4616     H
H       0.9129   0.6285   0.9616     H
H      0.91353  0.27857  0.74447     H
H      0.91353  0.63497  0.24447     H
H      0.91463  0.10247  0.20177     H
H      0.91463  0.81217  0.70177     H
C      0.91563  0.34826  0.72475     C
C      0.91563  0.56738  0.22475     C
H       0.9178   0.4402   0.0538     H
H       0.9178   0.4776   0.5538     H
H      0.92203  0.39537  0.11707     H
H      0.92203  0.52667  0.61707     H
O      0.92284  0.03704  0.32011     O
O      0.92284  0.88579  0.82011     O
C       0.9252  0.36767  0.70941     C
C       0.9252  0.55754  0.20941     C
Zn     0.92758  0.93585   0.1673    Zn
Zn     0.92758  0.99173   0.6673    Zn
C      0.92816  0.15467  0.71566     C
C      0.92816   0.7735  0.21566     C
C      0.93062  0.11974  0.70447     C
C      0.93062  0.81089  0.20447     C
H      0.93187  0.13083  0.80293     H
H      0.93187  0.80103  0.30293     H
O        0.932  0.93334  0.12904     O
O        0.932  0.99867  0.62904     O
O      0.93305  0.36415  0.06477     O
O      0.93305   0.5689  0.56477     O
O      0.93334  0.00133  0.87096     O
O      0.93334    0.932  0.37096     O
Zn     0.93585  0.00827   0.8327    Zn
Zn     0.93585  0.92758   0.3327    Zn
C      0.93588  0.31471  0.06944     C
C      0.93588  0.62117  0.56944     C
H       0.9364   0.3306   0.4125     H
H       0.9364   0.6058   0.9125     H
H      0.93797  0.19333  0.78373     H
H      0.93797  0.74463  0.28373     H
H      0.93913  0.33607  0.75417     H
H      0.93913  0.60307  0.25417     H
O        0.943  0.05422  0.68143     O
O        0.943  0.88879  0.18143     O
O      0.94448  0.31741   0.4346     O
O      0.94448  0.62707   0.9346     O
H      0.94523  0.24687  0.08887     H
H      0.94523  0.69837  0.58887     H
O      0.94578    0.057  0.18143     O
O      0.94578  0.88879  0.68143     O
C      0.94728  0.31656  0.74592     C
C      0.94728  0.63073  0.24592     C
H      0.94743  0.38297  0.09427     H
H      0.94743  0.56447  0.59427     H
H       0.9502   0.3011   0.0611     H
H       0.9502   0.6491   0.5611     H
H      0.95037  0.23113  0.76093     H
H      0.95037  0.71923  0.26093     H
H      0.95107  0.24623  0.37173     H
H      0.95107  0.70483  0.87173     H
C       0.9545  0.35196  0.09723     C
C       0.9545  0.60255  0.59723     C
H      0.95697  0.17853  0.35713     H
H      0.95697  0.77843  0.85713     H
O       0.9604  0.34926  0.73207     O
O       0.9604  0.61115  0.23207     O
H      0.96183  0.38227  0.70507     H
H      0.96183  0.57957  0.20507     H
O      0.96296  0.07716  0.82011     O
O      0.96296  0.88579  0.32011     O
C      0.96406  0.35011  0.42075     C
C      0.96406  0.61395  0.92075     C
C      0.96567   0.2242  0.37607     C
C      0.96567  0.74146  0.87607     C
C       0.9672  0.15496  0.79826     C
C       0.9672  0.81223  0.29826     C
H      0.96777  0.28353  0.77223     H
H      0.96777  0.68423  0.27223     H
C      0.96794   0.1826  0.36744     C
C      0.96794  0.78533  0.86744     C
H       0.9683   0.3881   0.4222     H
H       0.9683   0.5802   0.9222     H
O      0.96918  0.23557  0.73144     O
O      0.96918  0.73362  0.23144     O
C      0.97092  0.19246  0.78683     C
C      0.97092  0.77845  0.28683     C
C      0.97763  0.20557  0.71991     C
C      0.97763  0.33333  0.08333     C
C      0.97763  0.64429  0.58333     C
C      0.97763  0.77207  0.21991     C
O      0.98011  0.10344  0.34967     O
O      0.98011  0.87666  0.84967     O
C      0.98138  0.26921  0.76389     C
C      0.98138  0.71216  0.26389     C
H      0.98243  0.36557  0.10557     H
H      0.98243  0.61687  0.60557     H
C      0.98301  0.13607  0.69714     C
C      0.98301  0.84695  0.19714     C
C      0.98322  0.28062  0.08742     C
C      0.98322  0.70261  0.58742     C
O      0.98408  0.27781  0.39873     O
O      0.98408  0.70626  0.89873     O
C      0.98508  0.23404  0.39141     C
C      0.98508  0.75103  0.89141     C
H      0.98543  0.18757  0.09217     H
H      0.98543  0.79787  0.59217     H
C       0.9856  0.14697  0.37341     C
C       0.9856  0.83862  0.87341     C
C      0.98614  0.10017  0.36414     C
C      0.98614  0.88596  0.86414     C
H      0.98763  0.11617  0.10667     H
H      0.98763  0.87147  0.60667     H
C       0.9877  0.09847  0.68545     C
C       0.9877  0.88924  0.18545     C
Zn     0.99173  0.06415   0.3327    Zn
Zn     0.99173  0.92758   0.8327    Zn
H      0.99727  0.26973  0.42083     H
H      0.99727  0.72753  0.92083     H
C      0.99765  0.19507  0.10242     C
C      0.99765  0.80259  0.60242     C
C      0.99815  0.15175  0.11112     C
C      0.99815  0.84641  0.61112     C
O      0.99867  0.06666  0.37096     O
O      0.99867    0.932  0.87096     O
