data_I
_chemical_name_common  '/home/zhangsd/repos/MofS-CGCNN/ML/data/SSD/clean_cifs/GITTOT01_manual'
_cell_length_a 14.68680
_cell_length_b 14.68680
_cell_length_c 14.68680
_cell_angle_alpha 109.47100
_cell_angle_beta  109.47100
_cell_angle_gamma 109.47100
_space_group_name_H-M_alt      'P 1'


loop_
_space_group_symop_operation_xyz
  'x, y, z' 

loop_
_atom_site_label
_atom_site_fract_x
_atom_site_fract_y
_atom_site_fract_z
_atom_site_type_symbol
C          0.0   0.3217   0.5093     C
C          0.0   0.3718   0.6172     C
C          0.0   0.5093   0.3217     C
C          0.0   0.6172   0.3718     C
H      0.02361  0.50423  0.25439     H
H      0.03745  0.26518  0.51055     H
H       0.0518  0.39123   0.4993     H
C       0.0555   0.4714   0.7891     C
C       0.0555   0.7891   0.4714     C
H      0.06307  0.50607  0.38958     H
N       0.0925   0.4428   0.7153     N
N       0.0925   0.7153   0.4428     N
H      0.10303  0.88294  0.53092     H
H      0.11706  0.22009  0.64798     H
H      0.11706  0.64798  0.22009     H
H      0.12794  0.61495   0.6888     H
H      0.13878  0.70171  0.62081     H
C       0.1876   0.6783   0.6783     C
C       0.2109   0.2664   0.6823     C
C       0.2109   0.6823   0.2664     C
H      0.22009  0.11706  0.64798     H
H      0.22009  0.64798  0.11706     H
H      0.24099  0.00165  0.49362     H
C       0.2454   0.6282   0.6282     C
Co        0.25      0.5     0.75    Co
Co        0.25     0.75      0.5    Co
H       0.2524  0.75611  0.76315     H
H      0.26315  0.43748  0.91038     H
C       0.2664   0.2109   0.6823     C
C       0.2664   0.6823   0.2109     C
N       0.2725   0.5572   0.6497     N
N       0.2725   0.6497   0.5572     N
H      0.27299  0.51432  0.04607     H
N       0.2847   0.3772   0.7275     N
N       0.2847   0.7275   0.3772     N
H      0.30322  0.92157  0.43773     H
C       0.3177   0.5286   0.5841     C
C       0.3177   0.5841   0.5286     C
C       0.3217      0.0   0.5093     C
C       0.3217   0.5093     -0.0     C
N       0.3503   0.6228   0.9075     N
N       0.3503   0.9075   0.6228     N
H      0.35202  0.46907  0.57211     H
H      0.35202  0.57211  0.46907     H
C       0.3718      0.0   0.6172     C
C       0.3718   0.6172     -0.0     C
N       0.3772   0.2847   0.7275     N
N       0.3772   0.7275   0.2847     N
C       0.3828   0.3828   0.7546     C
C       0.3828   0.7546   0.3828     C
H      0.38302  0.07678    0.515     H
H      0.39109  0.49455  0.04355     H
C       0.4159   0.7336   0.9445     C
C       0.4159   0.9445   0.7336     C
H      0.42789  0.77991  0.89697     H
H      0.42789  0.89697  0.77991     H
H      0.43613  0.91419  0.28608     H
H      0.43979  0.31425  0.92808     H
N       0.4428   0.0925   0.7153     N
N       0.4428   0.7153   0.0925     N
H      0.46907  0.35202  0.57211     H
H      0.46907  0.57211  0.35202     H
C       0.4714   0.0555   0.7891     C
C       0.4714   0.7891   0.0555     C
H      0.48098  0.85853  0.56326     H
H      0.48755  0.23543  0.98964     H
C       0.4907   0.4907   0.8124     C
C       0.4907   0.8124   0.4907     C
H      0.49254  0.55785  0.88147     H
H      0.49724  0.51773  0.74946     H
Co         0.5     0.25     0.75    Co
Co         0.5     0.75     0.25    Co
H      0.50276  0.02049  0.25223     H
H      0.50746  0.06532  0.38893     H
C       0.5093      0.0   0.3217     C
C       0.5093   0.3217      0.0     C
H      0.51245  0.74789  0.50209     H
H      0.51902  0.37755  0.08228     H
C       0.5286   0.3177   0.5841     C
C       0.5286   0.5841   0.3177     C
H      0.53092  0.10303  0.88294     H
H      0.53092  0.88294  0.10303     H
N       0.5572   0.2725   0.6497     N
N       0.5572   0.6497   0.2725     N
H      0.56021  0.87447   0.4883     H
H      0.56387  0.47806  0.84995     H
H      0.57211  0.35202  0.46907     H
H      0.57211  0.46907  0.35202     H
C       0.5841   0.3177   0.5286     C
C       0.5841   0.5286   0.3177     C
H      0.60891  0.10346  0.65245     H
H      0.61698  0.69376  0.13198     H
C       0.6172      0.0   0.3718     C
C       0.6172   0.3718      0.0     C
N       0.6228   0.3503   0.9075     N
N       0.6228   0.9075   0.3503     N
C       0.6282   0.2454   0.6282     C
C       0.6282   0.6282   0.2454     C
H      0.64798  0.11706  0.22009     H
H      0.64798  0.22009  0.11706     H
N       0.6497   0.2725   0.5572     N
N       0.6497   0.5572   0.2725     N
C       0.6783   0.1876   0.6783     C
C       0.6783   0.6783   0.1876     C
C       0.6823   0.2109   0.2664     C
C       0.6823   0.2664   0.2109     C
H      0.69678  0.61835  0.13451     H
N       0.7153   0.0925   0.4428     N
N       0.7153   0.4428   0.0925     N
H      0.72701  0.24132  0.77308     H
N       0.7275   0.2847   0.3772     N
N       0.7275   0.3772   0.2847     N
C       0.7336   0.4159   0.9445     C
C       0.7336   0.9445   0.4159     C
H      0.73685  0.17433  0.64723     H
H       0.7476  0.50371  0.51076     H
Co        0.75     0.25      0.5    Co
Co        0.75      0.5     0.25    Co
C       0.7546   0.3828   0.3828     C
H      0.75901  0.76066  0.25263     H
H      0.77991  0.42789  0.89697     H
H      0.77991  0.89697  0.42789     H
C       0.7891   0.0555   0.4714     C
C       0.7891   0.4714   0.0555     C
C       0.8124   0.4907   0.4907     C
H      0.86122  0.56293  0.48203     H
H      0.87206    0.487  0.56086     H
H      0.88294  0.53092  0.10303     H
H      0.89697  0.42789  0.77991     H
H      0.89697  0.77991  0.42789     H
N       0.9075   0.3503   0.6228     N
N       0.9075   0.6228   0.3503     N
H      0.91076  0.27083  0.43651     H
H      0.91332  0.43606  0.28326     H
C       0.9445   0.4159   0.7336     C
C       0.9445   0.7336   0.4159     C
