data_I
_chemical_name_common  '/home/zhangsd/repos/MofS-CGCNN/ML/data/SSD/clean_cifs/GIWNUV_clean'
_cell_length_a  9.78700
_cell_length_b 16.25460
_cell_length_c 16.25460
_cell_angle_alpha 63.92300
_cell_angle_beta  78.42200
_cell_angle_gamma 101.57800
_space_group_name_H-M_alt      'P 1'


loop_
_space_group_symop_operation_xyz
  'x, y, z' 

loop_
_atom_site_label
_atom_site_fract_x
_atom_site_fract_y
_atom_site_fract_z
_atom_site_type_symbol
C       0.0072   0.6765   0.4844     C
H       0.0144   0.3305   0.3873     H
N       0.0418   0.3715   0.5594     N
C        0.046   0.3649   0.4181     C
H       0.0495   0.8363   0.1288     H
Cu     0.05882  0.67814  0.30688    Cu
H       0.0695   0.9718   0.1623     H
H       0.0748   0.7409   0.4465     H
H       0.0977   0.8659   0.9718     H
C       0.1154   0.8102   0.1048     C
C       0.1427   0.4613   0.5058     C
C       0.1518    0.453   0.3649     C
C       0.1519   0.8336   0.0106     C
N       0.1602    0.742   0.1668     N
C       0.1625   0.0106   0.1558     C
H       0.1783   0.1288   0.0349     H
H       0.1799   0.9121   0.2784     H
O       0.1862    0.504   0.5449     O
H       0.1927   0.4808   0.2967     H
N       0.1946   0.5031   0.4084     N
H       0.2132   0.0349   0.8363     H
C       0.2202   0.1048    0.085     C
C        0.227   0.9757   0.2241     C
H       0.2318   0.1623   0.8659     H
C       0.2513   0.8002   0.9757     C
C       0.2542   0.7051   0.1323     C
H       0.2678   0.8095   0.9121     H
O       0.2689   0.4551   0.0489     O
O       0.2692   0.6311   0.1873     O
H       0.2881   0.7775   0.5192     H
C       0.3012   0.8179    0.547     C
C       0.3052    0.085   0.8102     C
N       0.3085   0.9115   0.4969     N
Cu     0.30924  0.64218  0.32876    Cu
N       0.3108   0.7417   0.0357     N
H       0.3161   0.7178   0.6695     H
O       0.3178   0.0489    0.496     O
C       0.3183   0.1558   0.8336     C
C       0.3186   0.9671   0.5387     C
C       0.3189    0.783   0.6351     C
N        0.327   0.1668   0.0912     N
N       0.3297   0.9309   0.6285     N
C       0.3307   0.8391   0.6765     C
Cu     0.33294  0.97094  0.35782    Cu
H       0.3339   0.8126   0.7409     H
N       0.3465   0.0357   0.2226     N
C       0.3515   0.4942   0.9671     C
O       0.3619   0.8184   0.3689     O
Cu       0.362  0.67124  0.97094    Cu
Cu      0.3657  0.30688  0.01498    Cu
Cu     0.38068  0.01498  0.67814    Cu
C       0.3865   0.1323   0.1626     C
N        0.397   0.5916   0.9115     N
N       0.3988   0.4406   0.9309     N
H       0.4017   0.3873   0.2822     H
N       0.4182   0.0912    0.742     N
N       0.4309   0.7774   0.2583     N
C       0.4509   0.8374   0.2949     C
C       0.4511   0.2241   0.8002     C
O       0.4565   0.1873   0.1816     O
H       0.4583   0.2784   0.8095     H
C       0.4641   0.4181    0.217     C
H       0.4787   0.5535   0.1874     H
C       0.4833   0.6351   0.8179     C
H       0.4894   0.2967   0.2225     H
C       0.4916   0.4844   0.8391     C
C       0.5084   0.5156   0.1609     C
H       0.5106   0.7033   0.7775     H
C       0.5167   0.3649   0.1821     C
H       0.5213   0.4465   0.8126     H
C       0.5359   0.5819    0.783     C
H       0.5417   0.7216   0.1905     H
O       0.5435   0.8127   0.8184     O
C       0.5489   0.7759   0.1998     C
C       0.5491   0.1626   0.7051     C
N       0.5691   0.2226   0.7417     N
N       0.5818   0.9088    0.258     N
H       0.5983   0.6127   0.7178     H
N       0.6012   0.5594   0.0691     N
N        0.603   0.4084   0.0885     N
C       0.6135   0.8677   0.8374     C
Cu     0.61932  0.98502  0.32186    Cu
Cu      0.6343  0.69312  0.98502    Cu
Cu       0.638  0.32876  0.02906    Cu
O       0.6381   0.1816   0.6311     O
C       0.6485   0.5058   0.0329     C
N       0.6535   0.9643   0.7774     N
H       0.6661   0.1874   0.2591     H
Cu     0.66706  0.02906  0.64218    Cu
C       0.6693   0.1609   0.3235     C
N       0.6703   0.0691   0.3715     N
N        0.673   0.8332   0.9088     N
C       0.6811    0.217   0.3649     C
C       0.6814   0.0329   0.4613     C
C       0.6817   0.8442   0.1664     C
O       0.6822   0.9511    0.504     O
H       0.6839   0.2822   0.3305     H
N       0.6892   0.2583   0.9643     N
Cu     0.69076  0.35782  0.67124    Cu
N       0.6915   0.0885   0.5031     N
C       0.6948    0.915   0.1898     C
C       0.6988   0.1821    0.453     C
H       0.7119   0.2225   0.4808     H
O       0.7308   0.3689   0.8127     O
O       0.7311   0.5449   0.9511     O
H       0.7322   0.1905   0.0879     H
C       0.7458   0.2949   0.8677     C
C       0.7487   0.1998   0.0243     C
H       0.7682   0.8377   0.1341     H
C        0.773   0.0243   0.7759     C
C       0.7798   0.8952    0.915     C
H       0.7868   0.9651   0.1637     H
N       0.8054   0.4969   0.5916     N
H       0.8073   0.5192   0.7033     H
O       0.8138    0.496   0.4551     O
H       0.8201   0.0879   0.7216     H
H       0.8217   0.8712   0.9651     H
C       0.8375   0.9894   0.8442     C
N       0.8398    0.258   0.8332     N
C       0.8481   0.1664   0.9894     C
C       0.8482    0.547   0.6351     C
C       0.8573   0.5387   0.4942     C
C       0.8846   0.1898   0.8952     C
H       0.9023   0.1341   0.0282     H
H       0.9252   0.2591   0.5535     H
H       0.9305   0.0282   0.8377     H
Cu     0.94118  0.32186  0.69312    Cu
H       0.9505   0.1637   0.8712     H
C        0.954   0.6351   0.5819     C
N       0.9582   0.6285   0.4406     N
H       0.9856   0.6695   0.6127     H
C       0.9928   0.3235   0.5156     C
