data_I
_chemical_name_common  '/home/zhangsd/repos/MofS-CGCNN/ML/data/SSD/clean_cifs/GOQXAN_clean'
_cell_length_a  6.19830
_cell_length_b 15.00700
_cell_length_c 16.53170
_cell_angle_alpha 90.00000
_cell_angle_beta  90.00000
_cell_angle_gamma 90.00000
_space_group_name_H-M_alt      'P 1'


loop_
_space_group_symop_operation_xyz
  'x, y, z' 

loop_
_atom_site_label
_atom_site_fract_x
_atom_site_fract_y
_atom_site_fract_z
_atom_site_type_symbol
C       0.0034   0.9275   0.1417     C
H       0.0354   0.7013   0.1805     H
H       0.0445   0.3871    0.397     H
H       0.0482   0.5752   0.1094     H
O       0.0502   0.6389   0.9653     O
O       0.0538   0.8642   0.9065     O
C        0.068   0.5571   0.2773     C
H        0.087    0.844   0.9531     H
H       0.0927   0.0261   0.7454     H
Cd     0.09273  0.20834  0.64465    Cd
H       0.0979   0.4733   0.6265     H
C       0.1099   0.6787   0.0278     C
C       0.1184   0.4258   0.5874     C
H       0.1186   0.4522   0.5338     H
C       0.1353   0.4947   0.3335     C
H       0.1368   0.3919   0.7477     H
O       0.1398   0.7605   0.0347     O
C       0.1421   0.0499   0.2516     C
C       0.1607   0.6205    0.103     C
N       0.1683   0.6763   0.1749     N
H       0.1968   0.0914    0.288     H
N        0.202   0.9184    0.171     N
C       0.2181   0.6321   0.2513     C
H       0.2189   0.6768   0.2937     H
H        0.226   0.5021   0.8548     H
C       0.2316   0.0208   0.7247     C
C       0.2684   0.9792   0.2247     C
H        0.274   0.4979   0.3548     H
H       0.2811   0.3232   0.7937     H
C       0.2819   0.3679   0.7513     C
N        0.298   0.0816    0.671     N
H       0.3032   0.9086    0.788     H
N       0.3317   0.3237   0.6749     N
C       0.3393   0.3795    0.603     C
C       0.3579   0.9501   0.7516     C
O       0.3602   0.2395   0.5347     O
H       0.3632   0.6081   0.2477     H
C       0.3647   0.5053   0.8335     C
H       0.3814   0.5478   0.0338     H
C       0.3816   0.5742   0.0874     C
C       0.3901   0.3213   0.5278     C
H       0.4021   0.5267   0.1265     H
Cd     0.40727  0.79166  0.14465    Cd
H       0.4073   0.9739   0.2454     H
H        0.413    0.156   0.4531     H
C        0.432   0.4429   0.7773     C
O       0.4462   0.1358   0.4065     O
O       0.4498   0.3611   0.4653     O
H       0.4518   0.4248   0.6094     H
H       0.4555   0.6129    0.897     H
H       0.4646   0.2987   0.6805     H
C       0.4966   0.0725   0.6417     C
C       0.5034   0.5725   0.8583     C
H       0.5354   0.7987   0.8195     H
H       0.5445   0.1129    0.603     H
H       0.5482   0.9248   0.8906     H
O       0.5502   0.8611   0.0347     O
O       0.5538   0.6358   0.0935     O
C        0.568   0.9429   0.7227     C
H        0.587    0.656   0.0469     H
H       0.5927   0.4739   0.2546     H
Cd     0.59273  0.29166  0.35535    Cd
H       0.5979   0.0267   0.3735     H
C       0.6099   0.8213   0.9722     C
C       0.6184   0.0742   0.4126     C
H       0.6186   0.0478   0.4662     H
C       0.6353   0.0053   0.6665     C
H       0.6368   0.1081   0.2523     H
O       0.6398   0.7395   0.9653     O
C       0.6421   0.4501   0.7484     C
C       0.6607   0.8795    0.897     C
N       0.6683   0.8237   0.8251     N
H       0.6968   0.4086    0.712     H
N        0.702   0.5816    0.829     N
C       0.7181   0.8679   0.7487     C
H       0.7189   0.8232   0.7063     H
H        0.726   0.9979   0.1452     H
C       0.7316   0.4792   0.2753     C
C       0.7684   0.5208   0.7753     C
H        0.774   0.0021   0.6452     H
H       0.7811   0.1768   0.2063     H
C       0.7819   0.1321   0.2487     C
N        0.798   0.4184    0.329     N
H       0.8032   0.5914    0.212     H
N       0.8317   0.1763   0.3251     N
C       0.8393   0.1205    0.397     C
C       0.8579   0.5499   0.2484     C
O       0.8602   0.2605   0.4653     O
H       0.8632   0.8919   0.7523     H
C       0.8647   0.9947   0.1665     C
H       0.8814   0.9522   0.9662     H
C       0.8816   0.9258   0.9126     C
C       0.8901   0.1787   0.4722     C
H       0.9021   0.9733   0.8735     H
Cd     0.90727  0.70834  0.85535    Cd
H       0.9073   0.5261   0.7546     H
H        0.913    0.344   0.5469     H
C        0.932   0.0571   0.2227     C
O       0.9462   0.3642   0.5935     O
O       0.9498   0.1389   0.5347     O
H       0.9518   0.0752   0.3906     H
H       0.9555   0.8871    0.103     H
H       0.9646   0.2013   0.3195     H
C       0.9966   0.4275   0.3583     C
