data_I
_chemical_name_common  '/home/zhangsd/repos/MofS-CGCNN/ML/data/SSD/clean_cifs/GOSRIP_clean'
_cell_length_a  9.67000
_cell_length_b 15.61800
_cell_length_c 22.56300
_cell_angle_alpha 90.00000
_cell_angle_beta  90.82000
_cell_angle_gamma 90.00000
_space_group_name_H-M_alt      'P 1'


loop_
_space_group_symop_operation_xyz
  'x, y, z' 

loop_
_atom_site_label
_atom_site_fract_x
_atom_site_fract_y
_atom_site_fract_z
_atom_site_type_symbol
P       0.0049   0.8146  0.29323     P
Fe     0.00957  0.39651  0.70052    Fe
O       0.0097   0.1419   0.6448     O
O       0.0103   0.0381   0.3858     O
O       0.0231   0.0957   0.5239     O
P       0.0389  0.59507  0.74384     P
P       0.0465   0.9409  0.67678     P
O       0.0653   0.7247   0.2972     O
O       0.0694   0.0536   0.2772     O
O       0.0832   0.5151   0.7081     O
O       0.0928   0.6745   0.7105     O
O       0.0934   0.8681    0.252     O
O       0.0961   0.5933   0.8076     O
O       0.1018   0.8482   0.6737     O
O       0.1086   0.8663   0.8986     O
Fe     0.11019  0.93868  0.41593    Fe
O       0.1171   0.5756   0.3656     O
O       0.1191   0.3976   0.2536     O
F       0.1324   0.3638   0.7686     F
O        0.136   0.8136    0.795     O
H       0.1427   0.0891   0.0783     H
H       0.1433   0.8673    0.932     H
F       0.1467   0.5705   0.2427     F
O       0.1487   0.1869   0.7295     O
O       0.1549   0.3612    0.643     O
O       0.1614   0.4282   0.4082     O
O        0.166   0.0023   0.6935     O
P       0.1793   0.0847  0.51439     P
O       0.1807   0.0454   0.0667     O
O       0.1815   0.9869   0.1707     O
F       0.1878   0.2362   0.8511     F
P       0.2052   0.8134  0.85586     P
O       0.2146    0.009   0.4736     O
Fe     0.21619  0.96978  0.25668    Fe
O       0.2206   0.7241   0.8818     O
Fe     0.22409   0.7729  0.72097    Fe
P       0.2254   0.5077  0.38203     P
H       0.2255   0.2069   0.5099     H
Fe     0.22582  0.11031  0.65461    Fe
O       0.2386   0.1666   0.4874     O
F       0.2433   0.9553   0.3462     F
O       0.2485   0.0625   0.5758     O
O       0.2515   0.5625   0.9242     O
F       0.2567   0.4553   0.1538     F
O       0.2614   0.6666   0.0126     O
Fe     0.27418  0.61031  0.84539    Fe
H       0.2745   0.7069   0.9901     H
P       0.2746   0.0077  0.11797     P
Fe     0.27591   0.2729  0.77903    Fe
O       0.2794   0.2241   0.6182     O
Fe     0.28381  0.46978  0.24332    Fe
O       0.2854    0.509   0.0264     O
P       0.2948   0.3134  0.64414     P
F       0.3122   0.7362   0.6489     F
O       0.3185   0.4869   0.3293     O
O       0.3193   0.5454   0.4333     O
P       0.3207   0.5847  0.98561     P
O        0.334   0.5023   0.8065     O
O       0.3386   0.9282   0.0918     O
O       0.3451   0.8612    0.857     O
O       0.3513   0.6869   0.7705     O
F       0.3533   0.0705   0.2573     F
H       0.3567   0.3673    0.568     H
H       0.3573   0.5891   0.4217     H
O        0.364   0.3136    0.705     O
F       0.3676   0.8638   0.7314     F
O       0.3809   0.8976   0.2464     O
O       0.3829   0.0756   0.1344     O
Fe     0.38981  0.43868  0.08407    Fe
O       0.3914   0.3663   0.6014     O
O       0.3982   0.3482   0.8263     O
O       0.4039   0.0933   0.6924     O
O       0.4066   0.3681    0.248     O
O       0.4072   0.1745   0.7895     O
O       0.4168   0.0151   0.7919     O
O       0.4306   0.5536   0.2228     O
O       0.4347   0.2247   0.2028     O
P       0.4535   0.4409  0.82322     P
P       0.4611  0.09507  0.75616     P
O       0.4769   0.5957   0.9761     O
O       0.4897   0.5381   0.1142     O
O       0.4903   0.6419   0.8552     O
Fe     0.49043  0.89651  0.79948    Fe
P       0.4951   0.3146  0.20677     P
P       0.5049   0.6854  0.79323     P
Fe     0.50957  0.10349  0.20052    Fe
O       0.5097   0.3581   0.1448     O
O       0.5103   0.4619   0.8858     O
O       0.5231   0.4043   0.0239     O
P       0.5389  0.90493  0.24384     P
P       0.5465   0.5591  0.17678     P
O       0.5653   0.7753   0.7972     O
O       0.5694   0.4464   0.7772     O
O       0.5832   0.9849   0.2081     O
O       0.5928   0.8255   0.2105     O
O       0.5934   0.6319    0.752     O
O       0.5961   0.9067   0.3076     O
O       0.6018   0.6518   0.1737     O
O       0.6086   0.6337   0.3986     O
Fe     0.61019  0.56132  0.91593    Fe
O       0.6171   0.9244   0.8656     O
O       0.6191   0.1024   0.7536     O
F       0.6324   0.1362   0.2686     F
O        0.636   0.6864    0.295     O
H       0.6427   0.4109   0.5783     H
H       0.6433   0.6327    0.432     H
F       0.6467   0.9295   0.7427     F
O       0.6487   0.3131   0.2295     O
O       0.6549   0.1388    0.143     O
O       0.6614   0.0718   0.9082     O
O        0.666   0.4977   0.1935     O
P       0.6793   0.4153  0.01439     P
O       0.6807   0.4546   0.5667     O
O       0.6815   0.5131   0.6707     O
F       0.6878   0.2638   0.3511     F
P       0.7052   0.6866  0.35586     P
O       0.7146    0.491   0.9736     O
Fe     0.71619  0.53022  0.75668    Fe
O       0.7206   0.7759   0.3818     O
Fe     0.72409   0.7271  0.22097    Fe
P       0.7254   0.9923  0.88203     P
H       0.7255   0.2931   0.0099     H
Fe     0.72582  0.38969  0.15461    Fe
O       0.7386   0.3334   0.9874     O
F       0.7433   0.5447   0.8462     F
O       0.7485   0.4375   0.0758     O
O       0.7515   0.9375   0.4242     O
F       0.7567   0.0447   0.6538     F
O       0.7614   0.8334   0.5126     O
Fe     0.77418  0.88969  0.34539    Fe
H       0.7745   0.7931   0.4901     H
P       0.7746   0.4923  0.61797     P
Fe     0.77591   0.2271  0.27903    Fe
O       0.7794   0.2759   0.1182     O
Fe     0.78381  0.03022  0.74332    Fe
O       0.7854    0.991   0.5264     O
P       0.7948   0.1866  0.14414     P
F       0.8122   0.7638   0.1489     F
O       0.8185   0.0131   0.8293     O
O       0.8193   0.9546   0.9333     O
P       0.8207   0.9153  0.48561     P
O        0.834   0.9977   0.3065     O
O       0.8386   0.5718   0.5918     O
O       0.8451   0.6388    0.357     O
O       0.8513   0.8131   0.2705     O
F       0.8533   0.4295   0.7573     F
H       0.8567   0.1327    0.068     H
H       0.8573   0.9109   0.9217     H
O        0.864   0.1864    0.205     O
F       0.8676   0.6362   0.2314     F
O       0.8809   0.6024   0.7464     O
O       0.8829   0.4244   0.6344     O
Fe     0.88981  0.06132  0.58407    Fe
O       0.8914   0.1337   0.1014     O
O       0.8982   0.1518   0.3263     O
O       0.9039   0.4067   0.1924     O
O       0.9066   0.1319    0.748     O
O       0.9072   0.3255   0.2895     O
O       0.9168   0.4849   0.2919     O
O       0.9306   0.9464   0.7228     O
O       0.9347   0.2753   0.7028     O
P       0.9535   0.0591  0.32322     P
P       0.9611  0.40493  0.25616     P
O       0.9769   0.9043   0.4761     O
O       0.9897   0.9619   0.6142     O
O       0.9903   0.8581   0.3552     O
Fe     0.99043  0.60349  0.29948    Fe
P       0.9951   0.1854  0.70677     P
