data_I
_chemical_name_common  '/home/zhangsd/repos/MofS-CGCNN/ML/data/SSD/clean_cifs/GOVHOQ_clean'
_cell_length_a  5.12420
_cell_length_b 25.06410
_cell_length_c 27.18770
_cell_angle_alpha 90.00000
_cell_angle_beta  90.94000
_cell_angle_gamma 90.00000
_space_group_name_H-M_alt      'P 1'


loop_
_space_group_symop_operation_xyz
  'x, y, z' 

loop_
_atom_site_label
_atom_site_fract_x
_atom_site_fract_y
_atom_site_fract_z
_atom_site_type_symbol
O       0.0005   0.4911  0.81201     O
O       0.0011  0.27957  0.83139     O
C       0.0031   0.8311   0.8424     C
H       0.0083   0.2051   0.6823     H
N        0.009  0.22424  0.65836     N
C       0.0171   0.6523   0.9215     C
H       0.0181   0.7998   0.9563     H
H       0.0192   0.4169   0.4017     H
C       0.0195   0.2351   0.4911     C
H       0.0209   0.1554   0.1261     H
H       0.0211   0.7661   0.5815     H
O       0.0473  0.93166  0.56298     O
O       0.0508  0.36359  0.88256     O
C       0.0633   0.6471   0.8345     C
C       0.0647   0.7954   0.0307     C
O       0.0652  0.94358  0.67888     O
H        0.066   0.6659   0.9522     H
O       0.0672   0.3968   0.3745     O
H        0.079   0.1834   0.9622     H
C       0.0809   0.7922   0.7494     C
P       0.0818  0.64299  0.66108     P
O       0.0843  0.03323  0.71912     O
C       0.0847   0.2467    0.581     C
C       0.0852   0.2468   0.4439     C
O       0.0884  0.63206  0.20643     O
O       0.0957  0.48791  0.68117     O
Zn     0.09637  0.78725  0.13881    Zn
Zn      0.1029  0.89133  0.62511    Zn
N       0.1067   0.7202   0.4021     N
P       0.1084  0.66511  0.15874     P
O        0.109  0.16812  0.35783     O
H       0.1103   0.7796   0.7177     H
O        0.112  0.31499  0.32159     O
C        0.114   0.2306   0.2234     C
O        0.122  0.52042  0.05552     O
C       0.1229   0.7857   0.9813     C
H       0.1239   0.7865   0.5028     H
C       0.1314   0.3909   0.1672     C
C        0.138   0.6706   0.8791     C
H       0.1382   0.9287    0.378     H
O       0.1448  0.05342  0.52068     O
H       0.1456   0.6571   0.8057     H
C       0.1476   0.7349   0.3557     C
O       0.1477   0.6195  0.03427     O
C       0.1538   0.2111   0.1756     C
H       0.1539   0.3456   0.7541     H
O       0.1554  0.96652  0.17479     O
C       0.1636   0.2118    0.619     C
O       0.1648  0.02669  0.62944     O
C       0.1652   0.2553   0.5295     C
Zn     0.17221  0.03962  0.78844    Zn
C       0.1751   0.3861   0.0821     C
H       0.1829   0.4058   0.1972     H
O       0.1869  0.61232  0.70539     O
C       0.1905   0.8519   0.8128     C
O       0.1931   0.0572  0.21401     O
P       0.1968  0.51981  0.32424     P
H       0.2021   0.0707   0.1096     H
O       0.2042  0.16675     0.87     O
H       0.2072   0.3802   0.6759     H
N       0.2073   0.7756   0.0679     N
P       0.2108  0.99929  0.67965     P
P       0.2132  0.06342  0.46765     P
H       0.2165    0.258   0.2362     H
N       0.2289   0.8318   0.7673     N
Zn     0.23319  0.49914  0.93441    Zn
Zn     0.23446  0.56007  0.21677    Zn
O       0.2361   0.5467  0.37625     O
H       0.2437    0.898   0.4462     H
N        0.246   0.4062   0.1257     N
N        0.254   0.9062   0.3743     N
H       0.2563    0.398   0.0538     H
O       0.2639   0.0467  0.12375     O
Zn     0.26554  0.06007  0.28323    Zn
Zn     0.26681  0.99914  0.56559    Zn
N       0.2711   0.3318   0.7327     N
H       0.2835    0.758   0.2638     H
P       0.2868  0.56342  0.03235     P
P       0.2892  0.49929  0.82035     P
N       0.2927   0.2756   0.4321     N
H       0.2928   0.8802   0.8241     H
O       0.2958  0.66675     0.63     O
H       0.2979   0.5707   0.3904     H
P       0.3032  0.01981  0.17576     P
O       0.3069   0.5572  0.28599     O
C       0.3095   0.3519   0.6872     C
O       0.3131  0.11232  0.79461     O
H       0.3171   0.9058   0.3028     H
C       0.3249   0.8861   0.4179     C
Zn     0.32779  0.53962  0.71156    Zn
C       0.3348   0.7553   0.9705     C
O       0.3352  0.52669  0.87056     O
C       0.3364   0.7118    0.881     C
O       0.3446  0.46652  0.32521     O
H       0.3461   0.8456   0.7459     H
C       0.3462   0.7111   0.3244     C
O       0.3523   0.1195  0.46573     O
C       0.3524   0.2349   0.1443     C
H       0.3544   0.1571   0.6943     H
O       0.3552  0.55342  0.97932     O
H       0.3618   0.4287    0.122     H
C        0.362   0.1706   0.6209     C
C       0.3686   0.8909   0.3328     C
H       0.3761   0.2865   0.9972     H
C       0.3771   0.2857   0.5187     C
O        0.378  0.02042  0.44448     O
C        0.386   0.7306   0.2766     C
O        0.388  0.81499  0.17841     O
H       0.3897   0.2796   0.7823     H
O        0.391  0.66812  0.14217     O
P       0.3916  0.16511  0.34126     P
N       0.3933   0.2202   0.0979     N
Zn      0.3971  0.39133  0.87489    Zn
Zn     0.40363  0.28725  0.36119    Zn
O       0.4043  0.98791  0.81883     O
O       0.4116  0.13206  0.29357     O
C       0.4148   0.7468   0.0561     C
C       0.4153   0.7467    0.919     C
O       0.4157  0.53323  0.78088     O
P       0.4182  0.14299  0.83892     P
C       0.4191   0.2922   0.7506     C
H        0.421   0.6834   0.5378     H
O       0.4328   0.8968   0.1255     O
H        0.434   0.1659   0.5478     H
O       0.4348  0.44358  0.82112     O
C       0.4353   0.2954   0.4693     C
C       0.4367   0.1471   0.6655     C
O       0.4492  0.86359  0.61744     O
O       0.4527  0.43166  0.93702     O
H       0.4789   0.2661   0.9185     H
H       0.4791   0.6554   0.3739     H
C       0.4805   0.7351   0.0089     C
H       0.4808   0.9169   0.0983     H
H       0.4819   0.2998   0.5437     H
C       0.4829   0.1523   0.5785     C
N        0.491  0.72424  0.84164     N
H       0.4917   0.7051   0.8177     H
C       0.4969   0.3311   0.6576     C
O       0.4989  0.77957  0.66861     O
O       0.4995   0.9911  0.68799     O
O       0.5005   0.0089  0.31201     O
O       0.5011  0.22043  0.33139     O
C       0.5031   0.6689   0.3424     C
H       0.5083   0.2949   0.1823     H
N        0.509  0.27576  0.15836     N
C       0.5171   0.8477   0.4215     C
H       0.5181   0.7002   0.4563     H
H       0.5192   0.0831   0.9017     H
C       0.5195   0.2649   0.9911     C
H       0.5209   0.3446   0.6261     H
H       0.5211   0.7339   0.0815     H
O       0.5473  0.56834  0.06298     O
O       0.5508  0.13641  0.38256     O
C       0.5633   0.8529   0.3345     C
C       0.5647   0.7046   0.5307     C
O       0.5652  0.55642  0.17888     O
H        0.566   0.8341   0.4522     H
O       0.5672   0.1032   0.8745     O
H        0.579   0.3166   0.4622     H
C       0.5809   0.7078   0.2494     C
P       0.5818  0.85701  0.16108     P
O       0.5843  0.46677  0.21912     O
C       0.5847   0.2533    0.081     C
C       0.5852   0.2532   0.9439     C
O       0.5884  0.86794  0.70643     O
O       0.5957  0.01209  0.18117     O
Zn     0.59637  0.71275  0.63881    Zn
Zn      0.6029  0.60867  0.12511    Zn
N       0.6067   0.7798   0.9021     N
P       0.6084  0.83489  0.65874     P
O        0.609  0.33188  0.85783     O
H       0.6103   0.7204   0.2177     H
O        0.612  0.18501  0.82159     O
C        0.614   0.2694   0.7234     C
O        0.622  0.97958  0.55552     O
C       0.6229   0.7143   0.4813     C
H       0.6239   0.7135   0.0028     H
C       0.6314   0.1091   0.6672     C
C        0.638   0.8294   0.3791     C
H       0.6382   0.5713    0.878     H
O       0.6448  0.44658  0.02068     O
H       0.6456   0.8429   0.3057     H
C       0.6476   0.7651   0.8557     C
O       0.6477   0.8805  0.53427     O
C       0.6538   0.2889   0.6756     C
H       0.6539   0.1544   0.2541     H
O       0.6554  0.53348  0.67479     O
C       0.6636   0.2882    0.119     C
O       0.6648  0.47331  0.12944     O
C       0.6652   0.2447   0.0295     C
Zn     0.67221  0.46038  0.28844    Zn
C       0.6751   0.1139   0.5821     C
H       0.6829   0.0942   0.6972     H
O       0.6869  0.88768  0.20539     O
C       0.6905   0.6481   0.3128     C
O       0.6931   0.4428  0.71401     O
P       0.6968  0.98019  0.82424     P
H       0.7021   0.4293   0.6096     H
O       0.7042  0.33325     0.37     O
H       0.7072   0.1198   0.1759     H
N       0.7073   0.7244   0.5679     N
P       0.7108  0.50071  0.17965     P
P       0.7132  0.43658  0.96765     P
H       0.7165    0.242   0.7362     H
N       0.7289   0.6682   0.2673     N
Zn     0.73319  0.00086  0.43441    Zn
Zn     0.73446  0.93993  0.71677    Zn
O       0.7361   0.9533  0.87625     O
H       0.7437    0.602   0.9462     H
N        0.746   0.0938   0.6257     N
N        0.754   0.5938   0.8743     N
H       0.7563    0.102   0.5538     H
O       0.7639   0.4533  0.62375     O
Zn     0.76554  0.43993  0.78323    Zn
Zn     0.76681  0.50086  0.06559    Zn
N       0.7711   0.1682   0.2327     N
H       0.7835    0.742   0.7638     H
P       0.7868  0.93658  0.53235     P
P       0.7892  0.00071  0.32035     P
N       0.7927   0.2244   0.9321     N
H       0.7928   0.6198   0.3241     H
O       0.7958  0.83325     0.13     O
H       0.7979   0.9293   0.8904     H
P       0.8032  0.48019  0.67576     P
O       0.8069   0.9428  0.78599     O
C       0.8095   0.1481   0.1872     C
O       0.8131  0.38768  0.29461     O
H       0.8171   0.5942   0.8028     H
C       0.8249   0.6139   0.9179     C
Zn     0.82779  0.96038  0.21156    Zn
C       0.8348   0.7447   0.4705     C
O       0.8352  0.97331  0.37056     O
C       0.8364   0.7882    0.381     C
O       0.8446  0.03348  0.82521     O
H       0.8461   0.6544   0.2459     H
C       0.8462   0.7889   0.8244     C
O       0.8523   0.3805  0.96573     O
C       0.8524   0.2651   0.6443     C
H       0.8544   0.3429   0.1943     H
O       0.8552  0.94658  0.47932     O
H       0.8618   0.0713    0.622     H
C        0.862   0.3294   0.1209     C
C       0.8686   0.6091   0.8328     C
H       0.8761   0.2135   0.4972     H
C       0.8771   0.2143   0.0187     C
O        0.878  0.47958  0.94448     O
C        0.886   0.7694   0.7766     C
O        0.888  0.68501  0.67841     O
H       0.8897   0.2204   0.2823     H
O        0.891  0.83188  0.64217     O
P       0.8916  0.33489  0.84126     P
N       0.8933   0.2798   0.5979     N
Zn      0.8971  0.10867  0.37489    Zn
Zn     0.90363  0.21275  0.86119    Zn
O       0.9043  0.51209  0.31883     O
O       0.9116  0.36794  0.79357     O
C       0.9148   0.7532   0.5561     C
C       0.9153   0.7533    0.419     C
O       0.9157  0.96677  0.28088     O
P       0.9182  0.35701  0.33892     P
C       0.9191   0.2078   0.2506     C
H        0.921   0.8166   0.0378     H
O       0.9328   0.6032   0.6255     O
H        0.934   0.3341   0.0478     H
O       0.9348  0.05642  0.32112     O
C       0.9353   0.2046   0.9693     C
C       0.9367   0.3529   0.1655     C
O       0.9492  0.63641  0.11744     O
O       0.9527  0.06834  0.43702     O
H       0.9789   0.2339   0.4185     H
H       0.9791   0.8446   0.8739     H
C       0.9805   0.7649   0.5089     C
H       0.9808   0.5831   0.5983     H
H       0.9819   0.2002   0.0437     H
C       0.9829   0.3477   0.0785     C
N        0.991  0.77576  0.34164     N
H       0.9917   0.7949   0.3177     H
C       0.9969   0.1689   0.1576     C
O       0.9989  0.72043  0.16861     O
O       0.9995   0.5089  0.18799     O
