data_I
_chemical_name_common  '/home/zhangsd/repos/MofS-CGCNN/ML/data/SSD/clean_cifs/GUFXEM_clean'
_cell_length_a 16.73180
_cell_length_b 18.11050
_cell_length_c 16.47210
_cell_angle_alpha 90.00000
_cell_angle_beta  110.61800
_cell_angle_gamma 90.00000
_space_group_name_H-M_alt      'P 1'


loop_
_space_group_symop_operation_xyz
  'x, y, z' 

loop_
_atom_site_label
_atom_site_fract_x
_atom_site_fract_y
_atom_site_fract_z
_atom_site_type_symbol
Zn         0.0      0.0      0.5    Zn
Zn         0.0      0.5      0.0    Zn
C       0.0086  0.24832   0.7847     C
C       0.0086  0.25168   0.2847     C
O      0.02303  0.60811  0.98405     O
O      0.02303  0.89189  0.48405     O
H       0.0269   0.2292   0.3389     H
H       0.0269   0.2708   0.8389     H
C       0.0346  0.16886   0.6805     C
C       0.0346  0.33114   0.1805     C
C        0.048  0.68032   0.8769     C
C        0.048  0.81968   0.3769     C
C       0.0639  0.20294   0.7613     C
C       0.0639  0.29706   0.2613     C
H       0.0709   0.1379   0.6646     H
H       0.0709   0.3621   0.1646     H
H       0.0716   0.1583   0.9797     H
H       0.0716   0.3417   0.4797     H
C       0.0742  0.73973    0.273     C
C       0.0742  0.76027    0.773     C
C       0.0769  0.64263   0.9625     C
C       0.0769  0.85737   0.4625     C
O      0.09652  0.19874  0.99961     O
O      0.09652  0.30126  0.49961     O
C       0.1019  0.72654   0.8535     C
C       0.1019  0.77346   0.3535     C
O       0.1154  0.67073  0.17315     O
O       0.1154  0.82927  0.67315     O
O      0.12981  0.03097  0.52258     O
O      0.12981  0.46903  0.02258     O
H        0.131   0.1703   0.5315     H
H        0.131   0.3297   0.0315     H
C        0.135  0.69131   0.2505     C
C        0.135  0.80869   0.7505     C
H       0.1529   0.0813   0.7939     H
H       0.1529   0.4187   0.2939     H
C       0.1537  0.18976   0.8188     C
C       0.1537  0.31024   0.3188     C
O      0.15415  0.64966  0.00945     O
O      0.15415  0.85034  0.50945     O
H        0.157    0.735   0.8921     H
H        0.157    0.765   0.3921     H
C       0.1725   0.1862   0.0545     C
C       0.1725   0.3138   0.5545     C
H       0.1834   0.2064   0.3618     H
H       0.1834   0.2936   0.8618     H
Zn     0.18556   0.6105  0.12745    Zn
Zn     0.18556   0.8895  0.62745    Zn
C       0.1863  0.17579   0.5708     C
C       0.1863  0.32421   0.0708     C
C       0.1875   0.1197    0.824     C
C       0.1875   0.3803    0.324     C
C       0.1933   0.0395    0.591     C
C       0.1933   0.4605    0.091     C
O      0.20104  0.12474   0.0749     O
O      0.20104  0.37526   0.5749     O
O      0.20151  0.67451  0.31014     O
O      0.20151  0.82549  0.81014     O
C       0.2056   0.2462   0.8642     C
C       0.2056   0.2538   0.3642     C
C       0.2221  0.24563     0.59     C
C       0.2221  0.25437     0.09     C
O      0.22763  0.51054  0.14498     O
O      0.22763  0.98946  0.64498     O
C       0.2329   0.1147     0.61     C
C       0.2329   0.3853     0.11     C
O       0.2522  0.52259  0.35586     O
O       0.2522  0.97741  0.85586     O
C       0.2729   0.1055   0.8738     C
C       0.2729   0.3945   0.3738     C
C       0.2905   0.2331   0.9136     C
C       0.2905   0.2669   0.4136     C
O       0.2981  0.66067  0.17163     O
O       0.2981  0.83933  0.67163     O
C       0.3052   0.0293   0.8734     C
C       0.3052   0.4707   0.3734     C
C       0.3059  0.24728   0.1461     C
C       0.3059  0.25272   0.6461     C
Zn     0.30781  0.61736  0.36201    Zn
Zn     0.30781  0.88264  0.86201    Zn
C       0.3166  0.12307   0.6685     C
O       0.3166  0.14009   0.4394     O
O       0.3166  0.35991   0.9394     O
C       0.3166  0.37693   0.1685     C
C       0.3237   0.1624   0.9187     C
C       0.3237   0.3376   0.4187     C
H       0.3301   0.2005   0.1577     H
H       0.3301   0.2995   0.6577     H
H       0.3407   0.1046   0.4729     H
H       0.3407   0.3954   0.9729     H
O      0.34311  0.66005  0.47765     O
O      0.34311  0.83995  0.97765     O
H       0.3445   0.7477   0.5909     H
H       0.3445   0.7523   0.0909     H
C       0.3464   0.2039   0.4564     C
C       0.3464   0.2961   0.9564     C
H       0.3472   0.0819   0.6963     H
H       0.3472   0.4181   0.1963     H
C        0.354  0.19237    0.685     C
C        0.354  0.30763    0.185     C
C       0.3637   0.6782   0.2321     C
C       0.3637   0.8218   0.7321     C
H       0.3803   0.1535   0.9526     H
H       0.3803   0.3465   0.4526     H
O      0.38313  0.01828  0.88579     O
O      0.38313  0.48172  0.38579     O
O      0.38423  0.65616  0.30854     O
O      0.38423  0.84384  0.80854     O
C       0.3971  0.73571   0.6323     C
C       0.3971  0.76429   0.1323     C
C       0.4191  0.64674   0.5267     C
C       0.4191  0.85326   0.0267     C
O       0.4208   0.2178   0.5065     O
O       0.4208   0.2822   0.0065     O
C       0.4233  0.73008   0.2119     C
C       0.4233  0.76992   0.7119     C
H       0.4376   0.1321   0.8378     H
H       0.4376   0.3679   0.3378     H
C       0.4432    0.204   0.7464     C
C       0.4432    0.296   0.2464     C
C       0.4481  0.68373  0.61337     C
C       0.4481  0.81627  0.11337     C
O      0.46868  0.60669  0.50628     O
O      0.46868  0.89331  0.00628     O
C       0.4719  0.16756   0.8255     C
C       0.4719  0.33244   0.3255     C
H       0.4783   0.2219   0.1737     H
H       0.4783   0.2781   0.6737     H
C       0.4963  0.24554   0.2273     C
C       0.4963  0.25446   0.7273     C
Zn         0.5      0.0      0.0    Zn
Zn         0.5      0.5      0.5    Zn
C       0.5037  0.74554   0.2727     C
C       0.5037  0.75446   0.7727     C
H       0.5217   0.7219   0.3263     H
H       0.5217   0.7781   0.8263     H
C       0.5281  0.66756   0.6745     C
C       0.5281  0.83244   0.1745     C
O      0.53132  0.10669  0.99372     O
O      0.53132  0.39331  0.49372     O
C       0.5519  0.18373  0.88663     C
C       0.5519  0.31627  0.38663     C
C       0.5568    0.704   0.7536     C
C       0.5568    0.796   0.2536     C
H       0.5624   0.6321   0.6622     H
H       0.5624   0.8679   0.1622     H
C       0.5767  0.23008   0.2881     C
C       0.5767  0.26992   0.7881     C
O       0.5792   0.7178   0.9935     O
O       0.5792   0.7822   0.4935     O
C       0.5809  0.14674   0.9733     C
C       0.5809  0.35326   0.4733     C
C       0.6029  0.23571   0.8677     C
C       0.6029  0.26429   0.3677     C
O      0.61577  0.15616  0.19146     O
O      0.61577  0.34384  0.69146     O
O      0.61687  0.51828  0.61421     O
O      0.61687  0.98172  0.11421     O
H       0.6197   0.6535   0.5474     H
H       0.6197   0.8465   0.0474     H
C       0.6363   0.1782   0.2679     C
C       0.6363   0.3218   0.7679     C
C        0.646  0.69237    0.815     C
C        0.646  0.80763    0.315     C
H       0.6528   0.5819   0.8037     H
H       0.6528   0.9181   0.3037     H
C       0.6536   0.7039   0.0436     C
C       0.6536   0.7961   0.5436     C
H       0.6555   0.2477   0.9091     H
H       0.6555   0.2523   0.4091     H
O      0.65689  0.16005  0.02235     O
O      0.65689  0.33995  0.52235     O
H       0.6593   0.6046   0.0271     H
H       0.6593   0.8954   0.5271     H
H       0.6699   0.7005   0.3423     H
H       0.6699   0.7995   0.8423     H
C       0.6763   0.6624   0.5813     C
C       0.6763   0.8376   0.0813     C
C       0.6834  0.62307   0.8315     C
O       0.6834  0.64009   0.0606     O
O       0.6834  0.85991   0.5606     O
C       0.6834  0.87693   0.3315     C
Zn     0.69219  0.11736  0.13799    Zn
Zn     0.69219  0.38264  0.63799    Zn
C       0.6941  0.74728   0.3539     C
C       0.6941  0.75272   0.8539     C
C       0.6948   0.5293   0.6266     C
C       0.6948   0.9707   0.1266     C
O       0.7019  0.16067  0.32837     O
O       0.7019  0.33933  0.82837     O
C       0.7095   0.7331   0.5864     C
C       0.7095   0.7669   0.0864     C
C       0.7271   0.6055   0.6262     C
C       0.7271   0.8945   0.1262     C
O       0.7478  0.02259  0.14414     O
O       0.7478  0.47741  0.64414     O
C       0.7671   0.6147     0.89     C
C       0.7671   0.8853     0.39     C
O      0.77237  0.01054  0.35502     O
O      0.77237  0.48946  0.85502     O
C       0.7779  0.74563     0.91     C
C       0.7779  0.75437     0.41     C
C       0.7944   0.7462   0.6358     C
C       0.7944   0.7538   0.1358     C
O      0.79849  0.17451  0.18986     O
O      0.79849  0.32549  0.68986     O
O      0.79896  0.62474   0.4251     O
O      0.79896  0.87526   0.9251     O
C       0.8067   0.5395    0.909     C
C       0.8067   0.9605    0.409     C
C       0.8125   0.6197    0.676     C
C       0.8125   0.8803    0.176     C
C       0.8137  0.67579   0.9292     C
C       0.8137  0.82421   0.4292     C
Zn     0.81444   0.1105  0.37255    Zn
Zn     0.81444   0.3895  0.87255    Zn
H       0.8166   0.7064   0.1382     H
H       0.8166   0.7936   0.6382     H
C       0.8275   0.6862   0.4455     C
C       0.8275   0.8138   0.9455     C
H        0.843    0.235   0.6079     H
H        0.843    0.265   0.1079     H
O      0.84585  0.14966  0.49055     O
O      0.84585  0.35034  0.99055     O
C       0.8463  0.68976   0.6812     C
C       0.8463  0.81024   0.1812     C
H       0.8471   0.5813   0.7061     H
H       0.8471   0.9187   0.2061     H
C        0.865  0.19131   0.2495     C
C        0.865  0.30869   0.7495     C
H        0.869   0.6703   0.9685     H
H        0.869   0.8297   0.4685     H
O      0.87019  0.53097  0.97742     O
O      0.87019  0.96903  0.47742     O
O       0.8846  0.17073  0.32685     O
O       0.8846  0.32927  0.82685     O
C       0.8981  0.22654   0.6465     C
C       0.8981  0.27346   0.1465     C
O      0.90348  0.69874  0.50039     O
O      0.90348  0.80126  0.00039     O
C       0.9231  0.14263   0.5375     C
C       0.9231  0.35737   0.0375     C
C       0.9258  0.23973    0.227     C
C       0.9258  0.26027    0.727     C
H       0.9284   0.6583   0.5203     H
H       0.9284   0.8417   0.0203     H
H       0.9291   0.6379   0.8354     H
H       0.9291   0.8621   0.3354     H
C       0.9361  0.70294   0.7387     C
C       0.9361  0.79706   0.2387     C
C        0.952  0.18032   0.6231     C
C        0.952  0.31968   0.1231     C
C       0.9654  0.66886   0.8195     C
C       0.9654  0.83114   0.3195     C
H       0.9731   0.7292   0.1611     H
H       0.9731   0.7708   0.6611     H
O      0.97697  0.10811  0.51595     O
O      0.97697  0.39189  0.01595     O
C       0.9914  0.74832   0.7153     C
C       0.9914  0.75168   0.2153     C
