data_I
_chemical_name_common  '/home/zhangsd/repos/MofS-CGCNN/ML/data/SSD/clean_cifs/GUJREK_clean'
_cell_length_a 12.35880
_cell_length_b 15.50110
_cell_length_c 34.30500
_cell_angle_alpha 90.00000
_cell_angle_beta  90.00000
_cell_angle_gamma 90.00000
_space_group_name_H-M_alt      'P 1'


loop_
_space_group_symop_operation_xyz
  'x, y, z' 

loop_
_atom_site_label
_atom_site_fract_x
_atom_site_fract_y
_atom_site_fract_z
_atom_site_type_symbol
Cu         0.0     0.25  0.26001    Cu
Cu         0.0     0.75  0.23999    Cu
Cu     0.00537      0.5     0.25    Cu
H       0.0073   0.0603   0.5613     H
H       0.0073   0.9397   0.9387     H
H       0.0167   0.3352   0.9348     H
H       0.0167   0.6648   0.5652     H
C       0.0289   0.3818   0.8793     C
C       0.0289   0.6182   0.6207     C
C       0.0296   0.1252   0.6125     C
C       0.0296   0.8748   0.8875     C
H       0.0383   0.3461   0.6124     H
H       0.0383   0.6539   0.8876     H
H       0.0412   0.0931   0.8788     H
H       0.0412   0.9069   0.6212     H
C       0.0579    0.071   0.5815     C
C       0.0579    0.929   0.9185     C
C       0.0634   0.3401    0.913     C
C       0.0634   0.6599    0.587     C
H       0.0683   0.4144   0.8236     H
H       0.0683   0.5856   0.6764     H
H       0.0806    0.171   0.6656     H
H       0.0806    0.829   0.8344     H
N       0.0866   0.1618   0.2923     N
N       0.0866   0.8382   0.2077     N
N       0.0919   0.0728   0.2859     N
N       0.0919   0.9272   0.2141     N
C       0.0938   0.3878   0.8468     C
C       0.0938   0.6122   0.6532     C
C       0.1007   0.1372   0.6437     C
C       0.1007   0.8628   0.8563     C
N       0.1087   0.4128   0.2244     N
N       0.1087   0.5872   0.2756     N
N       0.1101    0.323   0.2282     N
N       0.1101    0.677   0.2718     N
O       0.1188   0.0554  0.97413     O
O       0.1188   0.9446  0.52587     O
S      0.11951  0.12863  0.19067     S
S      0.11951  0.87137  0.30933     S
H       0.1196   0.1982   0.7916     H
H       0.1196   0.8018   0.7084     H
H       0.1229   0.3062   0.3281     H
H       0.1229   0.6938   0.1719     H
H       0.1269   0.0387   0.7958     H
H       0.1269   0.9613   0.7042     H
O       0.1333   0.2328  0.97364     O
O       0.1333   0.7672  0.52636     O
Cu     0.15009  0.14229   0.0137    Cu
Cu     0.15009  0.85771   0.4863    Cu
H       0.1604   0.4369   0.3017     H
H       0.1604   0.5631   0.1983     H
C       0.1612    0.032   0.5802     C
C       0.1612    0.968   0.9198     C
C       0.1626   0.1816   0.3172     C
C       0.1626   0.8184   0.1828     C
C       0.1676   0.3056   0.9141     C
C       0.1676   0.6944   0.5859     C
C       0.1744   0.0428   0.3066     C
C       0.1744   0.9572   0.1934     C
C       0.1825   0.4339   0.1977     C
C       0.1825   0.5661   0.3023     C
C       0.1843   0.1666    0.796     C
C       0.1843   0.8334    0.704     C
C       0.1846   0.2683   0.3333     C
C       0.1846   0.7317   0.1667     C
C        0.186   0.2943   0.2044     C
C        0.186   0.7057   0.2956     C
H       0.1864   0.4743   0.3442     H
H       0.1864   0.5257   0.1558     H
C       0.1881   0.0752   0.7988     C
C       0.1881   0.9248   0.7012     C
C       0.1922   0.0278   0.9508     C
C       0.1922   0.9722   0.5492     C
H       0.1942   0.2886    0.118     H
H       0.1942   0.7114    0.382     H
H       0.1959    0.264   0.3616     H
H       0.1959    0.736   0.1384     H
C       0.1975   0.3537   0.8488     C
C       0.1975   0.6463   0.6512     C
O       0.1988   0.2302    0.051     O
O       0.1988   0.7698    0.449     O
H          0.2   0.0201   0.3894     H
H          0.2   0.9799   0.1106     H
C        0.202   0.2536   0.9483     C
C        0.202   0.7464   0.5517     C
C       0.2023   0.0981   0.6417     C
C       0.2023   0.9019   0.8583     C
C       0.2045   0.4781   0.3164     C
C       0.2045   0.5219   0.1836     C
O       0.2097    0.053   0.0479     O
O       0.2097    0.947   0.4521     O
C       0.2107   0.0464   0.1939     C
C       0.2107   0.9536   0.3061     C
C       0.2173   0.2038   0.1996     C
C       0.2173   0.7962   0.3004     C
H       0.2187   0.4647   0.6873     H
H       0.2187   0.5353   0.8127     H
N       0.2204   0.1088    0.327     N
N       0.2204   0.8912    0.173     N
C       0.2306   0.0465   0.6108     C
C       0.2306   0.9535   0.8892     C
N       0.2316   0.3616  0.18444     N
N       0.2316   0.6384  0.31556     N
C       0.2349   0.3123   0.8816     C
C       0.2349   0.6877   0.6184     C
H       0.2497   0.2921   0.3211     H
H       0.2497   0.7079   0.1789     H
H       0.2503   0.2921   0.6789     H
H       0.2503   0.7079   0.8211     H
C       0.2651   0.3123   0.1184     C
C       0.2651   0.6877   0.3816     C
N       0.2684   0.3616  0.81556     N
N       0.2684   0.6384  0.68444     N
C       0.2694   0.0465   0.3892     C
C       0.2694   0.9535   0.1108     C
N       0.2796   0.1088    0.673     N
N       0.2796   0.8912    0.827     N
H       0.2813   0.4647   0.3127     H
H       0.2813   0.5353   0.1873     H
C       0.2827   0.2038   0.8004     C
C       0.2827   0.7962   0.6996     C
C       0.2893   0.0464   0.8061     C
C       0.2893   0.9536   0.6939     C
O       0.2903    0.053   0.9521     O
O       0.2903    0.947   0.5479     O
C       0.2955   0.4781   0.6836     C
C       0.2955   0.5219   0.8164     C
C       0.2977   0.0981   0.3583     C
C       0.2977   0.9019   0.1417     C
C        0.298   0.2536   0.0517     C
C        0.298   0.7464   0.4483     C
H          0.3   0.0201   0.6106     H
H          0.3   0.9799   0.8894     H
O       0.3012   0.2302    0.949     O
O       0.3012   0.7698    0.551     O
C       0.3025   0.3537   0.1512     C
C       0.3025   0.6463   0.3488     C
H       0.3041    0.264   0.6384     H
H       0.3041    0.736   0.8616     H
H       0.3058   0.2886    0.882     H
H       0.3058   0.7114    0.618     H
C       0.3078   0.0278   0.0492     C
C       0.3078   0.9722   0.4508     C
C       0.3119   0.0752   0.2012     C
C       0.3119   0.9248   0.2988     C
H       0.3136   0.4743   0.6558     H
H       0.3136   0.5257   0.8442     H
C        0.314   0.2943   0.7956     C
C        0.314   0.7057   0.7044     C
C       0.3154   0.2683   0.6667     C
C       0.3154   0.7317   0.8333     C
C       0.3157   0.1666    0.204     C
C       0.3157   0.8334    0.296     C
C       0.3175   0.4339   0.8023     C
C       0.3175   0.5661   0.6977     C
C       0.3256   0.0428   0.6934     C
C       0.3256   0.9572   0.8066     C
C       0.3324   0.3056   0.0859     C
C       0.3324   0.6944   0.4141     C
C       0.3374   0.1816   0.6828     C
C       0.3374   0.8184   0.8172     C
C       0.3388    0.032   0.4198     C
C       0.3388    0.968   0.0802     C
H       0.3396   0.4369   0.6983     H
H       0.3396   0.5631   0.8017     H
Cu     0.34991  0.14229   0.9863    Cu
Cu     0.34991  0.85771   0.5137    Cu
O       0.3667   0.2328  0.02636     O
O       0.3667   0.7672  0.47364     O
H       0.3731   0.0387   0.2042     H
H       0.3731   0.9613   0.2958     H
H       0.3771   0.3062   0.6719     H
H       0.3771   0.6938   0.8281     H
H       0.3804   0.1982   0.2084     H
H       0.3804   0.8018   0.2916     H
S      0.38049  0.12863  0.80933     S
S      0.38049  0.87137  0.69067     S
O       0.3812   0.0554  0.02587     O
O       0.3812   0.9446  0.47413     O
N       0.3899    0.323   0.7718     N
N       0.3899    0.677   0.7282     N
N       0.3913   0.4128   0.7756     N
N       0.3913   0.5872   0.7244     N
C       0.3993   0.1372   0.3563     C
C       0.3993   0.8628   0.1437     C
C       0.4062   0.3878   0.1532     C
C       0.4062   0.6122   0.3468     C
N       0.4081   0.0728   0.7141     N
N       0.4081   0.9272   0.7859     N
N       0.4134   0.1618   0.7077     N
N       0.4134   0.8382   0.7923     N
H       0.4194    0.171   0.3344     H
H       0.4194    0.829   0.1656     H
H       0.4317   0.4144   0.1764     H
H       0.4317   0.5856   0.3236     H
C       0.4366   0.3401    0.087     C
C       0.4366   0.6599    0.413     C
C       0.4421    0.071   0.4185     C
C       0.4421    0.929   0.0815     C
H       0.4588   0.0931   0.1212     H
H       0.4588   0.9069   0.3788     H
H       0.4617   0.3461   0.3876     H
H       0.4617   0.6539   0.1124     H
C       0.4704   0.1252   0.3875     C
C       0.4704   0.8748   0.1125     C
C       0.4711   0.3818   0.1207     C
C       0.4711   0.6182   0.3793     C
H       0.4833   0.3352   0.0652     H
H       0.4833   0.6648   0.4348     H
H       0.4927   0.0603   0.4387     H
H       0.4927   0.9397   0.0613     H
Cu     0.49463      0.5     0.75    Cu
Cu         0.5     0.25  0.73999    Cu
Cu         0.5     0.75  0.76001    Cu
Cu     0.50537      0.0     0.75    Cu
H       0.5073   0.4397   0.4387     H
H       0.5073   0.5603   0.0613     H
H       0.5167   0.1648   0.0652     H
H       0.5167   0.8352   0.4348     H
C       0.5289   0.1182   0.1207     C
C       0.5289   0.8818   0.3793     C
C       0.5296   0.3748   0.3875     C
C       0.5296   0.6252   0.1125     C
H       0.5383   0.1539   0.3876     H
H       0.5383   0.8461   0.1124     H
H       0.5412   0.4069   0.1212     H
H       0.5412   0.5931   0.3788     H
C       0.5579    0.429   0.4185     C
C       0.5579    0.571   0.0815     C
C       0.5634   0.1599    0.087     C
C       0.5634   0.8401    0.413     C
H       0.5683   0.0856   0.1764     H
H       0.5683   0.9144   0.3236     H
H       0.5806    0.329   0.3344     H
H       0.5806    0.671   0.1656     H
N       0.5866   0.3382   0.7077     N
N       0.5866   0.6618   0.7923     N
N       0.5919   0.4272   0.7141     N
N       0.5919   0.5728   0.7859     N
C       0.5938   0.1122   0.1532     C
C       0.5938   0.8878   0.3468     C
C       0.6007   0.3628   0.3563     C
C       0.6007   0.6372   0.1437     C
N       0.6087   0.0872   0.7756     N
N       0.6087   0.9128   0.7244     N
N       0.6101    0.177   0.7718     N
N       0.6101    0.823   0.7282     N
O       0.6188   0.4446  0.02587     O
O       0.6188   0.5554  0.47413     O
S      0.61951  0.37137  0.80933     S
S      0.61951  0.62863  0.69067     S
H       0.6196   0.3018   0.2084     H
H       0.6196   0.6982   0.2916     H
H       0.6229   0.1938   0.6719     H
H       0.6229   0.8062   0.8281     H
H       0.6269   0.4613   0.2042     H
H       0.6269   0.5387   0.2958     H
O       0.6333   0.2672  0.02636     O
O       0.6333   0.7328  0.47364     O
Cu     0.65009  0.35771   0.9863    Cu
Cu     0.65009  0.64229   0.5137    Cu
H       0.6604   0.0631   0.6983     H
H       0.6604   0.9369   0.8017     H
C       0.6612    0.468   0.4198     C
C       0.6612    0.532   0.0802     C
C       0.6626   0.3184   0.6828     C
C       0.6626   0.6816   0.8172     C
C       0.6676   0.1944   0.0859     C
C       0.6676   0.8056   0.4141     C
C       0.6744   0.4572   0.6934     C
C       0.6744   0.5428   0.8066     C
C       0.6825   0.0661   0.8023     C
C       0.6825   0.9339   0.6977     C
C       0.6843   0.3334    0.204     C
C       0.6843   0.6666    0.296     C
C       0.6846   0.2317   0.6667     C
C       0.6846   0.7683   0.8333     C
C        0.686   0.2057   0.7956     C
C        0.686   0.7943   0.7044     C
H       0.6864   0.0257   0.6558     H
H       0.6864   0.9743   0.8442     H
C       0.6881   0.4248   0.2012     C
C       0.6881   0.5752   0.2988     C
C       0.6922   0.4722   0.0492     C
C       0.6922   0.5278   0.4508     C
H       0.6942   0.2114    0.882     H
H       0.6942   0.7886    0.618     H
H       0.6959    0.236   0.6384     H
H       0.6959    0.764   0.8616     H
C       0.6975   0.1463   0.1512     C
C       0.6975   0.8537   0.3488     C
O       0.6988   0.2698    0.949     O
O       0.6988   0.7302    0.551     O
H          0.7   0.4799   0.6106     H
H          0.7   0.5201   0.8894     H
C        0.702   0.2464   0.0517     C
C        0.702   0.7536   0.4483     C
C       0.7023   0.4019   0.3583     C
C       0.7023   0.5981   0.1417     C
C       0.7045   0.0219   0.6836     C
C       0.7045   0.9781   0.8164     C
O       0.7097    0.447   0.9521     O
O       0.7097    0.553   0.5479     O
C       0.7107   0.4536   0.8061     C
C       0.7107   0.5464   0.6939     C
C       0.7173   0.2962   0.8004     C
C       0.7173   0.7038   0.6996     C
H       0.7187   0.0353   0.3127     H
H       0.7187   0.9647   0.1873     H
N       0.7204   0.3912    0.673     N
N       0.7204   0.6088    0.827     N
C       0.7306   0.4535   0.3892     C
C       0.7306   0.5465   0.1108     C
N       0.7316   0.1384  0.81556     N
N       0.7316   0.8616  0.68444     N
C       0.7349   0.1877   0.1184     C
C       0.7349   0.8123   0.3816     C
H       0.7497   0.2079   0.6789     H
H       0.7497   0.7921   0.8211     H
H       0.7503   0.2079   0.3211     H
H       0.7503   0.7921   0.1789     H
C       0.7651   0.1877   0.8816     C
C       0.7651   0.8123   0.6184     C
N       0.7684   0.1384  0.18444     N
N       0.7684   0.8616  0.31556     N
C       0.7694   0.4535   0.6108     C
C       0.7694   0.5465   0.8892     C
N       0.7796   0.3912    0.327     N
N       0.7796   0.6088    0.173     N
H       0.7813   0.0353   0.6873     H
H       0.7813   0.9647   0.8127     H
C       0.7827   0.2962   0.1996     C
C       0.7827   0.7038   0.3004     C
C       0.7893   0.4536   0.1939     C
C       0.7893   0.5464   0.3061     C
O       0.7903    0.447   0.0479     O
O       0.7903    0.553   0.4521     O
C       0.7955   0.0219   0.3164     C
C       0.7955   0.9781   0.1836     C
C       0.7977   0.4019   0.6417     C
C       0.7977   0.5981   0.8583     C
C        0.798   0.2464   0.9483     C
C        0.798   0.7536   0.5517     C
H          0.8   0.4799   0.3894     H
H          0.8   0.5201   0.1106     H
O       0.8012   0.2698    0.051     O
O       0.8012   0.7302    0.449     O
C       0.8025   0.1463   0.8488     C
C       0.8025   0.8537   0.6512     C
H       0.8041    0.236   0.3616     H
H       0.8041    0.764   0.1384     H
H       0.8058   0.2114    0.118     H
H       0.8058   0.7886    0.382     H
C       0.8078   0.4722   0.9508     C
C       0.8078   0.5278   0.5492     C
C       0.8119   0.4248   0.7988     C
C       0.8119   0.5752   0.7012     C
H       0.8136   0.0257   0.3442     H
H       0.8136   0.9743   0.1558     H
C        0.814   0.2057   0.2044     C
C        0.814   0.7943   0.2956     C
C       0.8154   0.2317   0.3333     C
C       0.8154   0.7683   0.1667     C
C       0.8157   0.3334    0.796     C
C       0.8157   0.6666    0.704     C
C       0.8175   0.0661   0.1977     C
C       0.8175   0.9339   0.3023     C
C       0.8256   0.4572   0.3066     C
C       0.8256   0.5428   0.1934     C
C       0.8324   0.1944   0.9141     C
C       0.8324   0.8056   0.5859     C
C       0.8374   0.3184   0.3172     C
C       0.8374   0.6816   0.1828     C
C       0.8388    0.468   0.5802     C
C       0.8388    0.532   0.9198     C
H       0.8396   0.0631   0.3017     H
H       0.8396   0.9369   0.1983     H
Cu     0.84991  0.35771   0.0137    Cu
Cu     0.84991  0.64229   0.4863    Cu
O       0.8667   0.2672  0.97364     O
O       0.8667   0.7328  0.52636     O
H       0.8731   0.4613   0.7958     H
H       0.8731   0.5387   0.7042     H
H       0.8771   0.1938   0.3281     H
H       0.8771   0.8062   0.1719     H
H       0.8804   0.3018   0.7916     H
H       0.8804   0.6982   0.7084     H
S      0.88049  0.37137  0.19067     S
S      0.88049  0.62863  0.30933     S
O       0.8812   0.4446  0.97413     O
O       0.8812   0.5554  0.52587     O
N       0.8899    0.177   0.2282     N
N       0.8899    0.823   0.2718     N
N       0.8913   0.0872   0.2244     N
N       0.8913   0.9128   0.2756     N
C       0.8993   0.3628   0.6437     C
C       0.8993   0.6372   0.8563     C
C       0.9062   0.1122   0.8468     C
C       0.9062   0.8878   0.6532     C
N       0.9081   0.4272   0.2859     N
N       0.9081   0.5728   0.2141     N
N       0.9134   0.3382   0.2923     N
N       0.9134   0.6618   0.2077     N
H       0.9194    0.329   0.6656     H
H       0.9194    0.671   0.8344     H
H       0.9317   0.0856   0.8236     H
H       0.9317   0.9144   0.6764     H
C       0.9366   0.1599    0.913     C
C       0.9366   0.8401    0.587     C
C       0.9421    0.429   0.5815     C
C       0.9421    0.571   0.9185     C
H       0.9588   0.4069   0.8788     H
H       0.9588   0.5931   0.6212     H
H       0.9617   0.1539   0.6124     H
H       0.9617   0.8461   0.8876     H
C       0.9704   0.3748   0.6125     C
C       0.9704   0.6252   0.8875     C
C       0.9711   0.1182   0.8793     C
C       0.9711   0.8818   0.6207     C
H       0.9833   0.1648   0.9348     H
H       0.9833   0.8352   0.5652     H
H       0.9927   0.4397   0.5613     H
H       0.9927   0.5603   0.9387     H
Cu     0.99463      0.0     0.25    Cu
