data_I
_chemical_name_common  '/home/zhangsd/repos/MofS-CGCNN/ML/data/SSD/clean_cifs/HADXOC_clean'
_cell_length_a  6.80610
_cell_length_b  8.24680
_cell_length_c  9.09560
_cell_angle_alpha 103.82400
_cell_angle_beta  94.82300
_cell_angle_gamma 102.71900
_space_group_name_H-M_alt      'P 1'


loop_
_space_group_symop_operation_xyz
  'x, y, z' 

loop_
_atom_site_label
_atom_site_fract_x
_atom_site_fract_y
_atom_site_fract_z
_atom_site_type_symbol
Co         0.0      0.0      0.0    Co
O        0.076   0.7964   0.0937     O
U      0.11287  0.74819  0.27496     U
O       0.1174   0.1801   0.2056     O
O       0.2034   0.1932   0.6901     O
O       0.2143    0.047    0.376     O
C       0.2211    0.178    0.325     C
O       0.2444   0.5269   0.1377     O
C       0.3654   0.3432   0.4159     C
C       0.3735   0.4486   0.1755     C
C       0.3801   0.2293   0.6525     C
C       0.4322    0.475   0.3452     C
C       0.4358   0.3682   0.5709     C
O       0.4602   0.3608   0.0863     O
O       0.4845   0.8391   0.3082     O
O       0.5155   0.1609   0.6918     O
O       0.5398   0.6392   0.9137     O
C       0.5642   0.6318   0.4291     C
C       0.5678    0.525   0.6548     C
C       0.6199   0.7707   0.3475     C
C       0.6265   0.5514   0.8245     C
C       0.6346   0.6568   0.5841     C
O       0.7556   0.4731   0.8623     O
C       0.7789    0.822    0.675     C
O       0.7857    0.953    0.624     O
O       0.7966   0.8068   0.3099     O
O       0.8826   0.8199   0.7944     O
U      0.88713  0.25181  0.72504     U
O        0.924   0.2036   0.9063     O
