data_I
_chemical_name_common  '/home/zhangsd/repos/MofS-CGCNN/ML/data/SSD/clean_cifs/HAFVUH_SL'
_cell_length_a 15.29270
_cell_length_b 15.29270
_cell_length_c 12.30100
_cell_angle_alpha 90.00000
_cell_angle_beta  90.00000
_cell_angle_gamma 90.00000
_space_group_name_H-M_alt      'P 1'


loop_
_space_group_symop_operation_xyz
  'x, y, z' 

loop_
_atom_site_label
_atom_site_fract_x
_atom_site_fract_y
_atom_site_fract_z
_atom_site_type_symbol
C          0.0      0.0    0.061     C
C          0.0      0.0   0.2883     C
H          0.0      0.0   0.3639     H
H          0.0      0.0   0.6361     H
C          0.0      0.0   0.7117     C
C          0.0      0.0    0.939     C
C          0.0      0.5    0.189     C
C          0.0      0.5    0.311     C
C          0.0      0.5   0.5383     C
H          0.0      0.5   0.6139     H
H         -0.0      0.5   0.8861     H
C         -0.0      0.5   0.9617     C
C       0.0367   0.0692   0.8808     C
C       0.0367   0.4308   0.3692     C
C       0.0404   0.0684   0.7678     C
C       0.0404   0.4316   0.4822     C
H       0.0592    0.117   0.9184     H
H       0.0592    0.383   0.3316     H
C       0.0684   0.0404   0.2322     C
C       0.0684   0.4596   0.0178     C
C       0.0692   0.0367   0.1192     C
C       0.0692   0.4633   0.1308     C
C       0.0877   0.1398   0.7082     C
C       0.0877   0.3602   0.5418     C
O      0.09694  0.21117   0.7544     O
O      0.09694  0.28883   0.4956     O
O       0.1155   0.1203   0.6146     O
O       0.1155   0.3797   0.6354     O
H        0.117   0.0592   0.0816     H
H        0.117   0.4408   0.1684     H
O       0.1203   0.1155   0.3854     O
O       0.1203   0.3845   0.8646     O
C       0.1398   0.0877   0.2918     C
C       0.1398   0.4123   0.9582     C
Mg      0.1848   0.1848      0.5    Mg
Mg      0.1848   0.3152     0.75    Mg
H      0.20268  0.21161  0.90903     H
H      0.20268  0.28839  0.34097     H
O      0.21117  0.09694   0.2456     O
O      0.21117  0.40306   0.0044     O
H      0.21161  0.20268  0.09097     H
H      0.21161  0.29732  0.15903     H
O       0.2446     0.25    0.125     O
O         0.25   0.2446    0.875     O
O         0.25   0.2554    0.375     O
O       0.2554     0.25    0.625     O
H      0.28839  0.20268  0.65903     H
H      0.28839  0.29732  0.59097     H
O      0.28883  0.09694   0.5044     O
O      0.28883  0.40306   0.7456     O
H      0.29732  0.21161  0.84097     H
H      0.29732  0.28839  0.40903     H
Mg      0.3152   0.1848     0.25    Mg
Mg      0.3152   0.3152      0.0    Mg
C       0.3602   0.0877   0.4582     C
C       0.3602   0.4123   0.7918     C
O       0.3797   0.1155   0.3646     O
O       0.3797   0.3845   0.8854     O
H        0.383   0.0592   0.6684     H
H        0.383   0.4408   0.5816     H
O       0.3845   0.1203   0.1354     O
O       0.3845   0.3797   0.1146     O
O      0.40306  0.21117   0.9956     O
O      0.40306  0.28883   0.2544     O
C       0.4123   0.1398   0.0418     C
C       0.4123   0.3602   0.2082     C
C       0.4308   0.0367   0.6308     C
C       0.4308   0.4633   0.6192     C
C       0.4316   0.0404   0.5178     C
C       0.4316   0.4596   0.7322     C
H       0.4408    0.117   0.8316     H
H       0.4408    0.383   0.4184     H
C       0.4596   0.0684   0.9822     C
C       0.4596   0.4316   0.2678     C
C       0.4633   0.0692   0.8692     C
C       0.4633   0.4308   0.3808     C
C          0.5      0.0   0.0383     C
H          0.5      0.0   0.1139     H
H          0.5      0.0   0.3861     H
C          0.5      0.0   0.4617     C
C          0.5      0.0    0.689     C
C          0.5      0.0    0.811     C
H          0.5      0.5   0.1361     H
C          0.5      0.5   0.2117     C
C          0.5      0.5    0.439     C
C          0.5      0.5    0.561     C
C          0.5      0.5   0.7883     C
H          0.5      0.5   0.8639     H
C       0.5367   0.5692   0.3808     C
C       0.5367   0.9308   0.8692     C
C       0.5404   0.5684   0.2678     C
C       0.5404   0.9316   0.9822     C
H       0.5592    0.617   0.4184     H
H       0.5592    0.883   0.8316     H
C       0.5684   0.5404   0.7322     C
C       0.5684   0.9596   0.5178     C
C       0.5692   0.5367   0.6192     C
C       0.5692   0.9633   0.6308     C
C       0.5877   0.6398   0.2082     C
C       0.5877   0.8602   0.0418     C
O      0.59694  0.71117   0.2544     O
O      0.59694  0.78883   0.9956     O
O       0.6155   0.6203   0.1146     O
O       0.6155   0.8797   0.1354     O
H        0.617   0.5592   0.5816     H
H        0.617   0.9408   0.6684     H
O       0.6203   0.6155   0.8854     O
O       0.6203   0.8845   0.3646     O
C       0.6398   0.5877   0.7918     C
C       0.6398   0.9123   0.4582     C
Mg      0.6848   0.6848      0.0    Mg
Mg      0.6848   0.8152     0.25    Mg
H      0.70268  0.71161  0.40903     H
H      0.70268  0.78839  0.84097     H
O      0.71117  0.59694   0.7456     O
O      0.71117  0.90306   0.5044     O
H      0.71161  0.70268  0.59097     H
H      0.71161  0.79732  0.65903     H
O       0.7446     0.75    0.625     O
O         0.75   0.7446    0.375     O
O         0.75   0.7554    0.875     O
O       0.7554     0.75    0.125     O
H      0.78839  0.70268  0.15903     H
H      0.78839  0.79732  0.09097     H
O      0.78883  0.59694   0.0044     O
O      0.78883  0.90306   0.2456     O
H      0.79732  0.71161  0.34097     H
H      0.79732  0.78839  0.90903     H
Mg      0.8152   0.6848     0.75    Mg
Mg      0.8152   0.8152      0.5    Mg
C       0.8602   0.5877   0.9582     C
C       0.8602   0.9123   0.2918     C
O       0.8797   0.6155   0.8646     O
O       0.8797   0.8845   0.3854     O
H        0.883   0.5592   0.1684     H
H        0.883   0.9408   0.0816     H
O       0.8845   0.6203   0.6354     O
O       0.8845   0.8797   0.6146     O
O      0.90306  0.71117   0.4956     O
O      0.90306  0.78883   0.7544     O
C       0.9123   0.6398   0.5418     C
C       0.9123   0.8602   0.7082     C
C       0.9308   0.5367   0.1308     C
C       0.9308   0.9633   0.1192     C
C       0.9316   0.5404   0.0178     C
C       0.9316   0.9596   0.2322     C
H       0.9408    0.617   0.3316     H
H       0.9408    0.883   0.9184     H
C       0.9596   0.5684   0.4822     C
C       0.9596   0.9316   0.7678     C
C       0.9633   0.5692   0.3692     C
C       0.9633   0.9308   0.8808     C
