data_I
_chemical_name_common  '/home/zhangsd/repos/MofS-CGCNN/ML/data/SSD/clean_cifs/HAJDII_clean'
_cell_length_a 15.18340
_cell_length_b 15.18340
_cell_length_c 26.52820
_cell_angle_alpha 90.00000
_cell_angle_beta  90.00000
_cell_angle_gamma 120.00000
_space_group_name_H-M_alt      'P 1'


loop_
_space_group_symop_operation_xyz
  'x, y, z' 

loop_
_atom_site_label
_atom_site_fract_x
_atom_site_fract_y
_atom_site_fract_z
_atom_site_type_symbol
Tb         0.0      0.5  0.75536    Tb
Tb         0.0      0.5  0.91131    Tb
C       0.0003   0.3812  0.48173     C
C       0.0003   0.6191  0.18493     C
H       0.0045   0.3871  0.55773     H
H       0.0045   0.6174  0.10893     H
C       0.0374   0.3918  0.13643     C
C       0.0374   0.6456  0.53023     C
H       0.0406   0.3949  0.25783     H
H       0.0406   0.6457  0.40883     H
O       0.0574   0.4148  0.69777     O
O       0.0574   0.6426   0.9689     O
C       0.0638   0.3988  0.22503     C
C       0.0638    0.665  0.44163     C
H       0.0939   0.3105  0.42423     H
H       0.0939   0.7834  0.24243     H
O        0.098   0.4587  0.47733     O
O        0.098   0.6393  0.18933     O
O       0.1062   0.4712  0.80387     O
O       0.1062    0.635   0.8628     O
O       0.1149   0.4476  0.88607     O
O       0.1149   0.6673   0.7806     O
C       0.1189    0.483  0.67567     C
C       0.1189   0.6359    0.991     C
H       0.1225   0.3252  0.63967     H
H       0.1225   0.7973    0.027     H
O       0.1326   0.5611   0.9769     O
O       0.1326   0.5715  0.68977     O
C       0.1361    0.416  0.12883     C
C       0.1361   0.7201  0.53783     C
C       0.1432     0.45  0.84167     C
C       0.1432   0.6932    0.825     C
C       0.1467   0.3743  0.41493     C
C       0.1467   0.7724  0.25173     C
C       0.1588   0.4595  0.43853     C
C       0.1588   0.6993  0.22813     C
H       0.1607    0.424  0.09603     H
H       0.1607   0.7367  0.57063     H
C       0.1642    0.423  0.21613     C
C       0.1642   0.7412  0.45053     C
C       0.1701   0.3832  0.62267     C
C       0.1701   0.7869    0.044     C
C       0.1814   0.4759  0.63577     C
C       0.1814   0.7055   0.0309     C
C          0.2   0.4287  0.16853     C
C          0.2   0.7713  0.49813     C
H       0.2027   0.3252  0.36033     H
H       0.2027   0.8775  0.30633     H
H       0.2075   0.4354  0.24333     H
H       0.2075   0.7721  0.42333     H
C       0.2131   0.3832  0.37733     C
C       0.2131   0.8299  0.28933     C
H       0.2166   0.3105  0.57577     H
H       0.2166   0.9061   0.0909     H
C       0.2276   0.3743  0.58507     C
C       0.2276   0.8533   0.0816     C
H       0.2279   0.4354  0.75667     H
H       0.2279   0.7925     0.91     H
C       0.2287   0.4287  0.83147     C
C       0.2287      0.8   0.8352     C
C       0.2401   0.5528  0.42743     C
C       0.2401   0.6873  0.23923     C
H       0.2508   0.6104  0.44493     H
H       0.2508   0.6404  0.22173     H
C       0.2525   0.5602  0.61107     C
C       0.2525   0.6923   0.0556     C
C       0.2588    0.423  0.78387     C
C       0.2588   0.8358   0.8828     C
H       0.2616   0.6236  0.61967     H
H       0.2616    0.638    0.047     H
H       0.2633    0.424  0.90397     H
H       0.2633   0.8393   0.7627     H
C       0.2799    0.416  0.87117     C
C       0.2799   0.8639   0.7955     C
C       0.2945   0.4759  0.36423     C
C       0.2945   0.8186  0.30243     C
C       0.3007   0.4595  0.56147     C
C       0.3007   0.8412   0.1052     C
C       0.3068     0.45  0.15833     C
C       0.3068   0.8568  0.50833     C
C       0.3077   0.5602  0.38893     C
C       0.3077   0.7475  0.27773     C
H       0.3105   0.0939   0.9091     H
H       0.3105   0.2166  0.75757     H
C       0.3127   0.5528  0.57257     C
C       0.3127   0.7599   0.0941     C
H       0.3252   0.1225  0.69367     H
H       0.3252   0.2027    0.973     H
O       0.3327   0.4476  0.11393     O
O       0.3327   0.8851  0.55273     O
C        0.335   0.3988  0.77497     C
C        0.335   0.9362   0.8917     C
H       0.3543   0.3949  0.74217     H
H       0.3543   0.9594   0.9245     H
C       0.3544   0.3918  0.86357     C
C       0.3544   0.9626   0.8031     C
O       0.3574   0.4148  0.30223     O
O       0.3574   0.9426  0.36443     O
H       0.3596   0.6104  0.55507     H
H       0.3596   0.7492   0.1116     H
O       0.3607   0.4587  0.52267     O
O       0.3607    0.902    0.144     O
H        0.362   0.6236  0.38033     H
H        0.362   0.7384  0.28633     H
C       0.3641    0.483  0.32433     C
C       0.3641   0.8811  0.34233     C
O        0.365   0.4712  0.19613     O
O        0.365   0.8938  0.47053     O
C       0.3743   0.1467   0.9184     C
C       0.3743   0.2276  0.74827     C
H       0.3764    0.638    0.953     H
H       0.3764   0.7384  0.71367     H
C       0.3809   0.3812  0.51827     C
C       0.3809   0.9997   0.1484     C
C       0.3812   0.0003   0.8516     C
C       0.3812   0.3809  0.81507     C
H       0.3826   0.3871  0.44227     H
H       0.3826   0.9955   0.2244     H
C       0.3832   0.1701  0.71067     C
C       0.3832   0.2131    0.956     C
H       0.3871   0.0045   0.7756     H
H       0.3871   0.3826  0.89107     H
H       0.3896   0.6404  0.77827     H
H       0.3896   0.7492   0.8884     H
C       0.3918   0.0374   0.1969     C
C       0.3918   0.3544  0.46977     C
H       0.3949   0.0406   0.0755     H
H       0.3949   0.3543  0.59117     H
C       0.3988   0.0638   0.1083     C
C       0.3988    0.335  0.55837     C
O       0.4148   0.0574  0.63557     O
O       0.4148   0.3574   0.0311     O
C        0.416   0.1361   0.2045     C
C        0.416   0.2799  0.46217     C
C        0.423   0.1642   0.1172     C
C        0.423   0.2588  0.54947     C
H        0.424   0.1607   0.2373     H
H        0.424   0.2633  0.42937     H
O       0.4285   0.5611   0.0231     O
O       0.4285   0.8674  0.64357     O
C       0.4287      0.2   0.1648     C
C       0.4287   0.2287  0.50187     C
H       0.4354   0.2075     0.09     H
H       0.4354   0.2279  0.57667     H
O       0.4389   0.5715  0.31023     O
O       0.4389   0.8674  0.35643     O
C       0.4398   0.6923   0.9444     C
C       0.4398   0.7475  0.72227     C
C       0.4472   0.6873  0.76077     C
C       0.4472   0.7599   0.9059     C
O       0.4476   0.1149  0.44727     O
O       0.4476   0.3327   0.2194     O
C         0.45   0.1432  0.49167     C
C         0.45   0.3068    0.175     C
O       0.4587    0.098    0.856     O
O       0.4587   0.3607  0.81067     O
C       0.4595   0.1588   0.8948     C
C       0.4595   0.3007  0.77187     C
O       0.4712   0.1062  0.52947     O
O       0.4712    0.365   0.1372     O
C       0.4759   0.1814  0.69757     C
C       0.4759   0.2945   0.9691     C
C        0.483   0.1189  0.65767     C
C        0.483   0.3641    0.009     C
Tb         0.5      0.0  0.42202    Tb
Tb         0.5      0.0  0.57798    Tb
Tb         0.5      0.5  0.08869    Tb
Tb         0.5      0.5  0.24464    Tb
C        0.517   0.6359    0.009     C
C        0.517   0.8811  0.65767     C
C       0.5241   0.7055   0.9691     C
C       0.5241   0.8186  0.69757     C
O       0.5288    0.635   0.1372     O
O       0.5288   0.8938  0.52947     O
C       0.5405   0.6993  0.77187     C
C       0.5405   0.8412   0.8948     C
O       0.5413   0.6393  0.81067     O
O       0.5413    0.902    0.856     O
C         0.55   0.6932    0.175     C
C         0.55   0.8568  0.49167     C
O       0.5524   0.6673   0.2194     O
O       0.5524   0.8851  0.44727     O
C       0.5528   0.2401   0.9059     C
C       0.5528   0.3127  0.76077     C
C       0.5602   0.2525  0.72227     C
C       0.5602   0.3077   0.9444     C
O       0.5611   0.1326  0.35643     O
O       0.5611   0.4285  0.31023     O
H       0.5646   0.7721  0.57667     H
H       0.5646   0.7925     0.09     H
C       0.5713   0.7713  0.50187     C
C       0.5713      0.8   0.1648     C
O       0.5715   0.1326  0.64357     O
O       0.5715   0.4389   0.0231     O
H        0.576   0.7367  0.42937     H
H        0.576   0.8393   0.2373     H
C        0.577   0.7412  0.54947     C
C        0.577   0.8358   0.1172     C
C        0.584   0.7201  0.46217     C
C        0.584   0.8639   0.2045     C
O       0.5852   0.6426   0.0311     O
O       0.5852   0.9426  0.63557     O
C       0.6012    0.665  0.55837     C
C       0.6012   0.9362   0.1083     C
H       0.6051   0.6457  0.59117     H
H       0.6051   0.9594   0.0755     H
C       0.6082   0.6456  0.46977     C
C       0.6082   0.9626   0.1969     C
H       0.6104   0.2508   0.8884     H
H       0.6104   0.3596  0.77827     H
H       0.6129   0.6174  0.89107     H
H       0.6129   0.9955   0.7756     H
C       0.6168   0.7869    0.956     C
C       0.6168   0.8299  0.71067     C
H       0.6174   0.0045   0.2244     H
H       0.6174   0.6129  0.44227     H
C       0.6188   0.6191  0.81507     C
C       0.6188   0.9997   0.8516     C
C       0.6191   0.0003   0.1484     C
C       0.6191   0.6188  0.51827     C
H       0.6236   0.2616  0.71367     H
H       0.6236    0.362    0.953     H
C       0.6257   0.7724  0.74827     C
C       0.6257   0.8533   0.9184     C
O        0.635   0.1062  0.47053     O
O        0.635   0.5288  0.19613     O
C       0.6359   0.1189  0.34233     C
C       0.6359    0.517  0.32433     C
H        0.638   0.2616  0.28633     H
H        0.638   0.3764  0.38033     H
O       0.6393    0.098    0.144     O
O       0.6393   0.5413  0.52267     O
H       0.6404   0.2508   0.1116     H
H       0.6404   0.3896  0.55507     H
O       0.6426   0.0574  0.36443     O
O       0.6426   0.5852  0.30223     O
C       0.6456   0.0374   0.8031     C
C       0.6456   0.6082  0.86357     C
H       0.6457   0.0406   0.9245     H
H       0.6457   0.6051  0.74217     H
C        0.665   0.0638   0.8917     C
C        0.665   0.6012  0.77497     C
O       0.6673   0.1149  0.55273     O
O       0.6673   0.5524  0.11393     O
H       0.6748   0.7973    0.973     H
H       0.6748   0.8775  0.69367     H
C       0.6873   0.2401   0.0941     C
C       0.6873   0.4472  0.57257     C
H       0.6895   0.7834  0.75757     H
H       0.6895   0.9061   0.9091     H
C       0.6923   0.2525  0.27773     C
C       0.6923   0.4398  0.38893     C
C       0.6932   0.1432  0.50833     C
C       0.6932     0.55  0.15833     C
C       0.6993   0.1588   0.1052     C
C       0.6993   0.5405  0.56147     C
C       0.7055   0.1814  0.30243     C
C       0.7055   0.5241  0.36423     C
C       0.7201   0.1361   0.7955     C
C       0.7201    0.584  0.87117     C
H       0.7367   0.1607   0.7627     H
H       0.7367    0.576  0.90397     H
H       0.7384    0.362    0.047     H
H       0.7384   0.3764  0.61967     H
C       0.7412   0.1642   0.8828     C
C       0.7412    0.577  0.78387     C
C       0.7475   0.3077   0.0556     C
C       0.7475   0.4398  0.61107     C
H       0.7492   0.3596  0.22173     H
H       0.7492   0.3896  0.44493     H
C       0.7599   0.3127  0.23923     C
C       0.7599   0.4472  0.42743     C
C       0.7713      0.2   0.8352     C
C       0.7713   0.5713  0.83147     C
H       0.7721   0.2075     0.91     H
H       0.7721   0.5646  0.75667     H
C       0.7724   0.1467   0.0816     C
C       0.7724   0.6257  0.58507     C
H       0.7834   0.0939   0.0909     H
H       0.7834   0.6895  0.57577     H
C       0.7869   0.1701  0.28933     C
C       0.7869   0.6168  0.37733     C
H       0.7925   0.2279  0.42333     H
H       0.7925   0.5646  0.24333     H
H       0.7973   0.1225  0.30633     H
H       0.7973   0.6748  0.36033     H
C          0.8   0.2287  0.49813     C
C          0.8   0.5713  0.16853     C
C       0.8186   0.2945   0.0309     C
C       0.8186   0.5241  0.63577     C
C       0.8299   0.2131    0.044     C
C       0.8299   0.6168  0.62267     C
C       0.8358   0.2588  0.45053     C
C       0.8358    0.577  0.21613     C
H       0.8393   0.2633  0.57063     H
H       0.8393    0.576  0.09603     H
C       0.8412   0.3007  0.22813     C
C       0.8412   0.5405  0.43853     C
C       0.8533   0.2276  0.25173     C
C       0.8533   0.6257  0.41493     C
C       0.8568   0.3068    0.825     C
C       0.8568     0.55  0.84167     C
C       0.8639   0.2799  0.53783     C
C       0.8639    0.584  0.12883     C
O       0.8674   0.4285  0.68977     O
O       0.8674   0.4389   0.9769     O
H       0.8775   0.2027    0.027     H
H       0.8775   0.6748  0.63967     H
C       0.8811   0.3641    0.991     C
C       0.8811    0.517  0.67567     C
O       0.8851   0.3327   0.7806     O
O       0.8851   0.5524  0.88607     O
O       0.8938    0.365   0.8628     O
O       0.8938   0.5288  0.80387     O
O        0.902   0.3607  0.18933     O
O        0.902   0.5413  0.47733     O
H       0.9061   0.2166  0.24243     H
H       0.9061   0.6895  0.42423     H
C       0.9362    0.335  0.44163     C
C       0.9362   0.6012  0.22503     C
O       0.9426   0.3574   0.9689     O
O       0.9426   0.5852  0.69777     O
H       0.9594   0.3543  0.40883     H
H       0.9594   0.6051  0.25783     H
C       0.9626   0.3544  0.53023     C
C       0.9626   0.6082  0.13643     C
H       0.9955   0.3826  0.10893     H
H       0.9955   0.6129  0.55773     H
C       0.9997   0.3809  0.18493     C
C       0.9997   0.6188  0.48173     C
