data_I
_chemical_name_common  '/home/zhangsd/repos/MofS-CGCNN/ML/data/SSD/clean_cifs/HAJLOU_clean'
_cell_length_a 10.96720
_cell_length_b 15.05870
_cell_length_c 15.05870
_cell_angle_alpha 65.69480
_cell_angle_beta  75.95020
_cell_angle_gamma 104.05000
_space_group_name_H-M_alt      'P 1'


loop_
_space_group_symop_operation_xyz
  'x, y, z' 

loop_
_atom_site_label
_atom_site_fract_x
_atom_site_fract_y
_atom_site_fract_z
_atom_site_type_symbol
Fe         0.0      0.0      0.5    Fe
Fe         0.0      0.5     -0.0    Fe
N      0.00823  0.35147  0.04482     N
H       0.0087   0.3687   0.8658     H
C      0.01325  0.73867  0.91302     C
H       0.0208    0.633   0.3489     H
H       0.0283   0.7158   0.2367     H
H       0.0317   0.2373   0.5319     H
N      0.03222  0.59056  0.16285     N
C      0.03477  0.29388  0.46737     C
H       0.0432   0.2729   0.4133     H
S      0.04686  0.86536  0.85407     S
H       0.0491   0.6932   0.5171     H
N      0.04913  0.51418  0.14068     N
N      0.05305  0.04482  0.60371     N
C      0.07373  0.08698  0.65169     C
C      0.07382  0.67266   0.2724     C
C      0.08465  0.59721  0.23346     C
S      0.09907  0.14593  0.71943     S
H       0.1108   0.8776   0.6584     H
C      0.11641  0.47245  0.19972     C
H       0.1188   0.3248    0.266     H
H       0.1255   0.1342   0.2345     H
H        0.129   0.3692   0.1466     H
C      0.14014  0.52145  0.26003     C
H       0.1532   0.5822   0.5877     H
C      0.15362   0.3915  0.42804     C
N      0.15404  0.92411  0.50661     N
N      0.15692  0.87434  0.60402     N
C       0.1595  0.38745  0.19515     C
H       0.1654   0.7188   0.2571     H
S       0.1815  0.28057  0.86536     S
N      0.18981  0.14068  0.34514     N
N      0.19507  0.16285  0.24659     N
C      0.20026  0.49137  0.34059     C
H       0.2056   0.7692   0.7627     H
H        0.206   0.5908   0.6752     H
H       0.2127   0.9831   0.3109     H
C      0.22795   0.5826  0.61255     C
H       0.2296    0.706   0.9831     H
H       0.2297   0.6862   0.7271     H
N      0.22993  0.56928  0.92411     N
H       0.2308   0.3416    0.536     H
H       0.2332    0.464   0.8776     H
H       0.2345   0.8784    0.322     H
C      0.23658  0.89905  0.44741     C
C      0.23788  0.81954   0.6085     C
N      0.23906  0.39598  0.47836     N
H       0.2402   0.5158   0.6308     H
H       0.2591   0.4123   0.1699     H
C      0.25911  0.76125  0.70612     C
C      0.26361  0.93858  0.33295     C
H        0.265   0.2367   0.0475     H
C      0.27458  0.34831  0.73867     C
H       0.2756   0.1466   0.4842     H
N      0.28258  0.52164  0.87434     N
C      0.29111  0.83196  0.50863     C
H       0.3125   0.0475   0.7158     H
C      0.31601  0.55259  0.34646     C
C      0.31613  0.19972  0.32783     C
C      0.31811  0.23346  0.16933     C
C      0.32503  0.72847  0.93858     C
C      0.33753  0.65354  0.89905     C
N      0.33935  0.49339  0.43072     N
N      0.34324  0.39629  0.64853     N
C      0.34622   0.2724  0.05494     C
H       0.3478   0.7092   0.2709     H
C      0.35465  0.19515   0.4174     C
H       0.3559   0.7897   0.6932     H
C      0.35604  0.67217  0.52755     C
H       0.3561   0.7996   0.8784     H
H         0.36   0.2345   0.6313     H
H       0.3614   0.9801   0.2908     H
H       0.3697   0.3489   0.0181     H
H       0.3813   0.7291   0.9801     H
C      0.38131  0.78148  0.47855     C
H       0.3848    0.266   0.4092     H
H       0.3878   0.0181    0.633     H
C      0.40017  0.26003  0.21852     C
C      0.40116  0.05494  0.67266     C
C      0.40344  0.66705  0.27153     C
C      0.41834  0.57196  0.81954     C
H       0.4225   0.2571   0.0241     H
H        0.429   0.1699   0.4178     H
H       0.4338   0.4829   0.2103     H
H       0.4364   0.4681   0.7692     H
N      0.44166  0.24659  0.59056     N
H       0.4435    0.678   0.2004     H
H       0.4466   0.0241   0.7188     H
H       0.4565   0.4133   0.3138     H
C      0.45915  0.65941  0.83196     C
N      0.46505  0.65486  0.48582     N
H       0.4764   0.6891    0.294     H
C      0.48744  0.16933  0.59721     C
C      0.49786  0.53263  0.76125     C
Fe         0.5      0.5      0.5    Fe
C      0.50214  0.46737  0.23875     C
C      0.51256  0.83067  0.40279     C
H       0.5236   0.3109    0.706     H
N      0.53495  0.34514  0.51418     N
C      0.54085  0.34059  0.16804     C
H       0.5435   0.5867   0.6862     H
H       0.5534   0.9759   0.2812     H
H       0.5565    0.322   0.7996     H
N      0.55834  0.75341  0.40944     N
H       0.5636   0.5319   0.2308     H
H       0.5662   0.5171   0.7897     H
H        0.571   0.8301   0.5822     H
H       0.5775   0.7429   0.9759     H
C      0.58166  0.42804  0.18046     C
C      0.59656  0.33295  0.72847     C
C      0.59884  0.94506  0.32734     C
C      0.59983  0.73997  0.78148     C
H       0.6122   0.9819    0.367     H
H       0.6152    0.734   0.5908     H
C      0.61869  0.21852  0.52145     C
H       0.6187   0.2709   0.0199     H
H       0.6303   0.6511   0.9819     H
H       0.6386   0.0199   0.7092     H
H         0.64   0.7655   0.3687     H
H       0.6439   0.2004   0.1216     H
C      0.64396  0.32783  0.47245     C
H       0.6441   0.2103   0.3068     H
C      0.64535  0.80485   0.5826     C
H       0.6522   0.2908   0.7291     H
C      0.65378   0.7276  0.94506     C
N      0.65676  0.60371  0.35147     N
N      0.66065  0.50661  0.56928     N
C      0.66247  0.34646  0.10095     C
C      0.67497  0.27153  0.06142     C
C      0.68189  0.76654  0.83067     C
C      0.68387  0.80028  0.67217     C
C      0.68399  0.44741  0.65354     C
H       0.6875   0.9525   0.2842     H
C      0.70889  0.16804  0.49137     C
N      0.71742  0.47836  0.12566     N
H       0.7244   0.8534   0.5158     H
C      0.72542  0.65169  0.26133     C
H        0.735   0.7633   0.9525     H
C      0.73639  0.06142  0.66705     C
C      0.74089  0.23875  0.29388     C
H       0.7409   0.5877   0.8301     H
H       0.7598   0.4842   0.3692     H
N      0.76094  0.60402  0.52164     N
C      0.76212  0.18046   0.3915     C
C      0.76342  0.10095  0.55259     C
H       0.7655   0.1216    0.678     H
H       0.7668    0.536   0.1224     H
H       0.7692   0.6584    0.464     H
N      0.77007  0.43072  0.07589     N
H       0.7703   0.3138   0.2729     H
H       0.7704    0.294   0.0169     H
C      0.77205   0.4174  0.38745     C
H       0.7873   0.0169   0.6891     H
H        0.794   0.4092   0.3248     H
H       0.7944   0.2308   0.2373     H
C      0.79974  0.50863  0.65941     C
N      0.80493  0.83715  0.75341     N
N      0.81019  0.85932  0.65486     N
S       0.8185  0.71943  0.13464     S
H       0.8346   0.2812   0.7429     H
C       0.8405  0.61255  0.80485     C
N      0.84308  0.12566  0.39598     N
N      0.84596  0.07589  0.49339     N
C      0.84638   0.6085  0.57196     C
H       0.8468   0.4178   0.4123     H
C      0.85986  0.47855  0.73997     C
H        0.871   0.6308   0.8534     H
H       0.8745   0.8658   0.7655     H
H       0.8812   0.6752    0.734     H
C      0.88359  0.52755  0.80028     C
H       0.8892   0.1224   0.3416     H
S      0.90093  0.85407  0.28057     S
C      0.91535  0.40279  0.76654     C
C      0.92618  0.32734   0.7276     C
C      0.92627  0.91302  0.34831     C
N      0.94695  0.95518  0.39629     N
N      0.95087  0.48582  0.85932     N
H       0.9509   0.3068   0.4829     H
S      0.95314  0.13464  0.14593     S
H       0.9568   0.7271   0.5867     H
C      0.96523  0.70612  0.53263     C
N      0.96778  0.40944  0.83715     N
H       0.9683   0.7627   0.4681     H
H       0.9717   0.2842   0.7633     H
H       0.9792    0.367   0.6511     H
C      0.98675  0.26133  0.08698     C
H       0.9913   0.6313   0.1342     H
N      0.99177  0.64853  0.95518     N
