data_I
_chemical_name_common  '/home/zhangsd/repos/MofS-CGCNN/ML/data/SSD/clean_cifs/HAJMAH_clean'
_cell_length_a 11.03850
_cell_length_b 15.17580
_cell_length_c 15.17580
_cell_angle_alpha 65.68070
_cell_angle_beta  75.96840
_cell_angle_gamma 104.03200
_space_group_name_H-M_alt      'P 1'


loop_
_space_group_symop_operation_xyz
  'x, y, z' 

loop_
_atom_site_label
_atom_site_fract_x
_atom_site_fract_y
_atom_site_fract_z
_atom_site_type_symbol
Fe         0.0      0.0      0.5    Fe
Fe         0.0      0.5      0.0    Fe
H       0.0084   0.3713   0.8606     H
N       0.0097  0.35338  0.04298     N
C       0.0117  0.73571  0.91501     C
H        0.019   0.6295   0.3502     H
H       0.0269   0.7108   0.2413     H
N      0.03215  0.58952  0.16637     N
H       0.0343   0.2424   0.5292     H
C       0.0369   0.2972   0.4664     C
H       0.0436   0.2761   0.4144     H
H       0.0442   0.6896   0.5183     H
S       0.0451  0.86066  0.85657     S
N      0.05068    0.515  0.14246     N
N      0.05268  0.04298  0.60364     N
C       0.0713   0.6689   0.2759     C
C      0.07329  0.08499  0.65072     C
C       0.0837   0.5952   0.2361     C
S      0.09833  0.14343  0.71723     S
H       0.1113   0.8762   0.6555     H
C      0.11964  0.47464  0.19942     C
H       0.1281   0.3312   0.2601     H
H        0.131   0.1394   0.2319     H
H       0.1354   0.3752   0.1448     H
C      0.14181  0.52195  0.26062     C
N       0.1526  0.92232  0.50602     N
C       0.1558   0.3939    0.426     C
H       0.1561   0.5848   0.5813     H
N      0.15626  0.87342  0.60244     N
H       0.1598   0.7136   0.2621     H
C       0.1655   0.3927    0.192     C
S      0.18444  0.28277  0.86066     S
N      0.19314  0.14246  0.34254     N
N      0.19852  0.16637  0.24411     N
C      0.20277  0.49266  0.33945     C
H       0.2031   0.5913   0.6688     H
H       0.2081   0.7716   0.7576     H
H       0.2102   0.9785   0.3132     H
C       0.2272   0.5847   0.6073     C
N      0.23028  0.57166  0.92232     N
H       0.2306   0.8761   0.3248     H
H       0.2317   0.7083   0.9785     H
H       0.2325   0.6905   0.7239     H
H       0.2332   0.3445   0.5317     H
C      0.23447  0.89746  0.44705     C
H       0.2351   0.4683   0.8762     H
C       0.2381   0.8199   0.6061     C
H       0.2398     0.52   0.6248     H
N       0.2413  0.39756  0.47586     N
C       0.2597   0.9351   0.3346     C
C       0.2603   0.7636   0.7028     C
H       0.2626   0.4187   0.1661     H
H       0.2682   0.2413   0.0479     H
C      0.27599  0.34928  0.73571     C
H       0.2802   0.1448     0.48     H
N      0.28284  0.52414  0.87342     N
C      0.28989  0.83211  0.50734     C
H       0.3161   0.0479   0.7108     H
C      0.31848  0.55295  0.34451     C
C      0.31906  0.19942  0.32594     C
C       0.3198   0.2361   0.1687     C
C       0.3246   0.7303   0.9351     C
C      0.33701  0.65549  0.89746     C
N      0.34138  0.49398  0.42834     N
N      0.34368  0.39636  0.64662     N
C       0.3472   0.2759   0.0552     C
H       0.3521   0.7069   0.2683     H
H       0.3545   0.7991   0.8761     H
H       0.3546   0.7921   0.6896     H
H       0.3548   0.9752   0.2931     H
C        0.355  0.67406  0.52536     C
C       0.3575    0.192   0.4153     C
H       0.3629   0.2319   0.6287     H
H       0.3692   0.3502   0.0203     H
H       0.3796   0.7317   0.9752     H
C      0.38014  0.78257  0.47805     C
H       0.3882   0.2601   0.4087     H
H       0.3895   0.0203   0.6295     H
C       0.4024   0.0552   0.6689     C
C      0.40243  0.26062  0.21743     C
C       0.4057   0.6654   0.2697     C
C       0.4182    0.574   0.8199     C
H       0.4219   0.2621   0.0243     H
H       0.4287   0.1661   0.4152     H
H       0.4365   0.4708   0.7716     H
H       0.4375   0.4817   0.2079     H
N      0.44263  0.24411  0.58952     N
H       0.4446   0.6752   0.2009     H
H       0.4462   0.0243   0.7136     H
C      0.45778  0.66055  0.83211     C
H        0.458   0.4144   0.3095     H
N      0.46432  0.65746    0.485     N
H       0.4766   0.6868   0.2917     H
C       0.4885   0.1687   0.5952     C
C       0.4967   0.5336   0.7636     C
Fe         0.5      0.5      0.5    Fe
C       0.5033   0.4664   0.2364     C
C       0.5115   0.8313   0.4048     C
H       0.5234   0.3132   0.7083     H
N      0.53568  0.34254    0.515     N
H        0.542   0.5856   0.6905     H
C      0.54222  0.33945  0.16789     C
H       0.5538   0.9757   0.2864     H
H       0.5554   0.3248   0.7991     H
N      0.55737  0.75589  0.41048     N
H       0.5625   0.5183   0.7921     H
H       0.5635   0.5292   0.2284     H
H       0.5713   0.8339   0.5848     H
H       0.5781   0.7379   0.9757     H
C       0.5818    0.426   0.1801     C
C       0.5943   0.3346   0.7303     C
C      0.59757  0.73938  0.78257     C
C       0.5976   0.9448   0.3311     C
H       0.6105   0.9797   0.3705     H
H       0.6118   0.7399   0.5913     H
C      0.61986  0.21743  0.52195     C
H       0.6204   0.2683   0.0248     H
H       0.6308   0.6498   0.9797     H
H       0.6371   0.7681   0.3713     H
C       0.6425    0.808   0.5847     C
C        0.645  0.32594  0.47464     C
H       0.6452   0.0248   0.7069     H
H       0.6454   0.2079   0.3104     H
H       0.6455   0.2009   0.1239     H
H       0.6479   0.2931   0.7317     H
C       0.6528   0.7241   0.9448     C
N      0.65632  0.60364  0.35338     N
N      0.65862  0.50602  0.57166     N
C      0.66299  0.34451  0.10254     C
C       0.6754   0.2697   0.0649     C
C       0.6802   0.7639   0.8313     C
C      0.68094  0.80058  0.67406     C
C      0.68152  0.44705  0.65549     C
H       0.6839   0.9521   0.2892     H
C      0.71011  0.16789  0.49266     C
N      0.71716  0.47586  0.12658     N
H       0.7198   0.8552     0.52     H
C      0.72401  0.65072  0.26429     C
H       0.7318   0.7587   0.9521     H
H       0.7374   0.5813   0.8339     H
C       0.7397   0.2364   0.2972     C
C       0.7403   0.0649   0.6654     C
N       0.7587  0.60244  0.52414     N
H       0.7602     0.48   0.3752     H
C       0.7619   0.1801   0.3939     C
H       0.7649   0.5317   0.1238     H
C      0.76553  0.10254  0.55295     C
H       0.7668   0.6555   0.4683     H
H       0.7675   0.3095   0.2761     H
H       0.7683   0.2917   0.0215     H
H       0.7694   0.1239   0.6752     H
N      0.76972  0.42834  0.07768     N
C       0.7728   0.4153   0.3927     C
H       0.7898   0.0215   0.6868     H
H       0.7919   0.2284   0.2424     H
H       0.7969   0.4087   0.3312     H
C      0.79723  0.50734  0.66055     C
N      0.80148  0.83363  0.75589     N
N      0.80686  0.85754  0.65746     N
S      0.81556  0.71723  0.13934     S
C       0.8345   0.6073    0.808     C
H       0.8402   0.2864   0.7379     H
N      0.84374  0.12658  0.39756     N
H       0.8439   0.4152   0.4187     H
C       0.8442   0.6061    0.574     C
N       0.8474  0.07768  0.49398     N
C      0.85819  0.47805  0.73938     C
H       0.8646   0.6248   0.8552     H
H        0.869   0.8606   0.7681     H
H       0.8719   0.6688   0.7399     H
C      0.88036  0.52536  0.80058     C
H       0.8887   0.1238   0.3445     H
S      0.90167  0.85657  0.28277     S
C       0.9163   0.4048   0.7639     C
C      0.92671  0.91501  0.34928     C
C       0.9287   0.3311   0.7241     C
N      0.94732  0.95702  0.39636     N
N      0.94932    0.485  0.85754     N
S       0.9549  0.13934  0.14343     S
H       0.9558   0.3104   0.4817     H
H       0.9564   0.7239   0.5856     H
C       0.9631   0.7028   0.5336     C
H       0.9657   0.7576   0.4708     H
N      0.96785  0.41048  0.83363     N
H       0.9731   0.2892   0.7587     H
H        0.981   0.3705   0.6498     H
C       0.9883  0.26429  0.08499     C
N       0.9903  0.64662  0.95702     N
H       0.9916   0.6287   0.1394     H
