data_I
_chemical_name_common  '/home/zhangsd/repos/MofS-CGCNN/ML/data/SSD/clean_cifs/HAKSAQ_clean'
_cell_length_a 13.81000
_cell_length_b 13.81000
_cell_length_c 18.33000
_cell_angle_alpha 90.00000
_cell_angle_beta  90.00000
_cell_angle_gamma 120.00000
_space_group_name_H-M_alt      'P 1'


loop_
_space_group_symop_operation_xyz
  'x, y, z' 

loop_
_atom_site_label
_atom_site_fract_x
_atom_site_fract_y
_atom_site_fract_z
_atom_site_type_symbol
C        0.026   0.4269   0.0336     C
C        0.026   0.4269   0.4664     C
C        0.026   0.5991   0.0336     C
C        0.026   0.5991   0.4664     C
H       0.0421   0.3767   0.0567     H
H       0.0421   0.3767   0.4433     H
H       0.0421   0.6654   0.0567     H
H       0.0421   0.6654   0.4433     H
C        0.054    0.527   0.0663     C
C        0.054    0.527   0.4337     C
N       0.0727   0.1454   0.2124     N
N       0.0727   0.1454   0.2876     N
N       0.0727   0.9273   0.2124     N
N       0.0727   0.9273   0.2876     N
C       0.1142   0.5571   0.1378     C
C       0.1142   0.5571   0.3622     C
C       0.1264   0.2528   0.1962     C
C       0.1264   0.2528   0.3038     C
C       0.1264   0.8736   0.1962     C
C       0.1264   0.8736   0.3038     C
O       0.1365   0.4875   0.1645     O
O       0.1365   0.4875   0.3355     O
O       0.1365    0.649   0.1645     O
O       0.1365    0.649   0.3355     O
H       0.1392   0.2784   0.1483     H
H       0.1392   0.2784   0.3517     H
H       0.1392   0.8608   0.1483     H
H       0.1392   0.8608   0.3517     H
N       0.1454   0.0727   0.7124     N
N       0.1454   0.0727   0.7876     N
N       0.1592   0.3184     0.25     N
N       0.1592   0.8408     0.25     N
In     0.24881  0.49762     0.25    In
In     0.24881  0.75119     0.25    In
C       0.2528   0.1264   0.6962     C
C       0.2528   0.1264   0.8038     C
H       0.2784   0.1392   0.6483     H
H       0.2784   0.1392   0.8517     H
N       0.3184   0.1592     0.75     N
O      0.33333  0.66667     0.25     O
H       0.3346   0.3767   0.0567     H
H       0.3346   0.3767   0.4433     H
H       0.3346   0.9579   0.0567     H
H       0.3346   0.9579   0.4433     H
O        0.351   0.4875   0.1645     O
O        0.351   0.4875   0.3355     O
O        0.351   0.8635   0.1645     O
O        0.351   0.8635   0.3355     O
H       0.3767   0.0421   0.5567     H
H       0.3767   0.0421   0.9433     H
H       0.3767   0.3346   0.5567     H
H       0.3767   0.3346   0.9433     H
C       0.4009   0.4269   0.0336     C
C       0.4009   0.4269   0.4664     C
C       0.4009    0.974   0.0336     C
C       0.4009    0.974   0.4664     C
C       0.4269    0.026   0.5336     C
C       0.4269    0.026   0.9664     C
C       0.4269   0.4009   0.5336     C
C       0.4269   0.4009   0.9664     C
C       0.4429   0.5571   0.1378     C
C       0.4429   0.5571   0.3622     C
C       0.4429   0.8858   0.1378     C
C       0.4429   0.8858   0.3622     C
C        0.473    0.527   0.0663     C
C        0.473    0.527   0.4337     C
C        0.473    0.946   0.0663     C
C        0.473    0.946   0.4337     C
O       0.4875   0.1365   0.6645     O
O       0.4875   0.1365   0.8355     O
O       0.4875    0.351   0.6645     O
O       0.4875    0.351   0.8355     O
In     0.49762  0.24881     0.75    In
In     0.50238  0.75119     0.25    In
O       0.5125    0.649   0.1645     O
O       0.5125    0.649   0.3355     O
O       0.5125   0.8635   0.1645     O
O       0.5125   0.8635   0.3355     O
C        0.527    0.054   0.5663     C
C        0.527    0.054   0.9337     C
C        0.527    0.473   0.5663     C
C        0.527    0.473   0.9337     C
C       0.5571   0.1142   0.6378     C
C       0.5571   0.1142   0.8622     C
C       0.5571   0.4429   0.6378     C
C       0.5571   0.4429   0.8622     C
C       0.5731   0.5991   0.0336     C
C       0.5731   0.5991   0.4664     C
C       0.5731    0.974   0.0336     C
C       0.5731    0.974   0.4664     C
C       0.5991    0.026   0.5336     C
C       0.5991    0.026   0.9664     C
C       0.5991   0.5731   0.5336     C
C       0.5991   0.5731   0.9664     C
H       0.6233   0.6654   0.0567     H
H       0.6233   0.6654   0.4433     H
H       0.6233   0.9579   0.0567     H
H       0.6233   0.9579   0.4433     H
O        0.649   0.1365   0.6645     O
O        0.649   0.1365   0.8355     O
O        0.649   0.5125   0.6645     O
O        0.649   0.5125   0.8355     O
H       0.6654   0.0421   0.5567     H
H       0.6654   0.0421   0.9433     H
H       0.6654   0.6233   0.5567     H
H       0.6654   0.6233   0.9433     H
O      0.66667  0.33333     0.75     O
N       0.6816   0.8408     0.25     N
H       0.7216   0.8608   0.1483     H
H       0.7216   0.8608   0.3517     H
C       0.7472   0.8736   0.1962     C
C       0.7472   0.8736   0.3038     C
In     0.75119  0.24881     0.75    In
In     0.75119  0.50238     0.75    In
N       0.8408   0.1592     0.75     N
N       0.8408   0.6816     0.75     N
N       0.8546   0.9273   0.2124     N
N       0.8546   0.9273   0.2876     N
H       0.8608   0.1392   0.6483     H
H       0.8608   0.1392   0.8517     H
H       0.8608   0.7216   0.6483     H
H       0.8608   0.7216   0.8517     H
O       0.8635    0.351   0.6645     O
O       0.8635    0.351   0.8355     O
O       0.8635   0.5125   0.6645     O
O       0.8635   0.5125   0.8355     O
C       0.8736   0.1264   0.6962     C
C       0.8736   0.1264   0.8038     C
C       0.8736   0.7472   0.6962     C
C       0.8736   0.7472   0.8038     C
C       0.8858   0.4429   0.6378     C
C       0.8858   0.4429   0.8622     C
N       0.9273   0.0727   0.7124     N
N       0.9273   0.0727   0.7876     N
N       0.9273   0.8546   0.7124     N
N       0.9273   0.8546   0.7876     N
C        0.946    0.473   0.5663     C
C        0.946    0.473   0.9337     C
H       0.9579   0.3346   0.5567     H
H       0.9579   0.3346   0.9433     H
H       0.9579   0.6233   0.5567     H
H       0.9579   0.6233   0.9433     H
C        0.974   0.4009   0.5336     C
C        0.974   0.4009   0.9664     C
C        0.974   0.5731   0.5336     C
C        0.974   0.5731   0.9664     C
