data_I
_chemical_name_common  '/home/zhangsd/repos/MofS-CGCNN/ML/data/SSD/clean_cifs/HAKSOE_clean'
_cell_length_a 13.87300
_cell_length_b 13.87300
_cell_length_c 18.45500
_cell_angle_alpha 90.00000
_cell_angle_beta  90.00000
_cell_angle_gamma 120.00000
_space_group_name_H-M_alt      'P 1'


loop_
_space_group_symop_operation_xyz
  'x, y, z' 

loop_
_atom_site_label
_atom_site_fract_x
_atom_site_fract_y
_atom_site_fract_z
_atom_site_type_symbol
In         0.0      0.0   0.1339    In
In         0.0      0.0   0.3661    In
In         0.0      0.0   0.6339    In
In         0.0      0.0   0.8661    In
C       0.0288   0.4254   0.0339     C
C       0.0288   0.4254   0.4661     C
C       0.0288   0.6034   0.0339     C
C       0.0288   0.6034   0.4661     C
H        0.049   0.3777   0.0558     H
H        0.049   0.3777   0.4442     H
H        0.049   0.6713   0.0558     H
H        0.049   0.6713   0.4442     H
C       0.0546   0.5273   0.0672     C
C       0.0546   0.5273   0.4328     C
N        0.074    0.148   0.2133     N
N        0.074    0.148   0.2867     N
N        0.074    0.926   0.2133     N
N        0.074    0.926   0.2867     N
C       0.1172   0.5586   0.1376     C
C       0.1172   0.5586   0.3624     C
C       0.1245    0.249    0.198     C
C       0.1245    0.249    0.302     C
C       0.1245   0.8755    0.198     C
C       0.1245   0.8755    0.302     C
H      0.13645   0.2729   0.1504     H
H      0.13645   0.2729   0.3496     H
H      0.13645  0.86355   0.1504     H
H      0.13645  0.86355   0.3496     H
O        0.139   0.4879   0.1637     O
O        0.139   0.4879   0.3363     O
O        0.139   0.6511   0.1637     O
O        0.139   0.6511   0.3363     O
N        0.148    0.074   0.7133     N
N        0.148    0.074   0.7867     N
N       0.1583   0.3166     0.25     N
N       0.1583   0.8417     0.25     N
In     0.24877  0.49754     0.25    In
In     0.24877  0.75123     0.25    In
C        0.249   0.1245    0.698     C
C        0.249   0.1245    0.802     C
H       0.2729  0.13645   0.6504     H
H       0.2729  0.13645   0.8496     H
N       0.3166   0.1583     0.75     N
H       0.3287   0.3777   0.0558     H
H       0.3287   0.3777   0.4442     H
H       0.3287    0.951   0.0558     H
H       0.3287    0.951   0.4442     H
O      0.33333  0.66667     0.25     O
O       0.3489   0.4879   0.1637     O
O       0.3489   0.4879   0.3363     O
O       0.3489    0.861   0.1637     O
O       0.3489    0.861   0.3363     O
H       0.3777    0.049   0.5558     H
H       0.3777    0.049   0.9442     H
H       0.3777   0.3287   0.5558     H
H       0.3777   0.3287   0.9442     H
C       0.3966   0.4254   0.0339     C
C       0.3966   0.4254   0.4661     C
C       0.3966   0.9712   0.0339     C
C       0.3966   0.9712   0.4661     C
C       0.4254   0.0288   0.5339     C
C       0.4254   0.0288   0.9661     C
C       0.4254   0.3966   0.5339     C
C       0.4254   0.3966   0.9661     C
C       0.4414   0.5586   0.1376     C
C       0.4414   0.5586   0.3624     C
C       0.4414   0.8828   0.1376     C
C       0.4414   0.8828   0.3624     C
C       0.4727   0.5273   0.0672     C
C       0.4727   0.5273   0.4328     C
C       0.4727   0.9454   0.0672     C
C       0.4727   0.9454   0.4328     C
O       0.4879    0.139   0.6637     O
O       0.4879    0.139   0.8363     O
O       0.4879   0.3489   0.6637     O
O       0.4879   0.3489   0.8363     O
In     0.49754  0.24877     0.75    In
In     0.50246  0.75123     0.25    In
O       0.5121   0.6511   0.1637     O
O       0.5121   0.6511   0.3363     O
O       0.5121    0.861   0.1637     O
O       0.5121    0.861   0.3363     O
C       0.5273   0.0546   0.5672     C
C       0.5273   0.0546   0.9328     C
C       0.5273   0.4727   0.5672     C
C       0.5273   0.4727   0.9328     C
C       0.5586   0.1172   0.6376     C
C       0.5586   0.1172   0.8624     C
C       0.5586   0.4414   0.6376     C
C       0.5586   0.4414   0.8624     C
C       0.5746   0.6034   0.0339     C
C       0.5746   0.6034   0.4661     C
C       0.5746   0.9712   0.0339     C
C       0.5746   0.9712   0.4661     C
C       0.6034   0.0288   0.5339     C
C       0.6034   0.0288   0.9661     C
C       0.6034   0.5746   0.5339     C
C       0.6034   0.5746   0.9661     C
H       0.6223   0.6713   0.0558     H
H       0.6223   0.6713   0.4442     H
H       0.6223    0.951   0.0558     H
H       0.6223    0.951   0.4442     H
O       0.6511    0.139   0.6637     O
O       0.6511    0.139   0.8363     O
O       0.6511   0.5121   0.6637     O
O       0.6511   0.5121   0.8363     O
O      0.66667  0.33333     0.75     O
H       0.6713    0.049   0.5558     H
H       0.6713    0.049   0.9442     H
H       0.6713   0.6223   0.5558     H
H       0.6713   0.6223   0.9442     H
N       0.6834   0.8417     0.25     N
H       0.7271  0.86355   0.1504     H
H       0.7271  0.86355   0.3496     H
C        0.751   0.8755    0.198     C
C        0.751   0.8755    0.302     C
In     0.75123  0.24877     0.75    In
In     0.75123  0.50246     0.75    In
N       0.8417   0.1583     0.75     N
N       0.8417   0.6834     0.75     N
N        0.852    0.926   0.2133     N
N        0.852    0.926   0.2867     N
O        0.861   0.3489   0.6637     O
O        0.861   0.3489   0.8363     O
O        0.861   0.5121   0.6637     O
O        0.861   0.5121   0.8363     O
H      0.86355  0.13645   0.6504     H
H      0.86355  0.13645   0.8496     H
H      0.86355   0.7271   0.6504     H
H      0.86355   0.7271   0.8496     H
C       0.8755   0.1245    0.698     C
C       0.8755   0.1245    0.802     C
C       0.8755    0.751    0.698     C
C       0.8755    0.751    0.802     C
C       0.8828   0.4414   0.6376     C
C       0.8828   0.4414   0.8624     C
N        0.926    0.074   0.7133     N
N        0.926    0.074   0.7867     N
N        0.926    0.852   0.7133     N
N        0.926    0.852   0.7867     N
C       0.9454   0.4727   0.5672     C
C       0.9454   0.4727   0.9328     C
H        0.951   0.3287   0.5558     H
H        0.951   0.3287   0.9442     H
H        0.951   0.6223   0.5558     H
H        0.951   0.6223   0.9442     H
C       0.9712   0.3966   0.5339     C
C       0.9712   0.3966   0.9661     C
C       0.9712   0.5746   0.5339     C
C       0.9712   0.5746   0.9661     C
