data_I
_chemical_name_common  '/home/zhangsd/repos/MofS-CGCNN/ML/data/SSD/clean_cifs/HAKVUN_clean'
_cell_length_a 13.63600
_cell_length_b 13.63600
_cell_length_c 14.92220
_cell_angle_alpha 90.00000
_cell_angle_beta  90.00000
_cell_angle_gamma 120.00000
_space_group_name_H-M_alt      'P 1'


loop_
_space_group_symop_operation_xyz
  'x, y, z' 

loop_
_atom_site_label
_atom_site_fract_x
_atom_site_fract_y
_atom_site_fract_z
_atom_site_type_symbol
Ag         0.0      0.0      0.0    Ag
Ag         0.0      0.0      0.5    Ag
N          0.0    0.166      0.0     N
N          0.0    0.166      0.5     N
C          0.0    0.371      0.0     C
C          0.0    0.371      0.5     C
H          0.0   0.4392      0.0     H
H          0.0   0.4392      0.5     H
C       0.0668   0.2497   0.0549     C
C       0.0668   0.2497   0.4451     C
C       0.0712   0.3531   0.0577     C
C       0.0712   0.3531   0.4423     C
H       0.1134   0.2381   0.0937     H
H       0.1134   0.2381   0.4063     H
O       0.1144   0.5122   0.1469     O
O       0.1144   0.5122   0.3531     O
H       0.1247   0.8866   0.0937     H
H       0.1247   0.8866   0.4063     H
C       0.1453   0.4421   0.1243     C
C       0.1453   0.4421   0.3757     C
N        0.166      0.0      0.0     N
N        0.166      0.0      0.5     N
In     0.17267  0.64127     0.25    In
C       0.1829   0.9332   0.0549     C
C       0.1829   0.9332   0.4451     C
O       0.2087   0.7718   0.1515     O
O       0.2087   0.7718   0.3485     O
O       0.2282   0.4369   0.1515     O
O       0.2282   0.4369   0.3485     O
H       0.2381   0.1134   0.5937     H
H       0.2381   0.1134   0.9063     H
C       0.2497   0.0668   0.5549     C
C       0.2497   0.0668   0.9451     C
C       0.2819   0.9288   0.0577     C
C       0.2819   0.9288   0.4423     C
C       0.2968   0.8547   0.1243     C
C       0.2968   0.8547   0.3757     C
O      0.33333  0.66667     0.25     O
C       0.3531   0.0712   0.5577     C
C       0.3531   0.0712   0.9423     C
In     0.35873   0.5314     0.25    In
C        0.371      0.0      0.0     C
C        0.371      0.0      0.5     C
O       0.3978   0.8856   0.1469     O
O       0.3978   0.8856   0.3531     O
O       0.4369   0.2282   0.6515     O
O       0.4369   0.2282   0.8485     O
H       0.4392      0.0      0.0     H
H       0.4392      0.0      0.5     H
C       0.4421   0.1453   0.6243     C
C       0.4421   0.1453   0.8757     C
In      0.4686  0.82733     0.25    In
O       0.4878   0.6022   0.1469     O
O       0.4878   0.6022   0.3531     O
O       0.5122   0.1144   0.6469     O
O       0.5122   0.1144   0.8531     O
In      0.5314  0.35873     0.75    In
C       0.5579   0.7032   0.1243     C
C       0.5579   0.7032   0.3757     C
H       0.5608   0.5608      0.0     H
H       0.5608   0.5608      0.5     H
O       0.5631   0.7913   0.1515     O
O       0.5631   0.7913   0.3485     O
O       0.6022   0.4878   0.6469     O
O       0.6022   0.4878   0.8531     O
C        0.629    0.629      0.0     C
C        0.629    0.629      0.5     C
In     0.64127  0.17267     0.75    In
C       0.6469   0.7181   0.0577     C
C       0.6469   0.7181   0.4423     C
O      0.66667  0.33333     0.75     O
C       0.7032   0.5579   0.6243     C
C       0.7032   0.5579   0.8757     C
C       0.7181   0.6469   0.5577     C
C       0.7181   0.6469   0.9423     C
C       0.7503   0.8171   0.0549     C
C       0.7503   0.8171   0.4451     C
H       0.7619   0.8753   0.0937     H
H       0.7619   0.8753   0.4063     H
O       0.7718   0.2087   0.6515     O
O       0.7718   0.2087   0.8485     O
O       0.7913   0.5631   0.6515     O
O       0.7913   0.5631   0.8485     O
C       0.8171   0.7503   0.5549     C
C       0.8171   0.7503   0.9451     C
In     0.82733   0.4686     0.75    In
N        0.834    0.834      0.0     N
N        0.834    0.834      0.5     N
C       0.8547   0.2968   0.6243     C
C       0.8547   0.2968   0.8757     C
H       0.8753   0.7619   0.5937     H
H       0.8753   0.7619   0.9063     H
O       0.8856   0.3978   0.6469     O
O       0.8856   0.3978   0.8531     O
H       0.8866   0.1247   0.5937     H
H       0.8866   0.1247   0.9063     H
C       0.9288   0.2819   0.5577     C
C       0.9288   0.2819   0.9423     C
C       0.9332   0.1829   0.5549     C
C       0.9332   0.1829   0.9451     C
