data_I
_chemical_name_common  '/home/zhangsd/repos/MofS-CGCNN/ML/data/SSD/clean_cifs/HARNAR_clean'
_cell_length_a 12.39370
_cell_length_b 17.29920
_cell_length_c 19.33000
_cell_angle_alpha 90.00000
_cell_angle_beta  90.00000
_cell_angle_gamma 95.75000
_space_group_name_H-M_alt      'P 1'


loop_
_space_group_symop_operation_xyz
  'x, y, z' 

loop_
_atom_site_label
_atom_site_fract_x
_atom_site_fract_y
_atom_site_fract_z
_atom_site_type_symbol
Ag         0.0      0.0      0.0    Ag
Ag         0.0      0.5      0.5    Ag
C       0.0015   0.7698   0.7591     C
C       0.0061   0.7613   0.9894     C
C       0.0105   0.0993   0.2783     C
C       0.0139   0.2213   0.9468     C
C       0.0141   0.7364    0.509     C
C       0.0158   0.2579   0.5557     C
H       0.0171   0.7165   0.4075     H
H         0.02   0.2246   0.3916     H
C       0.0227   0.6284   0.7687     C
H       0.0249   0.9495    0.708     H
C       0.0262   0.9159   0.4267     C
O       0.0314   0.9339   0.3655     O
C       0.0327   0.4103   0.9996     C
H        0.033   0.2205   0.0486     H
C       0.0347   0.1329   0.4621     C
H        0.037   0.7616   0.1547     H
C       0.0457   0.6566   0.0983     C
C       0.0467   0.2183   0.4399     C
O       0.0472    0.438   0.0575     O
H       0.0506   0.3826   0.2456     H
H       0.0506    0.517    0.778     H
C       0.0535   0.8418   0.7403     C
C       0.0562   0.7458   0.1068     C
C       0.0668   0.7044    0.775     C
C        0.068   0.3818   0.8901     C
H       0.0695   0.1897   0.9348     H
H         0.07   0.7059   0.5228     H
C       0.0701   0.6359   0.0237     C
C        0.072   0.1257   0.5374     C
H       0.0786   0.1021    0.431     H
C       0.0812   0.9028   0.5364     C
C       0.0833   0.5687   0.7828     C
C       0.0966   0.7096   0.9805     C
H       0.0974   0.6336   0.1302     H
C       0.1062   0.2079   0.5669     C
N       0.1075   0.4197   0.9474     N
H       0.1086   0.6972   0.9307     H
N       0.1092    0.933   0.4727     N
C       0.1106   0.2391   0.2396     C
O       0.1171   0.3787   0.8353     O
N       0.1189   0.1083   0.2776     N
H       0.1269   0.2057   0.6168     H
H       0.1304   0.8507     0.74     H
H       0.1319    0.603   0.0221     H
H       0.1344   0.0933   0.5396     H
O       0.1429   0.9048   0.5858     O
H       0.1481   0.2872   0.2257     H
O       0.1592   0.3655   0.3794     O
C       0.1674   0.1785   0.2585     C
C       0.1674    0.248   0.4467     C
C       0.1733   0.7175   0.7965     C
C        0.175   0.7734   0.0885     C
O       0.1811   0.9016    0.141     O
C       0.1845    0.335   0.4333     C
N        0.188   0.5802   0.8034     N
H       0.1962   0.8356   0.3245     H
C       0.1969   0.8618   0.0899     C
C       0.1996   0.7525   0.0139     C
C       0.2035   0.2399   0.5212     C
H       0.2066    0.769   0.8021     H
H       0.2127   0.2192   0.4147     H
Ag     0.21684  0.01669  0.30161    Ag
O        0.218   0.1581   0.0984     O
H       0.2254   0.7496   0.1208     H
N       0.2293   0.8897    0.027     N
N       0.2305    0.373   0.4892     N
C       0.2305   0.6546   0.8099     C
O       0.2346   0.6611   0.4214     O
C       0.2348   0.8296   0.9806     C
H       0.2366   0.2946   0.0242     H
H       0.2397   0.7814   0.5127     H
C       0.2443   0.3229   0.5416     C
H       0.2444   0.1862   0.2582     H
Ag     0.24766  0.49591  0.95417    Ag
Ag     0.24983  0.00669  0.00182    Ag
Ag     0.25017  0.49331  0.50182    Ag
Ag     0.25234  0.00409  0.45417    Ag
H       0.2556   0.3138   0.7582     H
C       0.2557   0.1771   0.0416     C
H       0.2603   0.7186   0.0127     H
H       0.2634   0.2054   0.5242     H
C       0.2652   0.6704   0.4806     C
O       0.2654   0.8389   0.9214     O
N       0.2695    0.127   0.9892     N
C       0.2695   0.8454   0.3099     C
N       0.2707   0.6103    0.527     N
H       0.2746   0.7504   0.6208     H
O        0.282   0.3419   0.5984     O
Ag     0.28316  0.48331  0.80161    Ag
H       0.2873   0.2808   0.9147     H
H       0.2934    0.731   0.3021     H
C       0.2965   0.2601   0.0212     C
C       0.3004   0.7475   0.5139     C
C       0.3031   0.6382   0.5899     C
H       0.3038   0.6644   0.8245     H
N        0.312   0.9198   0.3034     N
C       0.3155    0.165   0.9333     C
O       0.3189   0.5984    0.641     O
C        0.325   0.7266   0.5885     C
C       0.3267   0.7825   0.2965     C
C       0.3326    0.252   0.9467     C
C       0.3326   0.3215   0.7585     C
O       0.3408   0.1345   0.8794     O
H       0.3519   0.2128   0.7257     H
O       0.3571   0.5952   0.0858     O
H       0.3656   0.4067   0.0396     H
H       0.3681    0.897   0.5221     H
H       0.3696   0.6493     0.24     H
H       0.3731   0.2943   0.1168     H
N       0.3811   0.3917   0.7776     N
O       0.3829   0.1213   0.3353     O
C       0.3894   0.2609   0.7396     C
N       0.3908    0.567   0.9727     N
H       0.3914   0.8028   0.4307     H
N       0.3925   0.0803   0.4474     N
C       0.3938   0.2921   0.0669     C
H       0.4026   0.8664   0.6302     H
C       0.4034   0.7904   0.4805     C
C       0.4167   0.9313   0.2828     C
C       0.4188   0.5972   0.0364     C
H       0.4214   0.3979    0.931     H
C        0.428   0.3743   0.0374     C
C       0.4299   0.8641   0.5237     C
H         0.43   0.7941   0.0228     H
H       0.4305   0.3103   0.4348     H
C        0.432   0.1182   0.3901     C
C       0.4332   0.7956    0.275     C
C       0.4438   0.7542   0.6068     C
C       0.4465   0.6582   0.2403     C
H       0.4494   0.1174   0.7456     H
H       0.4494    0.983    0.278     H
O       0.4528    0.062   0.5575     O
C       0.4533   0.2817   0.9399     C
C       0.4543   0.8434   0.5983     C
H        0.463   0.7384   0.6547     H
C       0.4653   0.3671   0.9621     C
H        0.467   0.2795   0.5486     H
C       0.4673   0.0897   0.4996     C
O       0.4686   0.5661   0.8655     O
C       0.4738   0.5841   0.9267     C
H       0.4751   0.5505    0.208     H
C       0.4773   0.8716   0.2687     C
H         0.48   0.2754   0.8916     H
H       0.4829   0.7835   0.9075     H
C       0.4842   0.2421   0.0557     C
C       0.4859   0.7636    0.009     C
C       0.4861   0.2787   0.4468     C
C       0.4895   0.4007   0.7783     C
C       0.4939   0.7387   0.4894     C
C       0.4985   0.7302   0.2591     C
Ag         0.5      0.0      0.0    Ag
Ag         0.5      0.5      0.5    Ag
C       0.5015   0.2698   0.7409     C
C       0.5061   0.2613   0.5106     C
C       0.5105   0.5993   0.2217     C
C       0.5139   0.7213   0.5532     C
C       0.5141   0.2364    0.991     C
C       0.5158   0.7579   0.9443     C
H       0.5171   0.2165   0.0925     H
H         0.52   0.7246   0.1084     H
C       0.5227   0.1284   0.7313     C
H       0.5249   0.4495    0.792     H
C       0.5262   0.4159   0.0733     C
O       0.5314   0.4339   0.1345     O
C       0.5327   0.9103   0.5004     C
H        0.533   0.7205   0.4514     H
C       0.5347   0.6329   0.0379     C
H        0.537   0.2616   0.3453     H
C       0.5457   0.1566   0.4017     C
C       0.5467   0.7183   0.0601     C
O       0.5472    0.938   0.4425     O
H       0.5506    0.017    0.722     H
H       0.5506   0.8826   0.2544     H
C       0.5535   0.3418   0.7597     C
C       0.5562   0.2458   0.3932     C
C       0.5668   0.2044    0.725     C
C        0.568   0.8818   0.6099     C
H       0.5695   0.6897   0.5652     H
H         0.57   0.2059   0.9772     H
C       0.5701   0.1359   0.4763     C
C        0.572   0.6257   0.9626     C
H       0.5786   0.6021    0.069     H
C       0.5812   0.4028   0.9636     C
C       0.5833   0.0687   0.7172     C
C       0.5966   0.2096   0.5195     C
H       0.5974   0.1336   0.3698     H
C       0.6062   0.7079   0.9331     C
N       0.6075   0.9197   0.5526     N
H       0.6086   0.1972   0.5693     H
N       0.6092    0.433   0.0273     N
C       0.6106   0.7391   0.2604     C
O       0.6171   0.8787   0.6647     O
N       0.6189   0.6083   0.2224     N
H       0.6269   0.7057   0.8832     H
H       0.6304   0.3507     0.76     H
H       0.6319    0.103   0.4779     H
H       0.6344   0.5933   0.9604     H
O       0.6429   0.4048   0.9142     O
H       0.6481   0.7872   0.2743     H
O       0.6592   0.8655   0.1206     O
C       0.6674   0.6785   0.2415     C
C       0.6674    0.748   0.0533     C
C       0.6733   0.2175   0.7035     C
C        0.675   0.2734   0.4115     C
O       0.6811   0.4016    0.359     O
C       0.6845    0.835   0.0667     C
N        0.688   0.0802   0.6966     N
H       0.6962   0.3356   0.1755     H
C       0.6969   0.3618   0.4101     C
C       0.6996   0.2525   0.4861     C
C       0.7035   0.7399   0.9788     C
H       0.7066    0.269   0.6979     H
H       0.7127   0.7192   0.0853     H
Ag     0.71684  0.51669  0.19839    Ag
O        0.718   0.6581   0.4016     O
H       0.7254   0.2496   0.3792     H
N       0.7293   0.3897    0.473     N
C       0.7305   0.1546   0.6901     C
N       0.7305    0.873   0.0108     N
O       0.7346   0.1611   0.0786     O
C       0.7348   0.3296   0.5194     C
H       0.7366   0.7946   0.4758     H
H       0.7397   0.2814   0.9873     H
C       0.7443   0.8229   0.9584     C
H       0.7444   0.6862   0.2418     H
Ag     0.74766  0.99591  0.54583    Ag
Ag     0.74983  0.50669  0.49818    Ag
Ag     0.75017  0.99331  0.99818    Ag
Ag     0.75234  0.50409  0.04583    Ag
H       0.7556   0.8138   0.7418     H
C       0.7557   0.6771   0.4584     C
H       0.7603   0.2186   0.4873     H
H       0.7634   0.7054   0.9758     H
C       0.7652   0.1704   0.0194     C
O       0.7654   0.3389   0.5786     O
C       0.7695   0.3454   0.1901     C
N       0.7695    0.627   0.5108     N
N       0.7707   0.1103    0.973     N
H       0.7746   0.2504   0.8792     H
O        0.782   0.8419   0.9016     O
Ag     0.78316  0.98331  0.69839    Ag
H       0.7873   0.7808   0.5853     H
H       0.7934    0.231   0.1979     H
C       0.7965   0.7601   0.4788     C
C       0.8004   0.2475   0.9861     C
C       0.8031   0.1382   0.9101     C
H       0.8038   0.1644   0.6755     H
N        0.812   0.4198   0.1966     N
C       0.8155    0.665   0.5667     C
O       0.8189   0.0984    0.859     O
C        0.825   0.2266   0.9115     C
C       0.8267   0.2825   0.2035     C
C       0.8326    0.752   0.5533     C
C       0.8326   0.8215   0.7415     C
O       0.8408   0.6345   0.6206     O
H       0.8519   0.7128   0.7743     H
O       0.8571   0.0952   0.4142     O
H       0.8656   0.9067   0.4604     H
H       0.8681    0.397   0.9779     H
H       0.8696   0.1493     0.26     H
H       0.8731   0.7943   0.3832     H
N       0.8811   0.8917   0.7224     N
O       0.8829   0.6213   0.1647     O
C       0.8894   0.7609   0.7604     C
N       0.8908    0.067   0.5273     N
H       0.8914   0.3028   0.0693     H
N       0.8925   0.5803   0.0526     N
C       0.8938   0.7921   0.4331     C
H       0.9026   0.3664   0.8698     H
C       0.9034   0.2904   0.0195     C
C       0.9167   0.4313   0.2172     C
C       0.9188   0.0972   0.4636     C
H       0.9214   0.8979    0.569     H
C        0.928   0.8743   0.4626     C
C       0.9299   0.3641   0.9763     C
H         0.93   0.2941   0.4772     H
H       0.9305   0.8103   0.0652     H
C        0.932   0.6182   0.1099     C
C       0.9332   0.2956    0.225     C
C       0.9438   0.2542   0.8932     C
C       0.9465   0.1582   0.2597     C
H       0.9494    0.483    0.222     H
H       0.9494   0.6174   0.7544     H
O       0.9528    0.562   0.9425     O
C       0.9533   0.7817   0.5601     C
C       0.9543   0.3434   0.9017     C
H        0.963   0.2384   0.8453     H
C       0.9653   0.8671   0.5379     C
H        0.967   0.7795   0.9514     H
C       0.9673   0.5897   0.0004     C
O       0.9686   0.0661   0.6345     O
C       0.9738   0.0841   0.5733     C
H       0.9751   0.0505    0.292     H
C       0.9773   0.3716   0.2313     C
H         0.98   0.7754   0.6084     H
H       0.9829   0.2835   0.5925     H
C       0.9842   0.7421   0.4443     C
C       0.9859   0.2636    0.491     C
C       0.9861   0.7787   0.0532     C
C       0.9895   0.9007   0.7217     C
C       0.9939   0.2387   0.0106     C
C       0.9985   0.2302   0.2409     C
