data_I
_chemical_name_common  '/home/zhangsd/repos/MofS-CGCNN/ML/data/SSD/clean_cifs/HEFFEF_clean'
_cell_length_a 10.00600
_cell_length_b 18.34000
_cell_length_c 20.26000
_cell_angle_alpha 88.72000
_cell_angle_beta  83.46000
_cell_angle_gamma 86.86000
_space_group_name_H-M_alt      'P 1'


loop_
_space_group_symop_operation_xyz
  'x, y, z' 

loop_
_atom_site_label
_atom_site_fract_x
_atom_site_fract_y
_atom_site_fract_z
_atom_site_type_symbol
N       0.0014   0.1066   0.3674     N
C       0.0058   0.9297   0.7627     C
C       0.0064   0.9507   0.8352     C
C        0.011   0.1285   0.4376     C
H       0.0201   0.0856    0.465     H
C       0.0356   0.7045   0.2507     C
C        0.036   0.4029   0.8993     C
C       0.0393   0.8949    0.377     C
O        0.042   0.6082   0.8877     O
C        0.043   0.3436   0.8466     C
C       0.0432   0.6513   0.2015     C
C       0.0501   0.2376   0.7489     C
C       0.0508   0.8402   0.3303     C
O       0.0541   0.5491    0.103     O
C       0.0654   0.1793   0.6957     C
H       0.0693   0.8433   0.5461     H
C       0.0756   0.9883   0.1458     C
C       0.0837   0.0759    0.596     C
Cd     0.08432  0.03078  0.98155    Cd
C       0.0877   0.9045   0.8734     C
H       0.0878   0.1573   0.4388     H
H        0.089   0.0404   0.5637     H
H       0.0922    0.699    0.284     H
N       0.0981   0.9638   0.0781     N
N       0.0998   0.9165   0.9394     N
H       0.1069   0.6124   0.2015     H
Na      0.1071   0.2792   0.1209    Na
O       0.1122   0.3881   0.9464     O
Cd     0.11334  0.45214  0.03936    Cd
C       0.1138   0.9042    0.654     C
C       0.1164   0.1035   0.3251     C
C       0.1206   0.9222   0.7195     C
C       0.1221   0.0815   0.2613     C
C       0.1308   0.2816   0.8503     C
H        0.134   0.8169   0.3167     H
C       0.1374   0.2319   0.7989     C
O       0.1388    0.548   0.9641     O
C       0.1452   0.9378   0.1883     C
H       0.1475   0.9426   0.2337     H
C        0.148   0.5844    0.913     C
H       0.1616   0.7099   0.0366     H
C       0.1687   0.9121   0.4007     C
O       0.1692    0.965   0.4415     O
C       0.1707   0.8406   0.8536     C
C       0.1758   0.8963   0.0839     C
C       0.1806   0.8634   0.9606     C
H       0.1822    0.274   0.8855     H
H       0.1845   0.8219    0.811     H
C       0.1887   0.1508   0.6696     C
H       0.1925   0.8998   0.6248     H
H       0.1953   0.1171   0.3405     H
C       0.1997   0.1003   0.6176     C
H       0.2021   0.1934   0.7974     H
H       0.2034   0.0742   0.2345     H
H       0.2037   0.9291   0.7342     H
C       0.2054   0.8832   0.1511     C
C       0.2134   0.8536   0.0274     C
H       0.2188   0.6646   0.7998     H
C       0.2265   0.8114   0.9081     C
C       0.2473    0.718   0.0476     C
O       0.2565   0.3705   0.0874     O
H        0.257   0.8438   0.1661     H
H       0.2661   0.1649   0.6862     H
Cl      0.2705   0.1177   0.9475    Cl
O       0.2792   0.8894   0.3815     O
H       0.2804   0.7687   0.9108     H
C        0.282    0.609   0.8829     C
C       0.2925   0.7848   0.0467     C
C       0.2931    0.654   0.8227     C
H       0.3039   0.6111   0.0713     H
H       0.3159   0.6836   0.6917     H
O        0.325   0.0335   0.5421     O
C       0.3331   0.0695   0.5882     C
C       0.3382   0.6573   0.0665     C
O       0.3491   0.4663   0.0519     O
C         0.35   0.4164   0.0835     C
H       0.3503   0.7692    0.597     H
C       0.3684   0.7238   0.6925     C
H        0.387   0.3228   0.1854     H
C        0.387   0.7762   0.6364     C
H       0.3871   0.5541   0.9458     H
Cd      0.3893   0.9598   0.4549    Cd
C       0.3939   0.5872   0.9102     C
H       0.3958   0.4167   0.9308     H
O       0.4052   0.8882   0.5411     O
H       0.4131   0.2671   0.9141     H
H       0.4137   0.1111   0.3015     H
C       0.4199   0.6812   0.8001     C
O       0.4218   0.0691   0.4072     O
H       0.4283   0.3869   0.8585     H
O       0.4324   0.0913   0.6044     O
C       0.4327   0.7385   0.7449     C
C       0.4432   0.7881   0.0483     C
N         0.46   0.6633   0.0768     N
C        0.463   0.8378   0.6448     C
H       0.4646   0.1955   0.2073     H
C       0.4665   0.4001   0.8976     C
C       0.4704   0.3399   0.1691     C
C       0.4705   0.1495   0.3029     C
H       0.4729   0.5615   0.1133     H
C       0.4797   0.3875   0.1129     C
C       0.4827   0.8933   0.5852     C
H       0.4902    0.829   0.0342     H
C        0.497   0.2725   0.9284     C
C       0.4972   0.2029   0.2477     C
C       0.5028   0.7971   0.7523     C
C        0.503   0.7275   0.0716     C
H       0.5098    0.171   0.9658     H
C       0.5173   0.1067   0.4148     C
C       0.5203   0.6125   0.8871     C
H       0.5271   0.4385   0.8867     H
C       0.5295   0.8505   0.6971     C
C       0.5296   0.6601   0.8309     C
C       0.5335   0.5999   0.1024     C
H       0.5354   0.8045   0.7927     H
C        0.537   0.1622   0.3552     C
N         0.54   0.3367   0.9232     N
C       0.5568   0.2119   0.9517     C
C       0.5673   0.2615   0.2551     C
O       0.5676   0.9087   0.3956     O
H       0.5717   0.6131   0.1415     H
O       0.5782   0.9309   0.5928     O
C       0.5801   0.3188   0.1999     C
H       0.5863   0.8889   0.6985     H
H       0.5869   0.7329   0.0859     H
O       0.5948   0.1118   0.4589     O
H       0.6042   0.5833   0.0692     H
C       0.6061   0.4128   0.0898     C
Cd      0.6107   0.0402   0.5451    Cd
H       0.6129   0.4459   0.0542     H
C        0.613   0.2238   0.3636     C
H        0.613   0.6772   0.8146     H
C       0.6316   0.2762   0.3075     C
H       0.6497   0.2308    0.403     H
C         0.65   0.5836   0.9165     C
O       0.6509   0.5337   0.9481     O
C       0.6618   0.3427   0.9335     C
C       0.6669   0.9305   0.4118     C
O        0.675   0.9665   0.4579     O
H       0.6841   0.3164   0.3083     H
H       0.6961   0.3889   0.9287     H
C       0.7069    0.346   0.1773     C
C       0.7075   0.2152   0.9533     C
C        0.718    0.391   0.1171     C
H       0.7196   0.2313   0.0892     H
O       0.7208   0.1106   0.6185     O
Cl      0.7295   0.8823   0.0525    Cl
H       0.7339   0.8351   0.3138     H
H        0.743   0.1562   0.8339     H
O       0.7435   0.6295   0.9126     O
C       0.7527    0.282   0.9524     C
C       0.7735   0.1886   0.0919     C
H       0.7812   0.3354   0.2002     H
C       0.7866   0.1464   0.9726     C
C       0.7946   0.1168   0.8489     C
H       0.7963   0.0709   0.2658     H
H       0.7966   0.9258   0.7655     H
H       0.7979   0.8066   0.2026     H
C       0.8003   0.8997   0.3824     C
H       0.8047   0.8829   0.6595     H
H       0.8075   0.1002   0.3752     H
C       0.8113   0.8492   0.3304     C
H       0.8155   0.1781    0.189     H
H       0.8178    0.726   0.1145     H
C       0.8194   0.1366   0.0394     C
C       0.8242   0.1037   0.9161     C
C       0.8293   0.1594   0.1464     C
O       0.8308    0.035   0.5585     O
C       0.8313   0.0879   0.5993     C
H       0.8384   0.2901   0.9634     H
C        0.852   0.4156    0.087     C
H       0.8525   0.0574   0.7663     H
C       0.8548   0.0622   0.8117     C
O       0.8612    0.452   0.0359     O
C       0.8626   0.7681   0.2011     C
H        0.866   0.1831   0.6833     H
C       0.8692   0.7184   0.1497     C
C       0.8779   0.9185   0.7387     C
C       0.8794   0.0778   0.2805     C
C       0.8836   0.8965   0.6749     C
C       0.8862   0.0958    0.346     C
Cd     0.88666  0.54786  0.96064    Cd
O       0.8878   0.6119   0.0536     O
Na      0.8929   0.7208   0.8791    Na
H       0.8931   0.3876   0.7985     H
N       0.9002   0.0835   0.0606     N
N       0.9019   0.0362   0.9219     N
H       0.9078    0.301    0.716     H
H        0.911   0.9596   0.4363     H
H       0.9122   0.8427   0.5612     H
C       0.9123   0.0955   0.1266     C
Cd     0.91568  0.96922  0.01845    Cd
C       0.9163   0.9241    0.404     C
C       0.9244   0.0117   0.8542     C
H       0.9307   0.1567   0.4539     H
C       0.9346   0.8207   0.3043     C
O       0.9459   0.4509    0.897     O
C       0.9492   0.1598   0.6697     C
C       0.9499   0.7624   0.2511     C
C       0.9568   0.3487   0.7985     C
C        0.957   0.6564   0.1534     C
O        0.958   0.3918   0.1123     O
C       0.9607   0.1051    0.623     C
C        0.964   0.5971   0.1007     C
C       0.9644   0.2955   0.7493     C
H       0.9799   0.9144    0.535     H
C        0.989   0.8715   0.5624     C
C       0.9936   0.0493   0.1648     C
C       0.9942   0.0703   0.2373     C
N       0.9986   0.8934   0.6326     N
