data_I
_chemical_name_common  '/home/zhangsd/repos/MofS-CGCNN/ML/data/SSD/clean_cifs/HELDOT_clean'
_cell_length_a 13.14300
_cell_length_b 25.47200
_cell_length_c 25.47200
_cell_angle_alpha 120.00000
_cell_angle_beta  90.00000
_cell_angle_gamma 90.00000
_space_group_name_H-M_alt      'P 1'


loop_
_space_group_symop_operation_xyz
  'x, y, z' 

loop_
_atom_site_label
_atom_site_fract_x
_atom_site_fract_y
_atom_site_fract_z
_atom_site_type_symbol
Co         0.0  0.68476      0.0    Co
C      0.00723   0.5746   0.0844     C
C      0.00757   0.6597   0.7714     C
H      0.01027   0.2718   0.8451     H
O      0.01587  0.70911  0.93203     O
O      0.01757   0.5905  0.93582     O
C      0.02183    0.806   0.1199     C
C      0.02737   0.1615    0.832     C
O      0.02923   0.2762   0.3331     O
C      0.03377   0.6972    0.834     C
H      0.03757   0.6435   0.6881     H
C      0.04023   0.6316    0.085     C
C      0.04037   0.0521   0.7701     C
H      0.04343   0.8699   0.2404     H
C      0.04357   0.2747   0.8796     C
C      0.04443   0.4946   0.1062     C
C      0.04453     0.31   0.2605     C
C      0.04877   0.3864   0.9208     C
C      0.05667    0.668   0.7293     C
C      0.05983   0.3599   0.2025     C
C      0.06107   0.2198   0.8816     C
C      0.06913   0.5481    0.109     C
C      0.07357    0.332    0.926     C
H      0.07627   0.0158   0.7598     H
C      0.07717   0.1082   0.8175     C
C      0.08307   0.4876   0.9413     C
C      0.08623   0.2989   0.3088     C
H      0.08933    0.477   0.1223     H
H      0.09433   0.3879   0.1944     H
C      0.09553     0.35   0.2473     C
O      0.09733  0.79268  0.13993     O
C      0.10677   0.7403   0.8499     C
C      0.11197   0.4364   0.9434     C
C      0.11207   0.2273   0.9321     C
H      0.12287   0.2235   0.0412     H
H      0.12287   0.7662   0.8915     H
C      0.12347   0.3359   0.9751     C
H      0.12557   0.1922    0.935     H
H      0.12697   0.5218    0.958     H
O      0.12873  0.65072   0.1074     O
H      0.13063   0.5679   0.1285     H
C      0.13327   0.7104   0.7433     C
H      0.13627   0.1091   0.8394     H
Co     0.14214  0.27655   0.3891    Co
H      0.14407   0.3746   0.0071     H
C      0.14517   0.2832   0.9792     C
H      0.15493   0.3704   0.2693     H
O       0.1574  0.68739  0.01447     O
H      0.15757   0.5642   0.5248     H
C      0.15797    0.747   0.8059     C
C      0.17537    0.253   0.0589     C
H      0.17577   0.4358   0.9606     H
O      0.17593  0.31261  0.32708     O
H       0.1784   0.6296   0.8989     H
C      0.18817   0.7168    0.696     C
H      0.18927   0.6254   0.6325     H
Co     0.19119  0.72345  0.11255    Co
H      0.19707   0.8909   0.7303     H
C      0.20007   0.2896   0.0329     C
H       0.2027   0.4321   0.5606     H
O       0.2046  0.34928  0.45668     O
H      0.20637   0.4782   0.4362     H
H      0.20777   0.8078   0.7428     H
C      0.20987   0.6641   0.6392     C
H      0.21047   0.2338   0.1253     H
H      0.21047   0.7765   0.8177     H
C      0.22127   0.7727   0.7048     C
C      0.22137   0.5636    0.507     C
C      0.22657   0.2597   0.1096     C
O        0.236  0.20732  0.34725     O
C       0.2378     0.65   0.8973     C
H        0.239   0.6121   0.8065     H
H        0.244    0.523   0.6453     H
C       0.2471   0.7011   0.0099     C
C      0.25027   0.5124   0.4537     C
C      0.25617   0.8918   0.7093     C
H      0.25707   0.9842    0.744     H
C      0.25977    0.668    0.594     C
C       0.2642   0.4519   0.5609     C
C      0.27227   0.7802   0.6618     C
C       0.2735   0.6401   0.8426     C
C      0.27667    0.332   0.0613     C
C      0.28457   0.6136   0.5344     C
C       0.2888     0.69   0.9505     C
C       0.2889   0.5054   0.6116     C
C      0.28977   0.7253   0.6049     C
H       0.2899   0.1301   0.3705     H
C      0.29297   0.9479    0.718     C
C       0.2931   0.3684   0.4534     C
H      0.29577   0.3565   0.0446     H
C      0.29957   0.3028   0.1368     C
O       0.3041   0.7238   0.0569     O
C      0.30597   0.8385   0.6705     C
C       0.3115    0.194   0.3139     C
O      0.31577   0.4095  0.34532     O
O      0.31747  0.29089  0.22292     O
H      0.32307   0.7282   0.5733     H
C      0.32577   0.3403   0.1117     C
C       0.3261   0.4254   0.5098     C
Co     0.33333  0.31524  0.31524    Co
C      0.34057   0.5098   0.4254     C
C       0.3409   0.1117   0.3403     C
H       0.3436   0.5733   0.7282     H
O       0.3492  0.22292  0.29089     O
O       0.3509  0.34532   0.4095     O
C      0.35517   0.3139    0.194     C
C       0.3607   0.6705   0.8385     C
O      0.36257   0.0569   0.7238     O
C       0.3671   0.1368   0.3028     C
H       0.3709   0.0446   0.3565     H
C      0.37357   0.4534   0.3684     C
C       0.3737    0.718   0.9479     C
H      0.37677   0.3705   0.1301     H
C       0.3769   0.6049   0.7253     C
C      0.37777   0.6116   0.5054     C
C      0.37787   0.9505     0.69     C
C       0.3821   0.5344   0.6136     C
C         0.39   0.0613    0.332     C
C      0.39317   0.8426   0.6401     C
C       0.3944   0.6618   0.7802     C
C      0.40247   0.5609   0.4519     C
C       0.4069    0.594    0.668     C
H       0.4096    0.744   0.9842     H
C       0.4105   0.7093   0.8918     C
C       0.4164   0.4537   0.5124     C
C      0.41957   0.0099   0.7011     C
H      0.42267   0.6453    0.523     H
H      0.42767   0.8065   0.6121     H
C      0.42887   0.8973     0.65     C
O      0.43067  0.34725  0.20732     O
C       0.4401   0.1096   0.2597     C
C       0.4453    0.507   0.5636     C
C       0.4454   0.7048   0.7727     C
H       0.4562   0.1253   0.2338     H
H       0.4562   0.8177   0.7765     H
C       0.4568   0.6392   0.6641     C
H       0.4589   0.7428   0.8078     H
H       0.4603   0.4362   0.4782     H
O      0.46207  0.45668  0.34928     O
H      0.46397   0.5606   0.4321     H
C       0.4666   0.0329   0.2896     C
H       0.4696   0.7303   0.8909     H
Co     0.47548  0.11255  0.72345    Co
H       0.4774   0.6325   0.6254     H
C       0.4785    0.696   0.7168     C
H      0.48827   0.8989   0.6296     H
O      0.49073  0.32708  0.31261     O
H       0.4909   0.9606   0.4358     H
C       0.4913   0.0589    0.253     C
C       0.5087   0.8059    0.747     C
H       0.5091   0.5248   0.5642     H
O      0.50927  0.01447  0.68739     O
H      0.51173   0.2693   0.3704     H
C       0.5215   0.9792   0.2832     C
H       0.5226   0.0071   0.3746     H
Co     0.52452   0.3891  0.27655    Co
H       0.5304   0.8394   0.1091     H
C       0.5334   0.7433   0.7104     C
H      0.53603   0.1285   0.5679     H
O      0.53793   0.1074  0.65072     O
H       0.5397    0.958   0.5218     H
H       0.5411    0.935   0.1922     H
C       0.5432   0.9751   0.3359     C
H       0.5438   0.0412   0.2235     H
H       0.5438   0.8915   0.7662     H
C       0.5546   0.9321   0.2273     C
C       0.5547   0.9434   0.4364     C
C       0.5599   0.8499   0.7403     C
O      0.56933  0.13993  0.79268     O
C      0.57113   0.2473     0.35     C
H      0.57233   0.1944   0.3879     H
H      0.57733   0.1223    0.477     H
C      0.58043   0.3088   0.2989     C
C       0.5836   0.9413   0.4876     C
C       0.5895   0.8175   0.1082     C
H       0.5904   0.7598   0.0158     H
C       0.5931    0.926    0.332     C
C      0.59753    0.109   0.5481     C
C       0.6056   0.8816   0.2198     C
C      0.60683   0.2025   0.3599     C
C         0.61   0.7293    0.668     C
C       0.6179   0.9208   0.3864     C
C      0.62213   0.2605     0.31     C
C      0.62223   0.1062   0.4946     C
C       0.6231   0.8796   0.2747     C
H      0.62323   0.2404   0.8699     H
C       0.6263   0.7701   0.0521     C
C      0.62643    0.085   0.6316     C
H       0.6291   0.6881   0.6435     H
C       0.6329    0.834   0.6972     C
O      0.63743   0.3331   0.2762     O
C       0.6393    0.832   0.1615     C
C      0.64483   0.1199    0.806     C
O       0.6491  0.93582   0.5905     O
O       0.6508  0.93203  0.70911     O
H       0.6564   0.8451   0.2718     H
C       0.6591   0.7714   0.6597     C
C      0.65943   0.0844   0.5746     C
Co     0.66667      0.0  0.68476    Co
C       0.6739   0.9156   0.4902     C
C      0.67423   0.2286   0.8883     C
H      0.67693   0.1549   0.4267     H
O      0.68253  0.06797  0.77708     O
O      0.68423  0.06418  0.65468     O
C       0.6885   0.8801   0.6861     C
C      0.69403    0.168   0.3295     C
O       0.6959   0.6669   0.9431     O
C      0.70043    0.166   0.8632     C
H      0.70423   0.3119   0.9554     H
C       0.7069    0.915   0.5466     C
C      0.70703   0.2299    0.282     C
H       0.7101   0.7596   0.6295     H
C      0.71023   0.1204   0.3951     C
C       0.7111   0.8938   0.3884     C
C       0.7112   0.7395   0.0495     C
C      0.71543   0.0792   0.4656     C
C      0.72333   0.2707   0.9387     C
C       0.7265   0.7975   0.1574     C
C      0.72773   0.1184   0.3382     C
C       0.7358    0.891   0.4391     C
C      0.74023    0.074    0.406     C
H      0.74293   0.2402    0.256     H
C      0.74383   0.1825   0.2907     C
C      0.74973   0.0587   0.5463     C
C       0.7529   0.6912   0.9901     C
H        0.756   0.8777   0.3547     H
H        0.761   0.8056   0.1935     H
C       0.7622   0.7527   0.1027     C
O        0.764  0.86007  0.65275     O
C      0.77343   0.1501   0.8904     C
C      0.77863   0.0566    0.493     C
C      0.77873   0.0679   0.2952     C
H      0.78953   0.1085   0.8747     H
H      0.78953   0.9588   0.1823     H
C      0.79013   0.0249   0.3608     C
H      0.79223    0.065   0.2572     H
H      0.79363    0.042   0.5638     H
O       0.7954   0.8926  0.54332     O
H       0.7973   0.8715   0.4394     H
C      0.79993   0.2567   0.9671     C
H      0.80293   0.1606   0.2697     H
Co     0.80881   0.6109  0.88745    Co
H      0.81073   0.9929   0.3675     H
C      0.81183   0.0208    0.304     C
H       0.8216   0.7307   0.1011     H
O      0.82407  0.98553  0.67292     O
H      0.82423   0.4752   0.0394     H
C      0.82463   0.1941   0.9411     C
C      0.84203   0.9411   0.1941     C
H      0.84243   0.0394   0.4752     H
O       0.8426  0.67292  0.98553     O
H      0.84507   0.1011   0.7307     H
C      0.85483    0.304   0.0208     C
H      0.85593   0.3675   0.9929     H
Co     0.85786  0.88745   0.6109    Co
H      0.86373   0.2697   0.1606     H
C      0.86673   0.9671   0.2567     C
H      0.86937   0.4394   0.8715     H
O      0.87127  0.54332   0.8926     O
H      0.87303   0.5638    0.042     H
H      0.87443   0.2572    0.065     H
C      0.87653   0.3608   0.0249     C
H      0.87713   0.1823   0.9588     H
H      0.87713   0.8747   0.1085     H
C      0.88793   0.2952   0.0679     C
C      0.88803    0.493   0.0566     C
C      0.89323   0.8904   0.1501     C
O      0.90267  0.65275  0.86007     O
C      0.90447   0.1027   0.7527     C
H      0.90567   0.1935   0.8056     H
H      0.91067   0.3547   0.8777     H
C      0.91377   0.9901   0.6912     C
C      0.91693   0.5463   0.0587     C
C      0.92283   0.2907   0.1825     C
H      0.92373    0.256   0.2402     H
C      0.92643    0.406    0.074     C
C      0.93087   0.4391    0.891     C
C      0.93893   0.3382   0.1184     C
C      0.94017   0.1574   0.7975     C
C      0.94333   0.9387   0.2707     C
C      0.95123   0.4656   0.0792     C
C      0.95547   0.0495   0.7395     C
C      0.95557   0.3884   0.8938     C
C      0.95643   0.3951   0.1204     C
H      0.95657   0.6295   0.7596     H
C      0.95963    0.282   0.2299     C
C      0.95977   0.5466    0.915     C
H      0.96243   0.9554   0.3119     H
C      0.96623   0.8632    0.166     C
O      0.97077   0.9431   0.6669     O
C      0.97263   0.3295    0.168     C
C      0.97817   0.6861   0.8801     C
O      0.98243  0.65468  0.06418     O
O      0.98413  0.77708  0.06797     O
H      0.98973   0.4267   0.1549     H
C      0.99243   0.8883   0.2286     C
C      0.99277   0.4902   0.9156     C
