data_I
_chemical_name_common  '/home/zhangsd/repos/MofS-CGCNN/ML/data/SSD/clean_cifs/HIHGAI_clean'
_cell_length_a 17.77560
_cell_length_b 17.77560
_cell_length_c 24.83700
_cell_angle_alpha 90.00000
_cell_angle_beta  90.00000
_cell_angle_gamma 116.39600
_space_group_name_H-M_alt      'P 1'


loop_
_space_group_symop_operation_xyz
  'x, y, z' 

loop_
_atom_site_label
_atom_site_fract_x
_atom_site_fract_y
_atom_site_fract_z
_atom_site_type_symbol
Si         0.0      0.0     0.25    Si
Si         0.0      0.0     0.75    Si
O      0.00873  0.72005   0.4341     O
O      0.00873  0.72005   0.5659     O
Eu     0.01716  0.62939      0.5    Eu
C      0.01845  0.08995  0.29472     C
C      0.01845  0.08995  0.70528     C
C      0.03772  0.84068   0.3561     C
C      0.03772  0.84068   0.6439     C
C      0.04082  0.21038  0.37541     C
C      0.04082  0.21038  0.62459     C
C      0.04903  0.89897   0.3159     C
C      0.04903  0.89897   0.6841     C
C      0.05167  0.27013  0.42036     C
C      0.05167  0.27013  0.57964     C
H       0.0686   0.8972   0.1974     H
H       0.0686   0.8972   0.8026     H
O      0.07982  0.46874   0.4425     O
O      0.07982  0.46874   0.5575     O
H       0.0841   0.8363   0.3701     H
H       0.0841   0.8363   0.6299     H
C      0.08995  0.01845  0.20528     C
C      0.08995  0.01845  0.79472     C
C      0.09883  0.14477  0.31462     C
C      0.09883  0.14477  0.68538     C
O      0.09953  0.59773  0.43929     O
O      0.09953  0.59773  0.56071     O
C      0.10103  0.95097   0.1841     C
C      0.10103  0.95097   0.8159     C
H       0.1028   0.9314   0.3026     H
H       0.1028   0.9314   0.6974     H
C      0.10927  0.20253  0.35453     C
C      0.10927  0.20253  0.64547     C
C      0.11302  0.53898  0.42373     C
C      0.11302  0.53898  0.57627     C
O      0.12238  0.30702  0.44159     O
O      0.12238  0.30702  0.55841     O
H       0.1418   0.1458   0.1996     H
H       0.1418   0.1458   0.8004     H
C      0.14477  0.09883  0.18538     C
C      0.14477  0.09883  0.81462     C
H       0.1458   0.1418   0.3004     H
H       0.1458   0.1418   0.6996     H
C      0.15932  0.96228   0.1439     C
C      0.15932  0.96228   0.8561     C
H       0.1629   0.2367   0.3675     H
H       0.1629   0.2367   0.6325     H
H       0.1637   0.9159   0.1299     H
H       0.1637   0.9159   0.8701     H
H       0.1697   0.4429   0.3741     H
H       0.1697   0.4429   0.6259     H
C      0.17378  0.55722  0.37769     C
C      0.17378  0.55722  0.62231     C
C      0.19442  0.49658  0.35925     C
C      0.19442  0.49658  0.64075     C
H          0.2   0.6778   0.3667     H
H          0.2   0.6778   0.6333     H
C      0.20253  0.10927  0.14547     C
C      0.20253  0.10927  0.85453     C
C      0.21038  0.04082  0.12459     C
C      0.21038  0.04082  0.87541     C
C      0.21298  0.63542  0.35481     C
C      0.21298  0.63542  0.64519     C
H       0.2223   0.3631   0.1401     H
H       0.2223   0.3631   0.8599     H
Eu     0.22829  0.31654      0.5    Eu
H       0.2367   0.1629   0.1325     H
H       0.2367   0.1629   0.8675     H
H       0.2402   0.4596   0.2054     H
H       0.2402   0.4596   0.7946     H
C      0.25226  0.51554  0.31836     C
C      0.25226  0.51554  0.68164     C
H       0.2645   0.4729   0.3058     H
H       0.2645   0.4729   0.6942     H
C      0.27013  0.05167  0.07964     C
C      0.27013  0.05167  0.92036     C
C      0.27184  0.65216  0.31422     C
C      0.27184  0.65216  0.68578     C
C       0.2762   0.4026   0.1494     C
C       0.2762   0.4026   0.8506     C
O      0.27995  0.99127   0.0659     O
O      0.27995  0.99127   0.9341     O
C       0.2878   0.4622   0.1883     C
C       0.2878   0.4622   0.8117     C
C      0.29263  0.59237   0.2953     C
C      0.29263  0.59237   0.7047     C
H       0.2941   0.7023   0.2004     H
H       0.2941   0.7023   0.7996     H
H       0.2977   0.7059   0.2996     H
H       0.2977   0.7059   0.7004     H
O      0.30702  0.12238  0.05841     O
O      0.30702  0.12238  0.94159     O
Eu     0.31654  0.22829      0.0    Eu
O       0.3179   0.3571   0.0387     O
O       0.3179   0.3571   0.9613     O
H       0.3222      0.8   0.1333     H
H       0.3222      0.8   0.8667     H
C      0.32553  0.33287  0.08621     C
C      0.32553  0.33287  0.91379     C
O       0.3312   0.3974    0.436     O
O       0.3312   0.3974    0.564     O
C      0.33287  0.32553  0.41379     C
C      0.33287  0.32553  0.58621     C
C      0.33798  0.40202  0.12694     C
C      0.33798  0.40202  0.87306     C
C      0.34784  0.72816  0.18578     C
C      0.34784  0.72816  0.81422     C
O       0.3571   0.3179   0.4613     O
O       0.3571   0.3179   0.5387     O
H       0.3631   0.2223   0.3599     H
H       0.3631   0.2223   0.6401     H
C      0.36414  0.52526  0.20378     C
C      0.36414  0.52526  0.79622     C
C      0.36458  0.78702  0.14519     C
C      0.36458  0.78702  0.85481     C
Eu     0.37061  0.98284      0.0    Eu
Si     0.38381  0.61619     0.25    Si
Si     0.38381  0.61619     0.75    Si
O       0.3974   0.3312    0.064     O
O       0.3974   0.3312    0.936     O
C      0.40202  0.33798  0.37306     C
C      0.40202  0.33798  0.62694     C
O      0.40227  0.90047  0.06071     O
O      0.40227  0.90047  0.93929     O
C       0.4026   0.2762   0.3506     C
C       0.4026   0.2762   0.6494     C
C      0.40763  0.70737   0.2047     C
C      0.40763  0.70737   0.7953     C
C       0.4203   0.4505   0.1448     C
C       0.4203   0.4505   0.8552     C
C       0.4319   0.5089   0.1834     C
C       0.4319   0.5089   0.8166     C
C      0.44278  0.82622  0.12231     C
C      0.44278  0.82622  0.87769     C
H       0.4429   0.1697   0.1259     H
H       0.4429   0.1697   0.8741     H
H        0.443    0.465   0.3691     H
H        0.443    0.465   0.6309     H
C       0.4505   0.4203   0.3552     C
C       0.4505   0.4203   0.6448     C
H       0.4596   0.2402   0.2946     H
H       0.4596   0.2402   0.7054     H
H       0.4603   0.5143   0.3027     H
H       0.4603   0.5143   0.6973     H
C      0.46102  0.88698  0.07627     C
C      0.46102  0.88698  0.92373     C
C       0.4622   0.2878   0.3117     C
C       0.4622   0.2878   0.6883     C
H        0.465    0.443   0.1309     H
H        0.465    0.443   0.8691     H
O      0.46874  0.07982   0.0575     O
O      0.46874  0.07982   0.9425     O
H       0.4729   0.2645   0.1942     H
H       0.4729   0.2645   0.8058     H
C      0.47474  0.63586  0.29622     C
C      0.47474  0.63586  0.70378     C
C      0.48446  0.74774  0.18164     C
C      0.48446  0.74774  0.81836     C
H       0.4857   0.5397   0.1973     H
H       0.4857   0.5397   0.8027     H
C       0.4911   0.5681   0.3166     C
C       0.4911   0.5681   0.6834     C
C      0.49658  0.19442  0.14075     C
C      0.49658  0.19442  0.85925     C
C      0.50342  0.80558  0.14075     C
C      0.50342  0.80558  0.85925     C
C       0.5089   0.4319   0.3166     C
C       0.5089   0.4319   0.6834     C
H       0.5143   0.4603   0.1973     H
H       0.5143   0.4603   0.8027     H
C      0.51554  0.25226  0.18164     C
C      0.51554  0.25226  0.81836     C
C      0.52526  0.36414  0.29622     C
C      0.52526  0.36414  0.70378     C
H       0.5271   0.7355   0.1942     H
H       0.5271   0.7355   0.8058     H
O      0.53126  0.92018   0.0575     O
O      0.53126  0.92018   0.9425     O
H        0.535    0.557   0.1309     H
H        0.535    0.557   0.8691     H
C       0.5378   0.7122   0.3117     C
C       0.5378   0.7122   0.6883     C
C      0.53898  0.11302  0.07627     C
C      0.53898  0.11302  0.92373     C
H       0.5397   0.4857   0.3027     H
H       0.5397   0.4857   0.6973     H
H       0.5404   0.7598   0.2946     H
H       0.5404   0.7598   0.7054     H
C       0.5495   0.5797   0.3552     C
C       0.5495   0.5797   0.6448     C
H        0.557    0.535   0.3691     H
H        0.557    0.535   0.6309     H
H       0.5571   0.8303   0.1259     H
H       0.5571   0.8303   0.8741     H
C      0.55722  0.17378  0.12231     C
C      0.55722  0.17378  0.87769     C
C       0.5681   0.4911   0.1834     C
C       0.5681   0.4911   0.8166     C
C       0.5797   0.5495   0.1448     C
C       0.5797   0.5495   0.8552     C
C      0.59237  0.29263   0.2047     C
C      0.59237  0.29263   0.7953     C
C       0.5974   0.7238   0.3506     C
C       0.5974   0.7238   0.6494     C
O      0.59773  0.09953  0.06071     O
O      0.59773  0.09953  0.93929     O
C      0.59798  0.66202  0.37306     C
C      0.59798  0.66202  0.62694     C
O       0.6026   0.6688    0.064     O
O       0.6026   0.6688    0.936     O
Si     0.61619  0.38381     0.25    Si
Si     0.61619  0.38381     0.75    Si
Eu     0.62939  0.01716      0.0    Eu
C      0.63542  0.21298  0.14519     C
C      0.63542  0.21298  0.85481     C
C      0.63586  0.47474  0.20378     C
C      0.63586  0.47474  0.79622     C
H       0.6369   0.7777   0.3599     H
H       0.6369   0.7777   0.6401     H
O       0.6429   0.6821   0.4613     O
O       0.6429   0.6821   0.5387     O
C      0.65216  0.27184  0.18578     C
C      0.65216  0.27184  0.81422     C
C      0.66202  0.59798  0.12694     C
C      0.66202  0.59798  0.87306     C
C      0.66713  0.67447  0.41379     C
C      0.66713  0.67447  0.58621     C
O       0.6688   0.6026    0.436     O
O       0.6688   0.6026    0.564     O
C      0.67447  0.66713  0.08621     C
C      0.67447  0.66713  0.91379     C
H       0.6778      0.2   0.1333     H
H       0.6778      0.2   0.8667     H
O       0.6821   0.6429   0.0387     O
O       0.6821   0.6429   0.9613     O
Eu     0.68346  0.77171      0.0    Eu
O      0.69298  0.87762  0.05841     O
O      0.69298  0.87762  0.94159     O
H       0.7023   0.2941   0.2996     H
H       0.7023   0.2941   0.7004     H
H       0.7059   0.2977   0.2004     H
H       0.7059   0.2977   0.7996     H
C      0.70737  0.40763   0.2953     C
C      0.70737  0.40763   0.7047     C
C       0.7122   0.5378   0.1883     C
C       0.7122   0.5378   0.8117     C
O      0.72005  0.00873   0.0659     O
O      0.72005  0.00873   0.9341     O
C       0.7238   0.5974   0.1494     C
C       0.7238   0.5974   0.8506     C
C      0.72816  0.34784  0.31422     C
C      0.72816  0.34784  0.68578     C
C      0.72987  0.94833  0.07964     C
C      0.72987  0.94833  0.92036     C
H       0.7355   0.5271   0.3058     H
H       0.7355   0.5271   0.6942     H
C      0.74774  0.48446  0.31836     C
C      0.74774  0.48446  0.68164     C
H       0.7598   0.5404   0.2054     H
H       0.7598   0.5404   0.7946     H
H       0.7633   0.8371   0.1325     H
H       0.7633   0.8371   0.8675     H
Eu     0.77171  0.68346      0.5    Eu
H       0.7777   0.6369   0.1401     H
H       0.7777   0.6369   0.8599     H
C      0.78702  0.36458  0.35481     C
C      0.78702  0.36458  0.64519     C
C      0.78962  0.95918  0.12459     C
C      0.78962  0.95918  0.87541     C
C      0.79747  0.89073  0.14547     C
C      0.79747  0.89073  0.85453     C
H          0.8   0.3222   0.3667     H
H          0.8   0.3222   0.6333     H
C      0.80558  0.50342  0.35925     C
C      0.80558  0.50342  0.64075     C
C      0.82622  0.44278  0.37769     C
C      0.82622  0.44278  0.62231     C
H       0.8303   0.5571   0.3741     H
H       0.8303   0.5571   0.6259     H
H       0.8363   0.0841   0.1299     H
H       0.8363   0.0841   0.8701     H
H       0.8371   0.7633   0.3675     H
H       0.8371   0.7633   0.6325     H
C      0.84068  0.03772   0.1439     C
C      0.84068  0.03772   0.8561     C
H       0.8542   0.8582   0.3004     H
H       0.8542   0.8582   0.6996     H
C      0.85523  0.90117  0.18538     C
C      0.85523  0.90117  0.81462     C
H       0.8582   0.8542   0.1996     H
H       0.8582   0.8542   0.8004     H
O      0.87762  0.69298  0.44159     O
O      0.87762  0.69298  0.55841     O
C      0.88698  0.46102  0.42373     C
C      0.88698  0.46102  0.57627     C
C      0.89073  0.79747  0.35453     C
C      0.89073  0.79747  0.64547     C
H       0.8972   0.0686   0.3026     H
H       0.8972   0.0686   0.6974     H
C      0.89897  0.04903   0.1841     C
C      0.89897  0.04903   0.8159     C
O      0.90047  0.40227  0.43929     O
O      0.90047  0.40227  0.56071     O
C      0.90117  0.85523  0.31462     C
C      0.90117  0.85523  0.68538     C
C      0.91005  0.98155  0.20528     C
C      0.91005  0.98155  0.79472     C
H       0.9159   0.1637   0.3701     H
H       0.9159   0.1637   0.6299     H
O      0.92018  0.53126   0.4425     O
O      0.92018  0.53126   0.5575     O
H       0.9314   0.1028   0.1974     H
H       0.9314   0.1028   0.8026     H
C      0.94833  0.72987  0.42036     C
C      0.94833  0.72987  0.57964     C
C      0.95097  0.10103   0.3159     C
C      0.95097  0.10103   0.6841     C
C      0.95918  0.78962  0.37541     C
C      0.95918  0.78962  0.62459     C
C      0.96228  0.15932   0.3561     C
C      0.96228  0.15932   0.6439     C
C      0.98155  0.91005  0.29472     C
C      0.98155  0.91005  0.70528     C
Eu     0.98284  0.37061      0.5    Eu
O      0.99127  0.27995   0.4341     O
O      0.99127  0.27995   0.5659     O
