data_I
_chemical_name_common  '/home/zhangsd/repos/MofS-CGCNN/ML/data/SSD/clean_cifs/HISSIN_clean'
_cell_length_a 12.94900
_cell_length_b 13.86900
_cell_length_c 27.97200
_cell_angle_alpha 104.31500
_cell_angle_beta  98.30100
_cell_angle_gamma 94.34900
_space_group_name_H-M_alt      'P 1'


loop_
_space_group_symop_operation_xyz
  'x, y, z' 

loop_
_atom_site_label
_atom_site_fract_x
_atom_site_fract_y
_atom_site_fract_z
_atom_site_type_symbol
H        0.004    0.827   0.3438     H
O       0.0051    0.011  0.86085     O
O       0.0092   0.5592  0.36359     O
Eu     0.01589  0.10482  0.08637    Eu
C       0.0174   0.6506  0.36476     C
C       0.0216    0.322  0.68267     C
C       0.0229   0.2245  0.68465     C
Eu     0.02882  0.45434  0.41526    Eu
H        0.045   0.1284   0.8105     H
O       0.0539   0.7189  0.40336     O
H       0.0574   0.4648    0.726     H
C       0.0591    0.398  0.72631     C
C       0.0637   0.2015  0.72841     C
H       0.0654   0.1347   0.7287     H
C       0.0805   0.0659   0.8915     C
O      0.09493  0.68376  0.57653     O
O       0.0982  0.97367  0.04556     O
C       0.0985   0.3739  0.76973     C
C       0.0992   0.1715  0.83285     C
O       0.1018   0.4763  0.54273     O
C       0.1022   0.2758  0.77172     C
O       0.1125  0.04811  0.93328     O
O       0.1137   0.8685  0.97435     O
H       0.1232   0.4251   0.7985     H
O       0.1264   0.3806  0.47107     O
C       0.1319   0.8992  0.02108     C
C       0.1333   0.1532  0.87862     C
O       0.1397   0.6242  0.64167     O
C       0.1426    0.406  0.51765     C
C       0.1444   0.2533  0.81952     C
H       0.1477   0.8648   0.1898     H
C       0.1606   0.6802  0.61411     C
O       0.1742   0.1496  0.14169     O
H       0.1748   0.8991   0.2759     H
H       0.1806   0.9082   0.1181     H
C          0.2   0.8403  0.04819     C
C       0.2116   0.8551  0.20686     C
C       0.2134   0.8577  0.09969     C
C       0.2142   0.2164  0.91245     C
C       0.2159   0.3522  0.54414     C
H       0.2227   0.2375   0.4848     H
C       0.2276   0.3151  0.85376     C
C       0.2277   0.8753  0.25851     C
H       0.2293   0.4469   0.6129     H
H       0.2361   0.2045   0.9434     H
O       0.2398    0.306  0.14755     O
C       0.2438   0.2255  0.15945     C
H       0.2455    0.758   0.9864     H
C       0.2498   0.2651  0.51856     C
H       0.2507   0.7896   0.5624     H
H       0.2518   0.4715   0.6895     H
C        0.252   0.7681  0.02084     C
C       0.2543   0.3901   0.5952     C
H       0.2603   0.3692   0.8453     H
C       0.2624   0.2977  0.89975     C
C       0.2659   0.7421  0.62535     C
C       0.2744   0.8014  0.12443     C
O       0.2787   0.9302  0.36428     O
C       0.2895   0.8208  0.18029     C
H       0.2944     0.07   0.1942     H
C       0.2961   0.7928  0.59186     C
O       0.2974  0.07474  0.47415     O
H       0.3112   0.5374   0.7741     H
C       0.3135   0.4528  0.70428     C
C       0.3139   0.7108  0.04474     C
H        0.315   0.7075   0.6899     H
C       0.3212   0.8605  0.28423     C
C       0.3229   0.7253  0.09646     C
C       0.3241   0.2182  0.54276     C
C       0.3293   0.3449   0.6203     C
C       0.3326   0.2147  0.19731     C
C       0.3349   0.7442  0.66833     C
C       0.3397   0.8801  0.34034     C
C       0.3412   0.1263  0.21121     C
C       0.3487   0.4919  0.75539     C
C       0.3493   0.3674  0.93637     C
C        0.357   0.1234  0.51296     C
H        0.361   0.6843   0.1123     H
C       0.3646    0.259  0.59313     C
C       0.3685   0.3867  0.67497     C
O       0.3689   0.8888  0.52448     O
C       0.3726   0.6342  0.01507     C
O        0.376  0.35119  0.97838     O
Eu     0.38045   0.9253  0.44605    Eu
C       0.3842   0.8076  0.20715     C
O       0.3896  0.43785  0.92175     O
O       0.3918    0.647  0.97411     O
C       0.3935   0.8481  0.60219     C
C       0.3997   0.8265  0.25822     C
O       0.4002  0.56478  0.03259     O
H       0.4037   0.3555   0.2121     H
C        0.406   0.2961  0.22181     C
O       0.4137    0.845   0.3613     O
H       0.4159   0.2286   0.6089     H
C       0.4182   0.1198  0.24989     C
H       0.4214   0.0597   0.2588     H
C        0.429   0.8993  0.56471     C
O       0.4328   0.5732  0.85832     O
C       0.4338   0.8002  0.68019     C
C       0.4379    0.464  0.77838     C
H        0.438   0.7855     0.19     H
H        0.441   0.6123   0.2354     H
O       0.4438  0.09508  0.52767     O
O       0.4529    0.534  0.14513     O
C       0.4615   0.8527  0.64602     C
C       0.4625   0.3652  0.69826     C
H       0.4633   0.8164   0.2754     H
Eu     0.46862  0.43586  0.06079    Eu
H       0.4696   0.6537   0.7229     H
H       0.4735   0.1088   0.3471     H
C       0.4741   0.5037  0.83374     C
O       0.4817   0.0507  0.42273     O
C       0.4827   0.2902  0.26056     C
C       0.4897   0.2009  0.27527     C
C       0.4959   0.4036  0.74966     C
H       0.4961   0.6755   0.3206     H
H       0.5039   0.3245   0.6794     H
C       0.5041   0.5964  0.25034     C
C       0.5103   0.7991  0.72473     C
C       0.5173   0.7098  0.73944     C
O       0.5183   0.9493  0.57727     O
C       0.5259   0.4963  0.16626     C
H       0.5265   0.8912   0.6529     H
H       0.5304   0.3463   0.2771     H
Eu     0.53139  0.56414  0.93921    Eu
H       0.5367   0.1836   0.7246     H
C       0.5375   0.6348  0.30174     C
C       0.5385   0.1473  0.35398     C
O       0.5471    0.466  0.85487     O
O       0.5562  0.90492  0.47233     O
H        0.559   0.3877   0.7646     H
H        0.562   0.2145     0.81     H
C       0.5621    0.536  0.22162     C
C       0.5662   0.1998  0.31981     C
O       0.5672   0.4268  0.14168     O
C        0.571   0.1007  0.43529     C
H       0.5786   0.9403   0.7412     H
C       0.5818   0.8802  0.75011     C
H       0.5841   0.7714   0.3911     H
O       0.5863    0.155   0.6387     O
C        0.594   0.7039  0.77819     C
H       0.5963   0.6445   0.7879     H
O       0.5998  0.43522  0.96741     O
C       0.6003   0.1735  0.74178     C
C       0.6065   0.1519  0.39781     C
O       0.6082    0.353  0.02589     O
O       0.6104  0.56215  0.07825     O
C       0.6158   0.1924  0.79285     C
Eu     0.61955   0.0747  0.55395    Eu
O        0.624  0.64881  0.02162     O
C       0.6274   0.3658  0.98493     C
O       0.6311   0.1112  0.47552     O
C       0.6315   0.6133  0.32503     C
C       0.6354    0.741  0.40687     C
H        0.639   0.3157   0.8877     H
C        0.643   0.8766  0.48704     C
C       0.6507   0.6326  0.06363     C
C       0.6513   0.5081  0.24461     C
C       0.6588   0.8737  0.78879     C
C       0.6603   0.1199  0.65966     C
C       0.6651   0.2558  0.33167     C
C       0.6674   0.7853  0.80269     C
C       0.6707   0.6551   0.3797     C
C       0.6759   0.7818  0.45724     C
C       0.6771   0.2747  0.90354     C
C       0.6788   0.1395  0.71577     C
H        0.685   0.2925   0.3101     H
C       0.6861   0.2892  0.95526     C
C       0.6865   0.5472  0.29572     C
H       0.6888   0.4626   0.2259     H
O       0.7026  0.92526  0.52585     O
C       0.7039   0.2072  0.40814     C
H       0.7056     0.93   0.8058     H
C       0.7105   0.1792  0.81971     C
O       0.7213   0.0698  0.63572     O
C       0.7256   0.1986  0.87557     C
C       0.7341   0.2579  0.37465     C
C       0.7376   0.7023  0.10025     C
H       0.7397   0.6308   0.1547     H
C       0.7457   0.6099   0.4048     C
C        0.748   0.2319  0.97916     C
H       0.7482   0.5285   0.3105     H
H       0.7493   0.2104   0.4376     H
C       0.7502   0.7349  0.48144     C
H       0.7545    0.242   0.0136     H
C       0.7562   0.7745  0.84055     C
O       0.7602    0.694  0.85245     O
H       0.7639   0.7955   0.0566     H
H       0.7707   0.5531   0.3871     H
C       0.7723   0.1247  0.74149     C
C       0.7724   0.6849  0.14624     C
H       0.7773   0.7625   0.5152     H
C       0.7841   0.6478  0.45586     C
C       0.7858   0.7836  0.08755     C
C       0.7866   0.1423  0.90031     C
C       0.7884   0.1449  0.79314     C
C          0.8   0.1597  0.95181     C
H       0.8194   0.0918   0.8819     H
H       0.8252   0.1009   0.7241     H
O       0.8258   0.8504  0.85831     O
C       0.8394   0.3198  0.38589     C
H       0.8523   0.1352   0.8102     H
C       0.8556   0.7467  0.18048     C
C       0.8574    0.594  0.48235     C
O       0.8603   0.3758  0.35833     O
C       0.8667   0.8468  0.12138     C
C       0.8681   0.1008  0.97892     C
O       0.8736   0.6194  0.52893     O
H       0.8768   0.5749   0.2015     H
O       0.8863   0.1315  0.02565     O
O       0.8875  0.95189  0.06672     O
C       0.8978   0.7242  0.22828     C
O       0.8982   0.5237  0.45727     O
C       0.9008   0.8285  0.16715     C
C       0.9015   0.6261  0.23027     C
O       0.9018  0.02633  0.95444     O
O      0.90507  0.31624  0.42347     O
C       0.9195   0.9341   0.1085     C
H       0.9346   0.8653   0.2713     H
C       0.9363   0.7985  0.27159     C
C       0.9409    0.602  0.27369     C
H       0.9426   0.5352    0.274     H
O       0.9461   0.2811  0.59664     O
H        0.955   0.8716   0.1895     H
Eu     0.97118  0.54566  0.58474    Eu
C       0.9771   0.7755  0.31535     C
C       0.9784    0.678  0.31733     C
C       0.9826   0.3494  0.63524     C
Eu     0.98411  0.89518  0.91363    Eu
O       0.9908   0.4408  0.63641     O
O       0.9949    0.989  0.13915     O
H        0.996    0.173   0.6562     H
