data_I
_chemical_name_common  '/home/zhangsd/repos/MofS-CGCNN/ML/data/SSD/clean_cifs/HOZDIL_clean'
_cell_length_a 38.18610
_cell_length_b  5.00420
_cell_length_c  8.38100
_cell_angle_alpha 90.00000
_cell_angle_beta  102.53500
_cell_angle_gamma 90.00000
_space_group_name_H-M_alt      'P 1'


loop_
_space_group_symop_operation_xyz
  'x, y, z' 

loop_
_atom_site_label
_atom_site_fract_x
_atom_site_fract_y
_atom_site_fract_z
_atom_site_type_symbol
C      0.01535      0.5   0.8649     C
C      0.02171      0.5  0.15431     C
H       0.0258      0.5  0.77051     H
C      0.03686      0.5   0.0176     C
H      0.03687      0.5   0.2619     H
P      0.08386      0.5   0.0419     P
O      0.09503   0.2634   0.9537     O
O      0.09503   0.7366   0.9537     O
O      0.10136      0.5   0.2222     O
Al     0.10799      0.0   0.8458    Al
O      0.13416      0.5   0.5363     O
Al     0.13752      0.5   0.3547    Al
O      0.14222    0.251   0.7955     O
O      0.14222    0.749   0.7955     O
P      0.15289      0.5   0.7122     P
O      0.15639      0.0   0.0457     O
O      0.16559   0.2462   0.3136     O
O      0.16559   0.7538   0.3136     O
P      0.17615      0.0   0.2313     P
H      0.19911      0.5  0.48263     H
C      0.20145      0.5   0.7283     C
H      0.21504      0.5  0.97758     H
C      0.21511      0.5   0.5882     C
H      0.22242      0.0  0.00175     H
C      0.22452      0.5   0.8804     C
C      0.22477      0.0   0.2474     C
H      0.23837      0.0  0.49671     H
C      0.23843      0.0   0.1073     C
C      0.24784      0.0   0.3996     C
C      0.25216      0.5   0.6004     C
C      0.26157      0.5   0.8927     C
H      0.26163      0.5  0.50329     H
C      0.27523      0.5   0.7526     C
C      0.27548      0.0   0.1196     C
H      0.27758      0.5  0.99825     H
C      0.28489      0.0   0.4118     C
H      0.28496      0.0  0.02242     H
C      0.29855      0.0   0.2717     C
H      0.30089      0.0  0.51737     H
P      0.32385      0.5   0.7687     P
O      0.33441   0.2538   0.6864     O
O      0.33441   0.7462   0.6864     O
O      0.34361      0.5   0.9543     O
P      0.34711      0.0   0.2878     P
O      0.35778    0.249   0.2045     O
O      0.35778    0.751   0.2045     O
Al     0.36248      0.0   0.6453    Al
O      0.36584      0.0   0.4637     O
Al     0.39201      0.5   0.1542    Al
O      0.39864      0.0   0.7778     O
O      0.40497   0.2366   0.0463     O
O      0.40497   0.7634   0.0463     O
P      0.41614      0.0   0.9581     P
H      0.46313      0.0   0.7381     H
C      0.46314      0.0   0.9824     C
H       0.4742      0.0  0.22949     H
C      0.47829      0.0  0.84569     C
C      0.48465      0.0   0.1351     C
C      0.51535      0.0   0.8649     C
C      0.52171      0.0  0.15431     C
H       0.5258      0.0  0.77051     H
C      0.53686      0.0   0.0176     C
H      0.53687      0.0   0.2619     H
P      0.58386      0.0   0.0419     P
O      0.59503   0.2366   0.9537     O
O      0.59503   0.7634   0.9537     O
O      0.60136      0.0   0.2222     O
Al     0.60799      0.5   0.8458    Al
O      0.63416      0.0   0.5363     O
Al     0.63752      0.0   0.3547    Al
O      0.64222    0.249   0.7955     O
O      0.64222    0.751   0.7955     O
P      0.65289      0.0   0.7122     P
O      0.65639      0.5   0.0457     O
O      0.66559   0.2538   0.3136     O
O      0.66559   0.7462   0.3136     O
P      0.67615      0.5   0.2313     P
H      0.69911      0.0  0.48263     H
C      0.70145      0.0   0.7283     C
H      0.71504      0.0  0.97758     H
C      0.71511      0.0   0.5882     C
H      0.72242      0.5  0.00175     H
C      0.72452      0.0   0.8804     C
C      0.72477      0.5   0.2474     C
H      0.73837      0.5  0.49671     H
C      0.73843      0.5   0.1073     C
C      0.74784      0.5   0.3996     C
C      0.75216      0.0   0.6004     C
C      0.76157      0.0   0.8927     C
H      0.76163      0.0  0.50329     H
C      0.77523      0.0   0.7526     C
C      0.77548      0.5   0.1196     C
H      0.77758      0.0  0.99825     H
C      0.78489      0.5   0.4118     C
H      0.78496      0.5  0.02242     H
C      0.79855      0.5   0.2717     C
H      0.80089      0.5  0.51737     H
P      0.82385      0.0   0.7687     P
O      0.83441   0.2462   0.6864     O
O      0.83441   0.7538   0.6864     O
O      0.84361      0.0   0.9543     O
P      0.84711      0.5   0.2878     P
O      0.85778    0.251   0.2045     O
O      0.85778    0.749   0.2045     O
Al     0.86248      0.5   0.6453    Al
O      0.86584      0.5   0.4637     O
Al     0.89201      0.0   0.1542    Al
O      0.89864      0.5   0.7778     O
O      0.90497   0.2634   0.0463     O
O      0.90497   0.7366   0.0463     O
P      0.91614      0.5   0.9581     P
H      0.96313      0.5   0.7381     H
C      0.96314      0.5   0.9824     C
H       0.9742      0.5  0.22949     H
C      0.97829      0.5  0.84569     C
C      0.98465      0.5   0.1351     C
