data_I
_chemical_name_common  '/home/zhangsd/repos/MofS-CGCNN/ML/data/SSD/clean_cifs/HUSQES_clean'
_cell_length_a 12.42090
_cell_length_b 12.44710
_cell_length_c 15.11550
_cell_angle_alpha 90.00000
_cell_angle_beta  90.00000
_cell_angle_gamma 90.00000
_space_group_name_H-M_alt      'P 1'


loop_
_space_group_symop_operation_xyz
  'x, y, z' 

loop_
_atom_site_label
_atom_site_fract_x
_atom_site_fract_y
_atom_site_fract_z
_atom_site_type_symbol
O          0.0      0.0      0.0     O
O          0.0      0.5      0.0     O
C       0.0145     0.25  0.30823     C
H       0.0324   0.0844   0.3224     H
H       0.0324   0.4156   0.3224     H
C      0.03604   0.1497  0.44985     C
C      0.03604   0.3503  0.44985     C
N       0.0395     0.25  0.21165     N
H       0.0467   0.0913    0.177     H
H       0.0467   0.4087    0.177     H
C      0.05091  0.16323  0.15825     C
C      0.05091  0.33677  0.15825     C
C      0.06282   0.1487  0.35027     C
C      0.06282   0.3513  0.35027     C
H        0.067   0.0849    0.478     H
H        0.067   0.4151    0.478     H
N      0.06862  0.19426  0.07644     N
N      0.06862  0.30574  0.07644     N
H       0.0697     0.25   0.5562     H
N      0.08054  0.69467  0.06748     N
N      0.08054  0.80533  0.06748     N
C       0.0848     0.25   0.4926     C
Mo     0.08607  0.10284  0.93931    Mo
Mo     0.08607  0.39716  0.93931    Mo
C      0.08617   0.6492  0.53762     C
C      0.08617   0.8508  0.53762     C
H       0.1037   0.6485   0.4744     H
H       0.1037   0.8515   0.4744     H
C       0.1079     0.75   0.6805     C
H       0.1171   0.5847   0.5648     H
H       0.1171   0.9153   0.5648     H
O      0.12276     0.25  0.91198     O
C       0.1335     0.75   0.5812     C
H       0.1386    0.687   0.7083     H
H       0.1386    0.813   0.7083     H
H        0.141   0.1478   0.3417     H
H        0.141   0.3522   0.3417     H
H        0.163     0.25   0.4844     H
C      0.18136  0.66352  0.07004     C
C      0.18136  0.83648  0.07004     C
H       0.2045   0.5916   0.0706     H
H       0.2045   0.9084   0.0706     H
N        0.247     0.75   0.0717     N
N        0.253     0.75   0.5717     N
H       0.2955   0.5916   0.5706     H
H       0.2955   0.9084   0.5706     H
C      0.31864  0.66352  0.57004     C
C      0.31864  0.83648  0.57004     C
H        0.337     0.25   0.9844     H
H        0.359   0.1478   0.8417     H
H        0.359   0.3522   0.8417     H
H       0.3614    0.687   0.2083     H
H       0.3614    0.813   0.2083     H
C       0.3665     0.75   0.0812     C
O      0.37724     0.25  0.41198     O
H       0.3829   0.5847   0.0648     H
H       0.3829   0.9153   0.0648     H
C       0.3921     0.75   0.1805     C
H       0.3963   0.6485   0.9744     H
H       0.3963   0.8515   0.9744     H
C      0.41383   0.6492  0.03762     C
C      0.41383   0.8508  0.03762     C
Mo     0.41393  0.10284  0.43931    Mo
Mo     0.41393  0.39716  0.43931    Mo
C       0.4152     0.25   0.9926     C
N      0.41946  0.69467  0.56748     N
N      0.41946  0.80533  0.56748     N
H       0.4303     0.25   0.0562     H
N      0.43138  0.19426  0.57644     N
N      0.43138  0.30574  0.57644     N
H        0.433   0.0849    0.978     H
H        0.433   0.4151    0.978     H
C      0.43718   0.1487  0.85027     C
C      0.43718   0.3513  0.85027     C
C      0.44909  0.16323  0.65825     C
C      0.44909  0.33677  0.65825     C
H       0.4533   0.0913    0.677     H
H       0.4533   0.4087    0.677     H
N       0.4605     0.25  0.71165     N
C      0.46396   0.1497  0.94985     C
C      0.46396   0.3503  0.94985     C
H       0.4676   0.0844   0.8224     H
H       0.4676   0.4156   0.8224     H
C       0.4855     0.25  0.80823     C
O          0.5      0.0      0.5     O
O          0.5      0.5      0.5     O
C       0.5145     0.75  0.19177     C
H       0.5324   0.5844   0.1776     H
H       0.5324   0.9156   0.1776     H
C      0.53604   0.6497  0.05015     C
C      0.53604   0.8503  0.05015     C
N       0.5395     0.75  0.28835     N
H       0.5467   0.5913    0.323     H
H       0.5467   0.9087    0.323     H
C      0.55091  0.66323  0.34175     C
C      0.55091  0.83677  0.34175     C
C      0.56282   0.6487  0.14973     C
C      0.56282   0.8513  0.14973     C
H        0.567   0.5849    0.022     H
H        0.567   0.9151    0.022     H
N      0.56862  0.69426  0.42356     N
N      0.56862  0.80574  0.42356     N
H       0.5697     0.75   0.9438     H
N      0.58054  0.19467  0.43252     N
N      0.58054  0.30533  0.43252     N
C       0.5848     0.75   0.0074     C
Mo     0.58607  0.60284  0.56069    Mo
Mo     0.58607  0.89716  0.56069    Mo
C      0.58617   0.1492  0.96238     C
C      0.58617   0.3508  0.96238     C
H       0.6037   0.1485   0.0256     H
H       0.6037   0.3515   0.0256     H
C       0.6079     0.25   0.8195     C
H       0.6171   0.0847   0.9352     H
H       0.6171   0.4153   0.9352     H
O      0.62276     0.75  0.58802     O
C       0.6335     0.25   0.9188     C
H       0.6386    0.187   0.7917     H
H       0.6386    0.313   0.7917     H
H        0.641   0.6478   0.1583     H
H        0.641   0.8522   0.1583     H
H        0.663     0.75   0.0156     H
C      0.68136  0.16352  0.42996     C
C      0.68136  0.33648  0.42996     C
H       0.7045   0.0916   0.4294     H
H       0.7045   0.4084   0.4294     H
N        0.747     0.25   0.4283     N
N        0.753     0.25   0.9283     N
H       0.7955   0.0916   0.9294     H
H       0.7955   0.4084   0.9294     H
C      0.81864  0.16352  0.92996     C
C      0.81864  0.33648  0.92996     C
H        0.837     0.75   0.5156     H
H        0.859   0.6478   0.6583     H
H        0.859   0.8522   0.6583     H
H       0.8614    0.187   0.2917     H
H       0.8614    0.313   0.2917     H
C       0.8665     0.25   0.4188     C
O      0.87724     0.75  0.08802     O
H       0.8829   0.0847   0.4352     H
H       0.8829   0.4153   0.4352     H
C       0.8921     0.25   0.3195     C
H       0.8963   0.1485   0.5256     H
H       0.8963   0.3515   0.5256     H
C      0.91383   0.1492  0.46238     C
C      0.91383   0.3508  0.46238     C
Mo     0.91393  0.60284  0.06069    Mo
Mo     0.91393  0.89716  0.06069    Mo
C       0.9152     0.75   0.5074     C
N      0.91946  0.19467  0.93252     N
N      0.91946  0.30533  0.93252     N
H       0.9303     0.75   0.4438     H
N      0.93138  0.69426  0.92356     N
N      0.93138  0.80574  0.92356     N
H        0.933   0.5849    0.522     H
H        0.933   0.9151    0.522     H
C      0.93718   0.6487  0.64973     C
C      0.93718   0.8513  0.64973     C
C      0.94909  0.66323  0.84175     C
C      0.94909  0.83677  0.84175     C
H       0.9533   0.5913    0.823     H
H       0.9533   0.9087    0.823     H
N       0.9605     0.75  0.78835     N
C      0.96396   0.6497  0.55015     C
C      0.96396   0.8503  0.55015     C
H       0.9676   0.5844   0.6776     H
H       0.9676   0.9156   0.6776     H
C       0.9855     0.75  0.69177     C
