data_I
_chemical_name_common  '/home/zhangsd/repos/MofS-CGCNN/ML/data/SSD/clean_cifs/HUWLUI_clean'
_cell_length_a 11.79700
_cell_length_b 12.88900
_cell_length_c 14.03700
_cell_angle_alpha 66.06500
_cell_angle_beta  78.73100
_cell_angle_gamma 69.92400
_space_group_name_H-M_alt      'P 1'


loop_
_space_group_symop_operation_xyz
  'x, y, z' 

loop_
_atom_site_label
_atom_site_fract_x
_atom_site_fract_y
_atom_site_fract_z
_atom_site_type_symbol
C        0.038   0.3538   0.2751     C
C       0.0508   0.5093   0.6049     C
H       0.0667   0.3082   0.2336     H
C        0.072   0.4621   0.3625     C
H       0.0803   0.4612   0.5657     H
C        0.084   0.6135    0.695     C
C        0.117   0.3893   0.3073     C
H       0.1231    0.493   0.3787     H
C       0.1275   0.5513   0.6301     C
H       0.1374   0.6343   0.7197     H
H       0.1826   0.1584   0.4268     H
C       0.2569   0.5269    0.588     C
C       0.2622   0.1207   0.4103     C
H       0.2636   0.9552   0.5105     H
P       0.2766   0.3443   0.2785     P
O       0.2825    0.487   0.5174     O
H       0.3008   0.5543   0.1196     H
C       0.3103   0.3868   0.1408     C
C       0.3105   0.9993   0.4602     C
C       0.3186   0.5017   0.0853     C
O       0.3263   0.5569   0.6221     O
H       0.3285   0.2318   0.1265     H
C       0.3329   0.1859   0.3359     C
O       0.3342   0.4019   0.3214     O
C       0.3358   0.3079   0.0901     C
C       0.3527    0.538   0.9804     C
H       0.3549   0.6157   0.9432     H
C       0.3728   0.3439   0.9837     C
C        0.384   0.4575   0.9301     C
H       0.3898   0.2918   0.9489     H
O        0.408   0.7582   0.5575     O
O       0.4167    0.245   0.5317     O
H       0.4209    0.029   0.6569     H
C       0.4288   0.9442    0.435     C
O       0.4295   0.5977   0.7658     O
C       0.4331    0.493   0.8177     C
C       0.4534   0.1296   0.3123     C
Th     0.46025  0.44961  0.39887    Th
O       0.4692   0.6092   0.4338     O
C       0.4783   0.8123   0.4897     C
O       0.4847   0.4112   0.7813     O
H       0.4984   0.8261   0.7358     H
C          0.5   0.0092   0.3604     C
C          0.5   0.9908   0.6396     C
H       0.5016   0.1739   0.2642     H
O       0.5153   0.5888   0.2187     O
C       0.5217   0.1877   0.5103     C
O       0.5308   0.3908   0.5662     O
Th     0.53975  0.55039  0.60113    Th
C       0.5466   0.8704   0.6877     C
C       0.5669    0.507   0.1823     C
O       0.5705   0.4023   0.2342     O
C       0.5712   0.0558    0.565     C
H       0.5791    0.971   0.3431     H
O       0.5833    0.755   0.4683     O
O        0.592   0.2418   0.4425     O
H       0.6102   0.7082   0.0511     H
C        0.616   0.5425   0.0699     C
C       0.6272   0.6561   0.0163     C
H       0.6451   0.3843   0.0568     H
C       0.6473    0.462   0.0196     C
C       0.6642   0.6921   0.9099     C
O       0.6658   0.5981   0.6786     O
C       0.6671   0.8141   0.6641     C
H       0.6715   0.7682   0.8735     H
O       0.6737   0.4431   0.3779     O
C       0.6814   0.4983   0.9147     C
C       0.6895   0.0007   0.5398     C
C       0.6897   0.6132   0.8592     C
H       0.6992   0.4457   0.8804     H
O       0.7175    0.513   0.4826     O
P       0.7234   0.6557   0.7215     P
H       0.7364   0.0448   0.4895     H
C       0.7378   0.8793   0.5897     C
C       0.7431   0.4731    0.412     C
H       0.8174   0.8416   0.5732     H
H       0.8626   0.3657   0.2803     H
C       0.8725   0.4487   0.3699     C
H       0.8769    0.507   0.6213     H
C        0.883   0.6107   0.6927     C
C        0.916   0.3865    0.305     C
H       0.9197   0.5388   0.4343     H
C        0.928   0.5379   0.6375     C
H       0.9333   0.6918   0.7664     H
C       0.9492   0.4907   0.3951     C
C        0.962   0.6462   0.7249     C
