data_I
_chemical_name_common  '/home/zhangsd/repos/MofS-CGCNN/ML/data/SSD/clean_cifs/HUYXOP_clean'
_cell_length_a 17.98000
_cell_length_b 11.71100
_cell_length_c 19.92100
_cell_angle_alpha 90.00000
_cell_angle_beta  110.97000
_cell_angle_gamma 90.00000
_space_group_name_H-M_alt      'P 1'


loop_
_space_group_symop_operation_xyz
  'x, y, z' 

loop_
_atom_site_label
_atom_site_fract_x
_atom_site_fract_y
_atom_site_fract_z
_atom_site_type_symbol
H       0.0011   0.5292   0.3553     H
H       0.0011   0.9708   0.8553     H
H       0.0105   0.5832   0.1614     H
H       0.0105   0.9168   0.6614     H
H        0.011   0.6663   0.8332     H
H        0.011   0.8337   0.3332     H
H       0.0171   0.7465   0.9994     H
H       0.0171   0.7535   0.4994     H
C       0.0274   0.2193   0.2487     C
C       0.0274   0.2807   0.7487     C
C       0.0303   0.1062    0.921     C
C       0.0303   0.3938    0.421     C
C       0.0323    0.212   0.6921     C
C       0.0323    0.288   0.1921     C
C       0.0416   0.0233   0.8764     C
C       0.0416   0.4767   0.3764     C
C       0.0451   0.6156   0.5634     C
C       0.0451   0.8844   0.0634     C
C       0.0461   0.7138   0.2319     C
C       0.0461   0.7862   0.7319     C
C       0.0533   0.6315   0.1837     C
C       0.0533   0.8685   0.6837     C
C       0.0574   0.7006   0.5199     C
C       0.0574   0.7994   0.0199     C
H       0.0875   0.2389   0.9832     H
H       0.0875   0.2611   0.4832     H
C       0.0928   0.1828   0.9522     C
C       0.0928   0.3172   0.4522     C
H       0.0941   0.1067   0.3207     H
H       0.0941   0.3933   0.8207     H
C       0.0949   0.1544   0.2837     C
C       0.0949   0.3456   0.7837     C
C       0.0993   0.2102   0.6729     C
C       0.0993   0.2898   0.1729     C
H       0.0996   0.1652   0.6345     H
H       0.0996   0.3348   0.1345     H
H       0.1036   0.0202   0.1216     H
H       0.1036   0.4798   0.6216     H
C       0.1084    0.538   0.5917     C
C       0.1084    0.962   0.0917     C
H       0.1086   0.6585   0.7947     H
H       0.1086   0.8415   0.2947     H
C       0.1118   0.7151   0.7631     C
C       0.1118   0.7849   0.2631     C
C       0.1128   0.0155   0.8617     C
C       0.1128   0.4845   0.3617     C
H       0.1184   0.5403   0.3306     H
H       0.1184   0.9597   0.8306     H
C       0.1223   0.6193   0.1679     C
C       0.1223   0.8807   0.6679     C
H       0.1248   0.5641   0.1352     H
H       0.1248   0.9359   0.6352     H
C       0.1268   0.7102   0.5056     C
C       0.1268   0.7898   0.0056     C
H       0.1329   0.7301   0.9773     H
H       0.1329   0.7699   0.4773     H
C       0.1631   0.1564    0.267     C
C       0.1631   0.3436    0.767     C
C       0.1638   0.1766   0.9373     C
C       0.1638   0.3234   0.4373     C
C       0.1664   0.2242   0.2109     C
C       0.1664   0.2758   0.7109     C
C       0.1735   0.0913   0.8937     C
C       0.1735   0.4087   0.3937     C
C       0.1779   0.5453   0.5767     C
C       0.1779   0.9547   0.0767     C
C       0.1819   0.7255   0.7487     C
C       0.1819   0.7745   0.2487     C
C       0.1867   0.6324   0.5329     C
C       0.1867   0.8676   0.0329     C
C       0.1875   0.6896   0.2011     C
C       0.1875   0.8104   0.7011     C
H       0.2039   0.2301    0.957     H
H       0.2039   0.2699    0.457     H
H       0.2069   0.1123   0.2933     H
H       0.2069   0.3877   0.7933     H
H       0.2072   0.1775    0.598     H
H       0.2072   0.3225    0.098     H
H       0.2152   0.0179   0.7757     H
H       0.2152   0.4821   0.2757     H
H       0.2183   0.0079   0.0959     H
H       0.2183   0.4921   0.5959     H
H       0.2211   0.7325   0.4182     H
H       0.2211   0.7675   0.9182     H
H       0.2245   0.6766   0.7705     H
H       0.2245   0.8234   0.2705     H
H       0.2288   0.5722   0.0942     H
H       0.2288   0.9278   0.5942     H
N       0.2365   0.2295   0.1929     N
N       0.2365   0.2705   0.6929     N
N       0.2465   0.0847   0.8787     N
C       0.2465   0.2153    0.635     C
C       0.2465   0.2847    0.135     C
N       0.2465   0.4153   0.3787     N
C       0.2554    0.044   0.8169     C
C       0.2554    0.456   0.3169     C
N       0.2584   0.6422   0.5143     N
N       0.2584   0.8578   0.0143     N
N       0.2602   0.6728    0.187     N
N       0.2602   0.8272    0.687     N
C        0.263   0.6978   0.4545     C
C        0.263   0.8022   0.9545     C
C        0.269   0.6078   0.1314     C
C        0.269   0.8922   0.6314     C
C       0.3103   0.1873   0.2333     C
C       0.3103   0.3127   0.7333     C
C       0.3206   0.1112   0.9244     C
C       0.3206   0.3888   0.4244     C
H       0.3212   0.1465   0.2758     H
H       0.3212   0.3535   0.7758     H
C       0.3243   0.2266   0.6423     C
C       0.3243   0.2734   0.1423     C
H       0.3316   0.1399   0.9705     H
H       0.3316   0.3601   0.4705     H
C       0.3321   0.6048   0.5508     C
C       0.3321   0.8952   0.0508     C
C       0.3349   0.7058   0.2295     C
C       0.3349   0.7942   0.7295     C
C       0.3354   0.0497   0.8285     C
C       0.3354   0.4503   0.3285     C
C       0.3395   0.6923   0.4588     C
C       0.3395   0.8077   0.9588     C
H       0.3457   0.5644   0.5937     H
H       0.3457   0.9356   0.0937     H
H        0.346   0.7496   0.7705     H
H        0.346   0.7504   0.2705     H
H        0.347   0.1976   0.6107     H
H        0.347   0.3024   0.1107     H
C       0.3473   0.6072   0.1425     C
C       0.3473   0.8928   0.6425     C
H       0.3589   0.0286   0.7956     H
H       0.3589   0.4714   0.2956     H
H       0.3596   0.7243   0.4261     H
H       0.3596   0.7757   0.9261     H
N       0.3643   0.2122   0.2039     N
N       0.3643   0.2878   0.7039     N
H       0.3698   0.5721   0.1125     H
H       0.3698   0.9279   0.6125     H
N       0.3751   0.0917   0.8963     N
N       0.3751   0.4083   0.3963     N
N       0.3833   0.6311   0.5198     N
N       0.3833   0.8689   0.0198     N
N       0.3902   0.6663   0.2052     N
N       0.3902   0.8337   0.7052     N
O       0.4681   0.0208   0.2857     O
O       0.4681   0.4792   0.7857     O
H       0.4792   0.0739   0.7642     H
H       0.4792   0.4261   0.2642     H
H       0.4802    0.109   0.3914     H
H       0.4802    0.391   0.8914     H
C       0.4836   0.1872   0.4003     C
O       0.4836   0.2192   0.4572     O
O       0.4836   0.2808   0.9572     O
C       0.4836   0.3128   0.9003     C
O       0.4859   0.0962   0.1569     O
O       0.4859   0.4038   0.6569     O
Ni     0.48692    0.184  0.24903    Ni
Ni     0.48692    0.316  0.74903    Ni
O       0.4884    0.243   0.8481     O
O       0.4884    0.257   0.3481     O
C       0.4906   0.1303   0.0999     C
C       0.4906   0.3697   0.5999     C
O       0.4916   0.6667   0.7941     O
O       0.4916   0.8333   0.2941     O
O       0.4922   0.0689   0.0488     O
O       0.4922   0.4311   0.5488     O
H       0.4933   0.2089   0.0943     H
H       0.4933   0.2911   0.5943     H
C        0.496   0.5771   0.7694     C
C        0.496   0.9229   0.2694     C
Ni     0.49615  0.10937  0.94726    Ni
Ni     0.49615  0.39063  0.44726    Ni
Ni     0.50385  0.60937  0.55274    Ni
Ni     0.50385  0.89063  0.05274    Ni
C        0.504   0.0771   0.7306     C
C        0.504   0.4229   0.2306     C
H       0.5067   0.7089   0.4057     H
H       0.5067   0.7911   0.9057     H
O       0.5078   0.5689   0.4512     O
O       0.5078   0.9311   0.9512     O
O       0.5084   0.1667   0.7059     O
O       0.5084   0.3333   0.2059     O
C       0.5094   0.6303   0.4001     C
C       0.5094   0.8697   0.9001     C
O       0.5116    0.743   0.6519     O
O       0.5116    0.757   0.1519     O
Ni     0.51308    0.684  0.25097    Ni
Ni     0.51308    0.816  0.75097    Ni
O       0.5141   0.5962   0.3431     O
O       0.5141   0.9038   0.8431     O
C       0.5164   0.6872   0.0997     C
O       0.5164   0.7192   0.0428     O
O       0.5164   0.7808   0.5428     O
C       0.5164   0.8128   0.5997     C
H       0.5198    0.609   0.1086     H
H       0.5198    0.891   0.6086     H
H       0.5208   0.5739   0.7358     H
H       0.5208   0.9261   0.2358     H
O       0.5319   0.5208   0.2143     O
O       0.5319   0.9792   0.7143     O
N       0.6098   0.1663   0.2948     N
N       0.6098   0.3337   0.7948     N
N       0.6167   0.1311   0.9802     N
N       0.6167   0.3689   0.4802     N
N       0.6249   0.5917   0.6037     N
N       0.6249   0.9083   0.1037     N
H       0.6302   0.0721   0.3875     H
H       0.6302   0.4279   0.8875     H
N       0.6357   0.7122   0.2961     N
N       0.6357   0.7878   0.7961     N
H       0.6404   0.2243   0.0739     H
H       0.6404   0.2757   0.5739     H
H       0.6411   0.5286   0.7044     H
H       0.6411   0.9714   0.2044     H
C       0.6527   0.1072   0.3575     C
C       0.6527   0.3928   0.8575     C
H        0.653   0.6976   0.8893     H
H        0.653   0.8024   0.3893     H
H        0.654   0.2496   0.7295     H
H        0.654   0.2504   0.2295     H
H       0.6543   0.0644   0.9063     H
H       0.6543   0.4356   0.4063     H
C       0.6605   0.1923   0.0412     C
C       0.6605   0.3077   0.5412     C
C       0.6646   0.5497   0.6715     C
C       0.6646   0.9503   0.1715     C
C       0.6651   0.2058   0.2705     C
C       0.6651   0.2942   0.7705     C
C       0.6679   0.1048   0.9492     C
C       0.6679   0.3952   0.4492     C
H       0.6684   0.6399   0.5295     H
H       0.6684   0.8601   0.0295     H
C       0.6757   0.7266   0.8577     C
C       0.6757   0.7734   0.3577     C
H       0.6788   0.6465   0.2242     H
H       0.6788   0.8535   0.7242     H
C       0.6794   0.6112   0.5756     C
C       0.6794   0.8888   0.0756     C
C       0.6897   0.6873   0.2667     C
C       0.6897   0.8127   0.7667     C
C        0.731   0.1078   0.3686     C
C        0.731   0.3922   0.8686     C
C        0.737   0.1978   0.0455     C
C        0.737   0.3022   0.5455     C
N       0.7398   0.1728    0.313     N
N       0.7398   0.3272    0.813     N
N       0.7416   0.1422   0.9857     N
N       0.7416   0.3578   0.4857     N
C       0.7446    0.544   0.6831     C
C       0.7446    0.956   0.1831     C
N       0.7535   0.5847   0.6213     N
C       0.7535   0.7153    0.865     C
C       0.7535   0.7847    0.365     C
N       0.7535   0.9153   0.1213     N
N       0.7635   0.7295   0.3071     N
N       0.7635   0.7705   0.8071     N
H       0.7712   0.0722   0.4058     H
H       0.7712   0.4278   0.9058     H
H       0.7755   0.1766   0.7295     H
H       0.7755   0.3234   0.2295     H
H       0.7789   0.2325   0.0818     H
H       0.7789   0.2675   0.5818     H
H       0.7817   0.5079   0.4041     H
H       0.7817   0.9921   0.9041     H
H       0.7848   0.5179   0.7243     H
H       0.7848   0.9821   0.2243     H
H       0.7928   0.6775    0.902     H
H       0.7928   0.8225    0.402     H
H       0.7931   0.6123   0.2067     H
H       0.7931   0.8877   0.7067     H
H       0.7961   0.7301    0.543     H
H       0.7961   0.7699    0.043     H
C       0.8125   0.1896   0.2989     C
C       0.8125   0.3104   0.7989     C
C       0.8133   0.1324   0.9671     C
C       0.8133   0.3676   0.4671     C
C       0.8181   0.2255   0.7513     C
C       0.8181   0.2745   0.2513     C
C       0.8221   0.0453   0.9233     C
C       0.8221   0.4547   0.4233     C
C       0.8265   0.5913   0.6063     C
C       0.8265   0.9087   0.1063     C
C       0.8336   0.7242   0.2891     C
C       0.8336   0.7758   0.7891     C
C       0.8362   0.6766   0.5627     C
C       0.8362   0.8234   0.0627     C
C       0.8369   0.6564    0.233     C
C       0.8369   0.8436    0.733     C
H       0.8671   0.2301   0.5227     H
H       0.8671   0.2699   0.0227     H
C       0.8732   0.2102   0.9944     C
C       0.8732   0.2898   0.4944     C
H       0.8752   0.0641   0.3648     H
H       0.8752   0.4359   0.8648     H
C       0.8777   0.1193   0.3321     C
C       0.8777   0.3807   0.8321     C
H       0.8816   0.0403   0.1694     H
H       0.8816   0.4597   0.6694     H
C       0.8872   0.5155   0.6383     C
C       0.8872   0.9845   0.1383     C
C       0.8882   0.2151   0.7369     C
C       0.8882   0.2849   0.2369     C
H       0.8914   0.1585   0.7053     H
H       0.8914   0.3415   0.2053     H
C       0.8916    0.038   0.9083     C
C       0.8916    0.462   0.4083     C
H       0.8964   0.5202   0.3784     H
H       0.8964   0.9798   0.8784     H
H       0.9004   0.6652   0.8655     H
H       0.9004   0.8348   0.3655     H
C       0.9007   0.7102   0.8271     C
C       0.9007   0.7898   0.3271     C
C       0.9051   0.6544   0.2163     C
C       0.9051   0.8456   0.7163     C
H       0.9059   0.6067   0.1793     H
H       0.9059   0.8933   0.6793     H
C       0.9072   0.6828   0.5478     C
C       0.9072   0.8172   0.0478     C
H       0.9125   0.7389   0.5168     H
H       0.9125   0.7611   0.0168     H
C       0.9426   0.2006   0.9801     C
C       0.9426   0.2994   0.4801     C
C       0.9467   0.1315   0.3163     C
C       0.9467   0.3685   0.8163     C
C       0.9539   0.2138   0.2681     C
C       0.9539   0.2862   0.7681     C
C       0.9549   0.1156   0.9366     C
C       0.9549   0.3844   0.4366     C
C       0.9584   0.5233   0.6236     C
C       0.9584   0.9767   0.1236     C
C       0.9677    0.712   0.8079     C
C       0.9677    0.788   0.3079     C
C       0.9697   0.6062    0.579     C
C       0.9697   0.8938    0.079     C
C       0.9726   0.7193   0.2513     C
C       0.9726   0.7807   0.7513     C
H       0.9829   0.2465   0.5006     H
H       0.9829   0.2535   0.0006     H
H        0.989   0.1663   0.6668     H
H        0.989   0.3337   0.1668     H
H       0.9895   0.0832   0.3386     H
H       0.9895   0.4168   0.8386     H
H       0.9989   0.0292   0.1447     H
H       0.9989   0.4708   0.6447     H
