data_I
_chemical_name_common  '/home/zhangsd/repos/MofS-CGCNN/ML/data/SSD/clean_cifs/HUZXUX_clean'
_cell_length_a 39.04900
_cell_length_b 27.57300
_cell_length_c 27.21800
_cell_angle_alpha 90.00000
_cell_angle_beta  133.88300
_cell_angle_gamma 90.00000
_space_group_name_H-M_alt      'P 1'


loop_
_space_group_symop_operation_xyz
  'x, y, z' 

loop_
_atom_site_label
_atom_site_fract_x
_atom_site_fract_y
_atom_site_fract_z
_atom_site_type_symbol
H       0.0166   0.0426    0.869     H
H       0.0166   0.9574    0.369     H
O        0.017   0.0449   0.5993     O
O        0.017   0.9551   0.0993     O
H       0.0203   0.0504   0.5082     H
H       0.0203   0.9496   0.0082     H
H       0.0226   0.1202   0.1744     H
H       0.0226   0.8798   0.6744     H
H       0.0232   0.1159   0.4567     H
H       0.0232   0.8841   0.9567     H
N      0.02402  0.25761   0.1684     N
N      0.02402  0.74239   0.6684     N
C       0.0251   0.0406   0.9119     C
C       0.0251   0.9594   0.4119     C
H       0.0258   0.1705   0.2442     H
H       0.0258   0.8295   0.7442     H
H       0.0302   0.3575   0.7438     H
H       0.0302   0.6425   0.2438     H
H       0.0317   0.2971   0.2356     H
H       0.0317   0.7029   0.7356     H
H       0.0333   0.0302   0.1736     H
H       0.0333   0.9698   0.6736     H
H       0.0335   0.2187   0.1191     H
H       0.0335   0.7813   0.6191     H
H       0.0362   0.3889    0.309     H
H       0.0362   0.6111    0.809     H
H       0.0369    0.337   0.5232     H
H       0.0369    0.663   0.0232     H
H       0.0382   0.4517    0.255     H
H       0.0382   0.5483    0.755     H
H       0.0385   0.3927   0.5892     H
H       0.0385   0.6073   0.0892     H
H       0.0386   0.1176   0.0059     H
H       0.0386   0.8824   0.5059     H
H       0.0409   0.0098   0.9334     H
H       0.0409   0.9902   0.4334     H
Zn     0.04813  0.25265  0.40171    Zn
Zn     0.04813  0.74735  0.90171    Zn
C      0.04859   0.2813   0.2278     C
C      0.04859   0.7187   0.7278     C
C       0.0492   0.0652   0.5296     C
C       0.0492   0.9348   0.0296     C
C       0.0495   0.2353   0.1598     C
C       0.0495   0.7647   0.6598     C
C       0.0511   0.1051   0.4991     C
C       0.0511   0.8949   0.9991     C
C       0.0515  0.12513    0.219     C
C       0.0515  0.87487    0.719     C
C       0.0518    0.008   0.6296     C
C       0.0518    0.992   0.1296     C
H       0.0528   0.1722   0.9421     H
H       0.0528   0.8278   0.4421     H
C      0.05349  0.15604   0.2602     C
C      0.05349  0.84396   0.7602     C
O       0.0541   0.3911   0.7024     O
O       0.0541   0.6089   0.2024     O
C       0.0545   0.0293   0.1684     C
C       0.0545   0.9707   0.6684     C
O      0.05561  0.18815  0.44592     O
O      0.05561  0.81185  0.94592     O
C       0.0563    0.081   0.9565     C
C       0.0563    0.919   0.4565     C
C       0.0568   0.1723   0.9815     C
C       0.0568   0.8277   0.4815     C
H       0.0571   0.0997   0.9271     H
H       0.0571   0.9003   0.4271     H
C       0.0603   0.3689   0.7608     C
C       0.0603   0.6311   0.2608     C
O      0.06052  0.21577  0.35016     O
O      0.06052  0.78423  0.85016     O
C        0.062   0.1233   0.0036     C
C        0.062   0.8767   0.5036     C
O      0.06403  0.31527  0.38081     O
O      0.06403  0.68473  0.88081     O
C      0.06496  0.39811   0.3235     C
C      0.06496  0.60189   0.8235     C
O      0.06575  0.28742   0.4831     O
O      0.06575  0.71258   0.9831     O
C        0.066   0.3485   0.5634     C
C        0.066   0.6515   0.0634     C
C       0.0663   0.4361   0.2915     C
C       0.0663   0.5639   0.7915     C
C       0.0669   0.3824   0.6037     C
C       0.0669   0.6176   0.1037     C
H       0.0684   0.4643   0.7693     H
H       0.0684   0.5357   0.2693     H
H       0.0738   0.3924   0.7968     H
H       0.0738   0.6076   0.2968     H
C       0.0831   0.4326   0.7217     C
C       0.0831   0.5674   0.2217     C
H       0.0855   0.1903   0.0176     H
H       0.0855   0.8097   0.5176     H
C       0.0856   0.4682   0.7575     C
C       0.0856   0.5318   0.2575     C
H       0.0871   0.0652   0.9886     H
H       0.0871   0.9348   0.4886     H
C       0.0902   0.0088   0.6309     C
C       0.0902   0.9912   0.1309     C
C        0.091   0.0655   0.1993     C
C        0.091   0.9345   0.6993     C
C       0.0911   0.0483   0.5921     C
C       0.0911   0.9517   0.0921     C
C      0.09245  0.12838   0.5297     C
C      0.09245  0.87162   0.0297     C
C       0.0925   0.1004   0.2429     C
C       0.0925   0.8996   0.7429     C
H       0.0931   0.1201   0.0495     H
H       0.0931   0.8799   0.5495     H
C      0.09321  0.17158   0.4964     C
C      0.09321  0.82842   0.9964     C
C      0.09674  0.16619   0.3263     C
C      0.09674  0.83381   0.8263     C
C      0.09713   0.2833   0.2774     C
C      0.09713   0.7167   0.7774     C
C      0.09822   0.2351   0.2074     C
C      0.09822   0.7649   0.7074     C
C       0.0987  0.19864   0.3722     C
C       0.0987  0.80136   0.8722     C
C      0.10429  0.32876   0.4066     C
C      0.10429  0.67124   0.9066     C
C      0.10565  0.30085   0.5375     C
C      0.10565  0.69915   0.0375     C
C      0.10595  0.33299   0.5821     C
C      0.10595  0.66701   0.0821     C
C      0.10599    0.374   0.3766     C
C      0.10599    0.626   0.8766     C
C       0.1077   0.4376   0.7011     C
C       0.1077   0.5624   0.2011     C
C        0.108   0.0316   0.1397     C
C        0.108  0.45095   0.3126     C
C        0.108  0.54905   0.8126     C
C        0.108   0.9684   0.6397     C
C       0.1082   0.3999   0.6624     C
C       0.1082   0.6001   0.1624     C
C        0.111   0.4908   0.2777     C
C        0.111   0.5092   0.7777     C
C       0.1123   0.0692   0.1823     C
C       0.1123   0.9308   0.6823     C
H       0.1126   0.3009   0.3172     H
H       0.1126   0.6991   0.8172     H
H       0.1144   0.2188   0.1987     H
H       0.1144   0.7812   0.6987     H
H       0.1189   0.0382   0.1189     H
H       0.1189   0.9618   0.6189     H
C      0.12289  0.25897   0.2676     C
C      0.12289  0.74103   0.7676     C
C       0.1321   0.0725   0.6235     C
C       0.1321   0.9275   0.1235     C
C       0.1325   0.1113   0.5909     C
C       0.1325   0.8887   0.0909     C
C       0.1335   0.4786   0.7199     C
C       0.1335   0.5214   0.2199     C
O      0.13356   0.1892  0.52718     O
O      0.13356   0.8108  0.02718     O
C       0.1359   0.1128   0.3083     C
C       0.1359   0.8872   0.8083     C
C       0.1366   0.4842   0.2584     C
C       0.1366   0.5158   0.7584     C
C       0.1377   0.1443   0.3499     C
C       0.1377   0.8557   0.8499     C
O      0.13874  0.20796  0.42967     O
O      0.13874  0.79204  0.92967     O
O      0.14268   0.3081  0.45328     O
O      0.14268   0.6919  0.95328     O
O      0.14444  0.28908  0.55769     O
O      0.14444  0.71092  0.05769     O
O       0.1467   0.1054   0.2084     O
O       0.1467   0.8946   0.7084     O
C       0.1479  0.38927   0.3987     C
C       0.1479  0.61073   0.8987     C
C       0.1482   0.3832   0.6811     C
C       0.1482   0.6168   0.1811     C
C       0.1486   0.4274   0.3654     C
C       0.1486   0.5726   0.8654     C
C       0.1487    0.352   0.6427     C
C       0.1487    0.648   0.1427     C
H       0.1499   0.4824   0.7068     H
H       0.1499   0.5176   0.2068     H
Zn      0.1525  0.24717  0.50501    Zn
Zn      0.1525  0.75283  0.00501    Zn
O       0.1571   0.4415   0.2687     O
O       0.1571   0.5585   0.7687     O
H       0.1601   0.0631   0.6669     H
H       0.1601   0.9369   0.1669     H
H       0.1613    0.126   0.6121     H
H       0.1613    0.874   0.1121     H
H       0.1639   0.0996    0.324     H
H       0.1639   0.9004    0.824     H
H       0.1666   0.1507   0.3939     H
H       0.1666   0.8493   0.8939     H
C      0.17612  0.25793   0.3219     C
C      0.17612  0.74207   0.8219     C
H       0.1762   0.1023   0.1666     H
H       0.1762   0.3744   0.4361     H
H       0.1762   0.6256   0.9361     H
H       0.1762   0.8977   0.6666     H
H       0.1772   0.3935   0.7226     H
H       0.1772   0.4366   0.3797     H
H       0.1772   0.5634   0.8797     H
H       0.1772   0.6065   0.2226     H
H       0.1774   0.3433   0.6568     H
H       0.1774   0.6567   0.1568     H
H       0.1775   0.4571   0.2186     H
H       0.1775   0.5429   0.7186     H
H       0.1855   0.2842   0.3968     H
H       0.1855   0.7158   0.8968     H
H       0.1871   0.2344   0.2704     H
H       0.1871   0.7656   0.7704     H
C       0.1878   0.1025   0.2117     C
C       0.1878   0.8975   0.7117     C
H       0.1901   0.1681   0.2429     H
H       0.1901   0.8319   0.7429     H
C        0.191   0.4394   0.2595     C
C        0.191   0.5606   0.7595     C
H        0.195   0.4059   0.2534     H
H        0.195   0.5941   0.7534     H
H        0.199   0.1867   0.1396     H
H        0.199   0.8133   0.6396     H
C       0.2009   0.2723   0.3843     C
C       0.2009   0.7277   0.8843     C
C       0.2016   0.2445   0.3138     C
C       0.2016   0.7555   0.8138     C
H       0.2077   0.0743   0.2369     H
H       0.2077   0.9257   0.7369     H
H       0.2093   0.2686   0.1736     H
H       0.2093   0.7314   0.6736     H
C       0.2133   0.1483   0.2488     C
C       0.2133   0.8517   0.7488     C
N      0.22494  0.24394   0.5778     N
N      0.22494  0.75606   0.0778     N
H       0.2287   0.4874   0.3258     H
H       0.2287   0.5126   0.8258     H
H       0.2292   0.2605   0.1403     H
H       0.2292   0.7395   0.6403     H
C       0.2298   0.1972   0.1821     C
C       0.2298   0.8028   0.6821     C
C       0.2317   0.4574   0.3104     C
C       0.2317   0.5426   0.8104     C
H       0.2318   0.3332   0.7263     H
H       0.2318   0.6668   0.2263     H
H       0.2324   0.2692   0.6454     H
H       0.2324   0.7308   0.1454     H
C       0.2335   0.2528   0.1786     C
C       0.2335   0.7472   0.6786     C
H       0.2345   0.2205   0.5243     H
H       0.2345   0.7795   0.0243     H
H       0.2358   0.2363   0.7802     H
H       0.2358   0.7637   0.2802     H
C       0.2359   0.1789   0.2413     C
C       0.2359   0.8211   0.7413     C
H       0.2368   0.1393   0.2966     H
H       0.2368   0.8607   0.7966     H
H       0.2369   0.2087   0.2613     H
H       0.2369   0.7913   0.7613     H
H       0.2463   0.3182   0.8144     H
H       0.2463   0.6818   0.3144     H
C       0.2483   0.2569    0.634     C
C       0.2483   0.7431    0.134     C
H       0.2495   0.0369   0.7003     H
H       0.2495   0.9631   0.2003     H
C       0.2497   0.2698   0.4316     C
C       0.2497   0.7302   0.9316     C
C       0.2503   0.2302   0.5684     C
C       0.2503   0.7698   0.0684     C
H       0.2505   0.4631   0.2997     H
H       0.2505   0.5369   0.7997     H
C       0.2517   0.2431    0.366     C
C       0.2517   0.7569    0.866     C
H       0.2537   0.1818   0.1856     H
H       0.2537   0.8182   0.6856     H
H       0.2631   0.2913   0.7387     H
H       0.2631   0.7087   0.2387     H
H       0.2632   0.3607   0.7034     H
H       0.2632   0.6393   0.2034     H
C       0.2641   0.3211   0.7587     C
C       0.2641   0.6789   0.2587     C
H       0.2642   0.2637   0.2198     H
H       0.2642   0.7363   0.7198     H
H       0.2655   0.2795   0.4757     H
H       0.2655   0.7205   0.9757     H
C       0.2665   0.2472   0.8214     C
C       0.2665   0.7528   0.3214     C
H       0.2676   0.2308   0.3546     H
H       0.2676   0.7692   0.8546     H
H       0.2682   0.1668   0.2737     H
H       0.2682   0.8332   0.7737     H
C       0.2683   0.0426   0.6896     C
C       0.2683   0.9574   0.1896     C
C       0.2702   0.3028   0.8179     C
C       0.2702   0.6972   0.3179     C
H       0.2708   0.2395   0.8597     H
H       0.2708   0.7605   0.3597     H
H       0.2713   0.0126   0.6742     H
H       0.2713   0.9874   0.1742     H
N      0.27506  0.25606   0.4222     N
N      0.27506  0.74394   0.9222     N
C       0.2867   0.3517   0.7512     C
C       0.2867   0.6483   0.2512     C
H       0.2907   0.2314   0.8264     H
H       0.2907   0.7686   0.3264     H
H       0.2923   0.4257   0.7631     H
H       0.2923   0.5743   0.2631     H
C       0.2984   0.2555   0.6862     C
C       0.2984   0.7445   0.1862     C
C       0.2991   0.2277   0.6157     C
C       0.2991   0.7723   0.1157     C
H        0.301   0.3133   0.8604     H
H        0.301   0.6867   0.3604     H
H        0.305   0.0941   0.7466     H
H        0.305   0.9059   0.2466     H
C        0.309   0.0606   0.7405     C
C        0.309   0.9394   0.2405     C
H       0.3099   0.3319   0.7571     H
H       0.3099   0.6681   0.2571     H
C       0.3122   0.3975   0.7883     C
C       0.3122   0.6025   0.2883     C
H       0.3129   0.2656   0.7296     H
H       0.3129   0.7344   0.2296     H
H       0.3145   0.2158   0.6032     H
H       0.3145   0.7842   0.1032     H
H       0.3225   0.0429   0.7814     H
H       0.3225   0.9571   0.2814     H
H       0.3226   0.1567   0.3432     H
H       0.3226   0.8433   0.8432     H
H       0.3228   0.0634   0.6203     H
H       0.3228   0.1065   0.2774     H
H       0.3228   0.8935   0.7774     H
H       0.3228   0.9366   0.1203     H
H       0.3238   0.1256   0.5639     H
H       0.3238   0.3977   0.8334     H
H       0.3238   0.6023   0.3334     H
H       0.3238   0.8744   0.0639     H
C      0.32388  0.24207   0.6781     C
C      0.32388  0.75793   0.1781     C
H       0.3334   0.3493   0.6061     H
H       0.3334   0.6507   0.1061     H
H       0.3361   0.4004    0.676     H
H       0.3361   0.5996    0.176     H
H       0.3387    0.374   0.3879     H
H       0.3387    0.626   0.8879     H
H       0.3399   0.4369   0.3331     H
H       0.3399   0.5631   0.8331     H
O       0.3429   0.0585   0.7313     O
O       0.3429   0.9415   0.2313     O
Zn      0.3475  0.25283  0.49499    Zn
Zn      0.3475  0.74717  0.99499    Zn
H       0.3501   0.0176   0.2932     H
H       0.3501   0.9824   0.7932     H
C       0.3513    0.148   0.3573     C
C       0.3513    0.852   0.8573     C
C       0.3514   0.0726   0.6346     C
C       0.3514   0.9274   0.1346     C
C       0.3518   0.1168   0.3189     C
C       0.3518   0.8832   0.8189     C
C       0.3521  0.11073   0.6013     C
C       0.3521  0.88927   0.1013     C
O       0.3533   0.3946   0.7916     O
O       0.3533   0.6054   0.2916     O
O      0.35556  0.21092  0.44231     O
O      0.35556  0.78908  0.94231     O
O      0.35732   0.1919  0.54672     O
O      0.35732   0.8081  0.04672     O
O      0.36126  0.29204  0.57033     O
O      0.36126  0.70796  0.07033     O
C       0.3623   0.3557   0.6501     C
C       0.3623   0.6443   0.1501     C
C       0.3634   0.0158   0.7416     C
C       0.3634   0.9842   0.2416     C
C       0.3641   0.3872   0.6917     C
C       0.3641   0.6128   0.1917     C
O      0.36644   0.3108  0.47282     O
O      0.36644   0.6892  0.97282     O
C       0.3665   0.0214   0.2801     C
C       0.3665   0.9786   0.7801     C
C       0.3675   0.3887   0.4091     C
C       0.3675   0.6113   0.9091     C
C       0.3679   0.4275   0.3765     C
C       0.3679   0.5725   0.8765     C
C      0.37711  0.24103   0.7324     C
C      0.37711  0.75897   0.2324     C
H       0.3811   0.4618   0.8811     H
H       0.3811   0.5382   0.3811     H
H       0.3856   0.2812   0.8013     H
H       0.3856   0.7188   0.3013     H
H       0.3874   0.1991   0.6828     H
H       0.3874   0.8009   0.1828     H
C       0.3877   0.4308   0.8177     C
C       0.3877   0.5692   0.3177     C
C        0.389   0.0092   0.7223     C
C        0.389   0.9908   0.2223     C
C       0.3918   0.1001   0.3376     C
C       0.3918   0.8999   0.8376     C
C        0.392  0.04905   0.6874     C
C        0.392   0.4684   0.8603     C
C        0.392   0.5316   0.3603     C
C        0.392  0.95095   0.1874     C
C       0.3923   0.0624   0.2989     C
C       0.3923   0.9376   0.7989     C
C      0.39401    0.126   0.6234     C
C      0.39401    0.874   0.1234     C
C      0.39405  0.16701   0.4179     C
C      0.39405  0.83299   0.9179     C
C      0.39435  0.19915   0.4625     C
C      0.39435  0.80085   0.9625     C
C      0.39571  0.17124   0.5934     C
C      0.39571  0.82876   0.0934     C
C       0.4013  0.30136   0.6278     C
C       0.4013  0.69864   0.1278     C
C      0.40178   0.2649   0.7926     C
C      0.40178   0.7351   0.2926     C
C      0.40287   0.2167   0.7226     C
C      0.40287   0.7833   0.2226     C
C      0.40326  0.33381   0.6737     C
C      0.40326  0.66619   0.1737     C
C      0.40679  0.32842   0.5036     C
C      0.40679  0.67158   0.0036     C
H       0.4069   0.3799   0.9505     H
H       0.4069   0.6201   0.4505     H
C       0.4075   0.3996   0.7571     C
C       0.4075   0.6004   0.2571     C
C      0.40755  0.37162   0.4703     C
C      0.40755  0.62838   0.9703     C
C       0.4089   0.4517   0.4079     C
C       0.4089   0.5483   0.9079     C
C        0.409   0.4345   0.8007     C
C        0.409   0.5655   0.3007     C
C       0.4098   0.4912   0.3691     C
C       0.4098   0.5088   0.8691     C
H       0.4129   0.4348   0.0114     H
H       0.4129   0.5652   0.5114     H
C       0.4144   0.0318   0.2425     C
C       0.4144   0.9682   0.7425     C
H       0.4145   0.3097   0.9824     H
H       0.4145   0.6903   0.4824     H
C       0.4169   0.0674   0.2783     C
C       0.4169   0.9326   0.7783     C
H       0.4262   0.1076   0.2032     H
H       0.4262   0.8924   0.7032     H
H       0.4316   0.0357   0.2307     H
H       0.4316   0.9643   0.7307     H
C       0.4331   0.1176   0.3963     C
C       0.4331   0.8824   0.8963     C
C       0.4337   0.0639   0.7085     C
C       0.4337   0.9361   0.2085     C
C        0.434   0.1515   0.4366     C
C        0.434   0.8485   0.9366     C
O      0.43425  0.21258   0.5169     O
O      0.43425  0.78742   0.0169     O
C      0.43504  0.10189   0.6765     C
C      0.43504  0.89811   0.1765     C
O      0.43597  0.18473  0.61919     O
O      0.43597  0.81527  0.11919     O
C        0.438   0.3767   0.9964     C
C        0.438   0.6233   0.4964     C
O      0.43948  0.28423  0.64984     O
O      0.43948  0.71577  0.14984     O
C       0.4397   0.1311   0.2392     C
C       0.4397   0.8689   0.7392     C
H       0.4429   0.4003   0.0729     H
H       0.4429   0.5997   0.5729     H
C       0.4432   0.3277   0.0185     C
C       0.4432   0.6723   0.5185     C
C       0.4437    0.419   0.0435     C
C       0.4437    0.581   0.5435     C
O      0.44439  0.31185  0.55408     O
O      0.44439  0.68815  0.05408     O
C       0.4455   0.4707   0.8316     C
C       0.4455   0.5293   0.3316     C
O       0.4459   0.1089   0.2976     O
O       0.4459   0.8911   0.7976     O
C      0.44651  0.34396   0.7398     C
C      0.44651  0.65604   0.2398     C
H       0.4472   0.3278   0.0579     H
H       0.4472   0.6722   0.5579     H
C       0.4482    0.492   0.3704     C
C       0.4482    0.508   0.8704     C
C       0.4485  0.37487    0.781     C
C       0.4485  0.62513    0.281     C
C       0.4489   0.3949   0.5009     C
C       0.4489   0.6051   0.0009     C
C       0.4505   0.2647   0.8402     C
C       0.4505   0.7353   0.3402     C
C       0.4508   0.4348   0.4704     C
C       0.4508   0.5652   0.9704     C
C      0.45141   0.2187   0.7722     C
C      0.45141   0.7813   0.2722     C
Zn     0.45187  0.24735  0.59829    Zn
Zn     0.45187  0.75265  0.09829    Zn
H       0.4591   0.4902   0.0666     H
H       0.4591   0.5098   0.5666     H
H       0.4614   0.3824   0.9941     H
H       0.4614   0.6176   0.4941     H
H       0.4615   0.1073   0.4108     H
H       0.4615   0.8927   0.9108     H
H       0.4618   0.0483    0.745     H
H       0.4618   0.9517    0.245     H
H       0.4631    0.163   0.4768     H
H       0.4631    0.837   0.9768     H
H       0.4638   0.1111    0.691     H
H       0.4638   0.8889    0.191     H
H       0.4665   0.2813   0.8809     H
H       0.4665   0.7187   0.3809     H
H       0.4667   0.4698   0.8264     H
H       0.4667   0.5302   0.3264     H
H       0.4683   0.2029   0.7644     H
H       0.4683   0.7971   0.2644     H
H       0.4698   0.1425   0.2562     H
H       0.4698   0.8575   0.7562     H
H       0.4742   0.3295   0.7558     H
H       0.4742   0.6705   0.2558     H
C       0.4749   0.4594   0.0881     C
C       0.4749   0.5406   0.5881     C
N      0.47598  0.24239   0.8316     N
N      0.47598  0.75761   0.3316     N
H       0.4768   0.3841   0.5433     H
H       0.4768   0.6159   0.0433     H
H       0.4774   0.3798   0.8256     H
H       0.4774   0.6202   0.3256     H
H       0.4797   0.4496   0.4918     H
H       0.4797   0.5504   0.9918     H
O        0.483   0.4551   0.4007     O
O        0.483   0.5449   0.9007     O
H       0.4834   0.4574    0.131     H
H       0.4834   0.5426    0.631     H
H       0.5166   0.4574    0.369     H
H       0.5166   0.5426    0.869     H
O        0.517   0.4551   0.0993     O
O        0.517   0.5449   0.5993     O
H       0.5203   0.4496   0.0082     H
H       0.5203   0.5504   0.5082     H
H       0.5226   0.3798   0.6744     H
H       0.5226   0.6202   0.1744     H
H       0.5232   0.3841   0.9567     H
H       0.5232   0.6159   0.4567     H
N      0.52402  0.24239   0.6684     N
N      0.52402  0.75761   0.1684     N
C       0.5251   0.4594   0.4119     C
C       0.5251   0.5406   0.9119     C
H       0.5258   0.3295   0.7442     H
H       0.5258   0.6705   0.2442     H
H       0.5302   0.1425   0.2438     H
H       0.5302   0.8575   0.7438     H
H       0.5317   0.2029   0.7356     H
H       0.5317   0.7971   0.2356     H
H       0.5333   0.4698   0.6736     H
H       0.5333   0.5302   0.1736     H
H       0.5335   0.2813   0.6191     H
H       0.5335   0.7187   0.1191     H
H       0.5362   0.1111    0.809     H
H       0.5362   0.8889    0.309     H
H       0.5369    0.163   0.0232     H
H       0.5369    0.837   0.5232     H
H       0.5382   0.0483    0.755     H
H       0.5382   0.9517    0.255     H
H       0.5385   0.1073   0.0892     H
H       0.5385   0.8927   0.5892     H
H       0.5386   0.3824   0.5059     H
H       0.5386   0.6176   0.0059     H
H       0.5409   0.4902   0.4334     H
H       0.5409   0.5098   0.9334     H
Zn     0.54813  0.24735  0.90171    Zn
Zn     0.54813  0.75265  0.40171    Zn
C      0.54859   0.2187   0.7278     C
C      0.54859   0.7813   0.2278     C
C       0.5492   0.4348   0.0296     C
C       0.5492   0.5652   0.5296     C
C       0.5495   0.2647   0.6598     C
C       0.5495   0.7353   0.1598     C
C       0.5511   0.3949   0.9991     C
C       0.5511   0.6051   0.4991     C
C       0.5515  0.37487    0.719     C
C       0.5515  0.62513    0.219     C
C       0.5518    0.492   0.1296     C
C       0.5518    0.508   0.6296     C
H       0.5528   0.3278   0.4421     H
H       0.5528   0.6722   0.9421     H
C      0.55349  0.34396   0.7602     C
C      0.55349  0.65604   0.2602     C
O       0.5541   0.1089   0.2024     O
O       0.5541   0.8911   0.7024     O
C       0.5545   0.4707   0.6684     C
C       0.5545   0.5293   0.1684     C
O      0.55561  0.31185  0.94592     O
O      0.55561  0.68815  0.44592     O
C       0.5563    0.419   0.4565     C
C       0.5563    0.581   0.9565     C
C       0.5568   0.3277   0.4815     C
C       0.5568   0.6723   0.9815     C
H       0.5571   0.4003   0.4271     H
H       0.5571   0.5997   0.9271     H
C       0.5603   0.1311   0.2608     C
C       0.5603   0.8689   0.7608     C
O      0.56052  0.28423  0.85016     O
O      0.56052  0.71577  0.35016     O
C        0.562   0.3767   0.5036     C
C        0.562   0.6233   0.0036     C
O      0.56403  0.18473  0.88081     O
O      0.56403  0.81527  0.38081     O
C      0.56496  0.10189   0.8235     C
C      0.56496  0.89811   0.3235     C
O      0.56575  0.21258   0.9831     O
O      0.56575  0.78742   0.4831     O
C        0.566   0.1515   0.0634     C
C        0.566   0.8485   0.5634     C
C       0.5663   0.0639   0.7915     C
C       0.5663   0.9361   0.2915     C
C       0.5669   0.1176   0.1037     C
C       0.5669   0.8824   0.6037     C
H       0.5684   0.0357   0.2693     H
H       0.5684   0.9643   0.7693     H
H       0.5738   0.1076   0.2968     H
H       0.5738   0.8924   0.7968     H
C       0.5831   0.0674   0.2217     C
C       0.5831   0.9326   0.7217     C
H       0.5855   0.3097   0.5176     H
H       0.5855   0.6903   0.0176     H
C       0.5856   0.0318   0.2575     C
C       0.5856   0.9682   0.7575     C
H       0.5871   0.4348   0.4886     H
H       0.5871   0.5652   0.9886     H
C       0.5902   0.4912   0.1309     C
C       0.5902   0.5088   0.6309     C
C        0.591   0.4345   0.6993     C
C        0.591   0.5655   0.1993     C
C       0.5911   0.4517   0.0921     C
C       0.5911   0.5483   0.5921     C
C      0.59245  0.37162   0.0297     C
C      0.59245  0.62838   0.5297     C
C       0.5925   0.3996   0.7429     C
C       0.5925   0.6004   0.2429     C
H       0.5931   0.3799   0.5495     H
H       0.5931   0.6201   0.0495     H
C      0.59321  0.32842   0.9964     C
C      0.59321  0.67158   0.4964     C
C      0.59674  0.33381   0.8263     C
C      0.59674  0.66619   0.3263     C
C      0.59713   0.2167   0.7774     C
C      0.59713   0.7833   0.2774     C
C      0.59822   0.2649   0.7074     C
C      0.59822   0.7351   0.2074     C
C       0.5987  0.30136   0.8722     C
C       0.5987  0.69864   0.3722     C
C      0.60429  0.17124   0.9066     C
C      0.60429  0.82876   0.4066     C
C      0.60565  0.19915   0.0375     C
C      0.60565  0.80085   0.5375     C
C      0.60595  0.16701   0.0821     C
C      0.60595  0.83299   0.5821     C
C      0.60599    0.126   0.8766     C
C      0.60599    0.874   0.3766     C
C       0.6077   0.0624   0.2011     C
C       0.6077   0.9376   0.7011     C
C        0.608  0.04905   0.8126     C
C        0.608   0.4684   0.6397     C
C        0.608   0.5316   0.1397     C
C        0.608  0.95095   0.3126     C
C       0.6082   0.1001   0.1624     C
C       0.6082   0.8999   0.6624     C
C        0.611   0.0092   0.7777     C
C        0.611   0.9908   0.2777     C
C       0.6123   0.4308   0.6823     C
C       0.6123   0.5692   0.1823     C
H       0.6126   0.1991   0.8172     H
H       0.6126   0.8009   0.3172     H
H       0.6144   0.2812   0.6987     H
H       0.6144   0.7188   0.1987     H
H       0.6189   0.4618   0.6189     H
H       0.6189   0.5382   0.1189     H
C      0.62289  0.24103   0.7676     C
C      0.62289  0.75897   0.2676     C
C       0.6321   0.4275   0.1235     C
C       0.6321   0.5725   0.6235     C
C       0.6325   0.3887   0.0909     C
C       0.6325   0.6113   0.5909     C
C       0.6335   0.0214   0.2199     C
C       0.6335   0.9786   0.7199     C
O      0.63356   0.3108  0.02718     O
O      0.63356   0.6892  0.52718     O
C       0.6359   0.3872   0.8083     C
C       0.6359   0.6128   0.3083     C
C       0.6366   0.0158   0.7584     C
C       0.6366   0.9842   0.2584     C
C       0.6377   0.3557   0.8499     C
C       0.6377   0.6443   0.3499     C
O      0.63874  0.29204  0.92967     O
O      0.63874  0.70796  0.42967     O
O      0.64268   0.1919  0.95328     O
O      0.64268   0.8081  0.45328     O
O      0.64444  0.21092  0.05769     O
O      0.64444  0.78908  0.55769     O
O       0.6467   0.3946   0.7084     O
O       0.6467   0.6054   0.2084     O
C       0.6479  0.11073   0.8987     C
C       0.6479  0.88927   0.3987     C
C       0.6482   0.1168   0.1811     C
C       0.6482   0.8832   0.6811     C
C       0.6486   0.0726   0.8654     C
C       0.6486   0.9274   0.3654     C
C       0.6487    0.148   0.1427     C
C       0.6487    0.852   0.6427     C
H       0.6499   0.0176   0.2068     H
H       0.6499   0.9824   0.7068     H
Zn      0.6525  0.25283  0.00501    Zn
Zn      0.6525  0.74717  0.50501    Zn
O       0.6571   0.0585   0.7687     O
O       0.6571   0.9415   0.2687     O
H       0.6601   0.4369   0.1669     H
H       0.6601   0.5631   0.6669     H
H       0.6613    0.374   0.1121     H
H       0.6613    0.626   0.6121     H
H       0.6639   0.4004    0.824     H
H       0.6639   0.5996    0.324     H
H       0.6666   0.3493   0.8939     H
H       0.6666   0.6507   0.3939     H
C      0.67612  0.24207   0.8219     C
C      0.67612  0.75793   0.3219     C
H       0.6762   0.1256   0.9361     H
H       0.6762   0.3977   0.6666     H
H       0.6762   0.6023   0.1666     H
H       0.6762   0.8744   0.4361     H
H       0.6772   0.0634   0.8797     H
H       0.6772   0.1065   0.2226     H
H       0.6772   0.8935   0.7226     H
H       0.6772   0.9366   0.3797     H
H       0.6774   0.1567   0.1568     H
H       0.6774   0.8433   0.6568     H
H       0.6775   0.0429   0.7186     H
H       0.6775   0.9571   0.2186     H
H       0.6855   0.2158   0.8968     H
H       0.6855   0.7842   0.3968     H
H       0.6871   0.2656   0.7704     H
H       0.6871   0.7344   0.2704     H
C       0.6878   0.3975   0.7117     C
C       0.6878   0.6025   0.2117     C
H       0.6901   0.3319   0.7429     H
H       0.6901   0.6681   0.2429     H
C        0.691   0.0606   0.7595     C
C        0.691   0.9394   0.2595     C
H        0.695   0.0941   0.7534     H
H        0.695   0.9059   0.2534     H
H        0.699   0.3133   0.6396     H
H        0.699   0.6867   0.1396     H
C       0.7009   0.2277   0.8843     C
C       0.7009   0.7723   0.3843     C
C       0.7016   0.2555   0.8138     C
C       0.7016   0.7445   0.3138     C
H       0.7077   0.4257   0.7369     H
H       0.7077   0.5743   0.2369     H
H       0.7093   0.2314   0.6736     H
H       0.7093   0.7686   0.1736     H
C       0.7133   0.3517   0.7488     C
C       0.7133   0.6483   0.2488     C
N      0.72494  0.25606   0.0778     N
N      0.72494  0.74394   0.5778     N
H       0.7287   0.0126   0.8258     H
H       0.7287   0.9874   0.3258     H
H       0.7292   0.2395   0.6403     H
H       0.7292   0.7605   0.1403     H
C       0.7298   0.3028   0.6821     C
C       0.7298   0.6972   0.1821     C
C       0.7317   0.0426   0.8104     C
C       0.7317   0.9574   0.3104     C
H       0.7318   0.1668   0.2263     H
H       0.7318   0.8332   0.7263     H
H       0.7324   0.2308   0.1454     H
H       0.7324   0.7692   0.6454     H
C       0.7335   0.2472   0.6786     C
C       0.7335   0.7528   0.1786     C
H       0.7345   0.2795   0.0243     H
H       0.7345   0.7205   0.5243     H
H       0.7358   0.2637   0.2802     H
H       0.7358   0.7363   0.7802     H
C       0.7359   0.3211   0.7413     C
C       0.7359   0.6789   0.2413     C
H       0.7368   0.3607   0.7966     H
H       0.7368   0.6393   0.2966     H
H       0.7369   0.2913   0.7613     H
H       0.7369   0.7087   0.2613     H
H       0.7463   0.1818   0.3144     H
H       0.7463   0.8182   0.8144     H
C       0.7483   0.2431    0.134     C
C       0.7483   0.7569    0.634     C
H       0.7495   0.4631   0.2003     H
H       0.7495   0.5369   0.7003     H
C       0.7497   0.2302   0.9316     C
C       0.7497   0.7698   0.4316     C
C       0.7503   0.2698   0.0684     C
C       0.7503   0.7302   0.5684     C
H       0.7505   0.0369   0.7997     H
H       0.7505   0.9631   0.2997     H
C       0.7517   0.2569    0.866     C
C       0.7517   0.7431    0.366     C
H       0.7537   0.3182   0.6856     H
H       0.7537   0.6818   0.1856     H
H       0.7631   0.2087   0.2387     H
H       0.7631   0.7913   0.7387     H
H       0.7632   0.1393   0.2034     H
H       0.7632   0.8607   0.7034     H
C       0.7641   0.1789   0.2587     C
C       0.7641   0.8211   0.7587     C
H       0.7642   0.2363   0.7198     H
H       0.7642   0.7637   0.2198     H
H       0.7655   0.2205   0.9757     H
H       0.7655   0.7795   0.4757     H
C       0.7665   0.2528   0.3214     C
C       0.7665   0.7472   0.8214     C
H       0.7676   0.2692   0.8546     H
H       0.7676   0.7308   0.3546     H
H       0.7682   0.3332   0.7737     H
H       0.7682   0.6668   0.2737     H
C       0.7683   0.4574   0.1896     C
C       0.7683   0.5426   0.6896     C
C       0.7702   0.1972   0.3179     C
C       0.7702   0.8028   0.8179     C
H       0.7708   0.2605   0.3597     H
H       0.7708   0.7395   0.8597     H
H       0.7713   0.4874   0.1742     H
H       0.7713   0.5126   0.6742     H
N      0.77506  0.24394   0.9222     N
N      0.77506  0.75606   0.4222     N
C       0.7867   0.1483   0.2512     C
C       0.7867   0.8517   0.7512     C
H       0.7907   0.2686   0.3264     H
H       0.7907   0.7314   0.8264     H
H       0.7923   0.0743   0.2631     H
H       0.7923   0.9257   0.7631     H
C       0.7984   0.2445   0.1862     C
C       0.7984   0.7555   0.6862     C
C       0.7991   0.2723   0.1157     C
C       0.7991   0.7277   0.6157     C
H        0.801   0.1867   0.3604     H
H        0.801   0.8133   0.8604     H
H        0.805   0.4059   0.2466     H
H        0.805   0.5941   0.7466     H
C        0.809   0.4394   0.2405     C
C        0.809   0.5606   0.7405     C
H       0.8099   0.1681   0.2571     H
H       0.8099   0.8319   0.7571     H
C       0.8122   0.1025   0.2883     C
C       0.8122   0.8975   0.7883     C
H       0.8129   0.2344   0.2296     H
H       0.8129   0.7656   0.7296     H
H       0.8145   0.2842   0.1032     H
H       0.8145   0.7158   0.6032     H
H       0.8225   0.4571   0.2814     H
H       0.8225   0.5429   0.7814     H
H       0.8226   0.3433   0.8432     H
H       0.8226   0.6567   0.3432     H
H       0.8228   0.3935   0.7774     H
H       0.8228   0.4366   0.1203     H
H       0.8228   0.5634   0.6203     H
H       0.8228   0.6065   0.2774     H
H       0.8238   0.1023   0.3334     H
H       0.8238   0.3744   0.0639     H
H       0.8238   0.6256   0.5639     H
H       0.8238   0.8977   0.8334     H
C      0.82388  0.25793   0.1781     C
C      0.82388  0.74207   0.6781     C
H       0.8334   0.1507   0.1061     H
H       0.8334   0.8493   0.6061     H
H       0.8361   0.0996    0.176     H
H       0.8361   0.9004    0.676     H
H       0.8387    0.126   0.8879     H
H       0.8387    0.874   0.3879     H
H       0.8399   0.0631   0.8331     H
H       0.8399   0.9369   0.3331     H
O       0.8429   0.4415   0.2313     O
O       0.8429   0.5585   0.7313     O
Zn      0.8475  0.24717  0.99499    Zn
Zn      0.8475  0.75283  0.49499    Zn
H       0.8501   0.4824   0.7932     H
H       0.8501   0.5176   0.2932     H
C       0.8513    0.352   0.8573     C
C       0.8513    0.648   0.3573     C
C       0.8514   0.4274   0.1346     C
C       0.8514   0.5726   0.6346     C
C       0.8518   0.3832   0.8189     C
C       0.8518   0.6168   0.3189     C
C       0.8521  0.38927   0.1013     C
C       0.8521  0.61073   0.6013     C
O       0.8533   0.1054   0.2916     O
O       0.8533   0.8946   0.7916     O
O      0.85556  0.28908  0.94231     O
O      0.85556  0.71092  0.44231     O
O      0.85732   0.3081  0.04672     O
O      0.85732   0.6919  0.54672     O
O      0.86126  0.20796  0.07033     O
O      0.86126  0.79204  0.57033     O
C       0.8623   0.1443   0.1501     C
C       0.8623   0.8557   0.6501     C
C       0.8634   0.4842   0.2416     C
C       0.8634   0.5158   0.7416     C
C       0.8641   0.1128   0.1917     C
C       0.8641   0.8872   0.6917     C
O      0.86644   0.1892  0.97282     O
O      0.86644   0.8108  0.47282     O
C       0.8665   0.4786   0.7801     C
C       0.8665   0.5214   0.2801     C
C       0.8675   0.1113   0.9091     C
C       0.8675   0.8887   0.4091     C
C       0.8679   0.0725   0.8765     C
C       0.8679   0.9275   0.3765     C
C      0.87711  0.25897   0.2324     C
C      0.87711  0.74103   0.7324     C
H       0.8811   0.0382   0.3811     H
H       0.8811   0.9618   0.8811     H
H       0.8856   0.2188   0.3013     H
H       0.8856   0.7812   0.8013     H
H       0.8874   0.3009   0.1828     H
H       0.8874   0.6991   0.6828     H
C       0.8877   0.0692   0.3177     C
C       0.8877   0.9308   0.8177     C
C        0.889   0.4908   0.2223     C
C        0.889   0.5092   0.7223     C
C       0.8918   0.3999   0.8376     C
C       0.8918   0.6001   0.3376     C
C        0.892   0.0316   0.3603     C
C        0.892  0.45095   0.1874     C
C        0.892  0.54905   0.6874     C
C        0.892   0.9684   0.8603     C
C       0.8923   0.4376   0.7989     C
C       0.8923   0.5624   0.2989     C
C      0.89401    0.374   0.1234     C
C      0.89401    0.626   0.6234     C
C      0.89405  0.33299   0.9179     C
C      0.89405  0.66701   0.4179     C
C      0.89435  0.30085   0.9625     C
C      0.89435  0.69915   0.4625     C
C      0.89571  0.32876   0.0934     C
C      0.89571  0.67124   0.5934     C
C       0.9013  0.19864   0.1278     C
C       0.9013  0.80136   0.6278     C
C      0.90178   0.2351   0.2926     C
C      0.90178   0.7649   0.7926     C
C      0.90287   0.2833   0.2226     C
C      0.90287   0.7167   0.7226     C
C      0.90326  0.16619   0.1737     C
C      0.90326  0.83381   0.6737     C
C      0.90679  0.17158   0.0036     C
C      0.90679  0.82842   0.5036     C
H       0.9069   0.1201   0.4505     H
H       0.9069   0.8799   0.9505     H
C       0.9075   0.1004   0.2571     C
C       0.9075   0.8996   0.7571     C
C      0.90755  0.12838   0.9703     C
C      0.90755  0.87162   0.4703     C
C       0.9089   0.0483   0.9079     C
C       0.9089   0.9517   0.4079     C
C        0.909   0.0655   0.3007     C
C        0.909   0.9345   0.8007     C
C       0.9098   0.0088   0.8691     C
C       0.9098   0.9912   0.3691     C
H       0.9129   0.0652   0.5114     H
H       0.9129   0.9348   0.0114     H
C       0.9144   0.4682   0.7425     C
C       0.9144   0.5318   0.2425     C
H       0.9145   0.1903   0.4824     H
H       0.9145   0.8097   0.9824     H
C       0.9169   0.4326   0.7783     C
C       0.9169   0.5674   0.2783     C
H       0.9262   0.3924   0.7032     H
H       0.9262   0.6076   0.2032     H
H       0.9316   0.4643   0.7307     H
H       0.9316   0.5357   0.2307     H
C       0.9331   0.3824   0.8963     C
C       0.9331   0.6176   0.3963     C
C       0.9337   0.4361   0.2085     C
C       0.9337   0.5639   0.7085     C
C        0.934   0.3485   0.9366     C
C        0.934   0.6515   0.4366     C
O      0.93425  0.28742   0.0169     O
O      0.93425  0.71258   0.5169     O
C      0.93504  0.39811   0.1765     C
C      0.93504  0.60189   0.6765     C
O      0.93597  0.31527  0.11919     O
O      0.93597  0.68473  0.61919     O
C        0.938   0.1233   0.4964     C
C        0.938   0.8767   0.9964     C
O      0.93948  0.21577  0.14984     O
O      0.93948  0.78423  0.64984     O
C       0.9397   0.3689   0.7392     C
C       0.9397   0.6311   0.2392     C
H       0.9429   0.0997   0.5729     H
H       0.9429   0.9003   0.0729     H
C       0.9432   0.1723   0.5185     C
C       0.9432   0.8277   0.0185     C
C       0.9437    0.081   0.5435     C
C       0.9437    0.919   0.0435     C
O      0.94439  0.18815  0.05408     O
O      0.94439  0.81185  0.55408     O
C       0.9455   0.0293   0.3316     C
C       0.9455   0.9707   0.8316     C
O       0.9459   0.3911   0.7976     O
O       0.9459   0.6089   0.2976     O
C      0.94651  0.15604   0.2398     C
C      0.94651  0.84396   0.7398     C
H       0.9472   0.1722   0.5579     H
H       0.9472   0.8278   0.0579     H
C       0.9482    0.008   0.8704     C
C       0.9482    0.992   0.3704     C
C       0.9485  0.12513    0.281     C
C       0.9485  0.87487    0.781     C
C       0.9489   0.1051   0.0009     C
C       0.9489   0.8949   0.5009     C
C       0.9505   0.2353   0.3402     C
C       0.9505   0.7647   0.8402     C
C       0.9508   0.0652   0.9704     C
C       0.9508   0.9348   0.4704     C
C      0.95141   0.2813   0.2722     C
C      0.95141   0.7187   0.7722     C
Zn     0.95187  0.25265  0.09829    Zn
Zn     0.95187  0.74735  0.59829    Zn
H       0.9591   0.0098   0.5666     H
H       0.9591   0.9902   0.0666     H
H       0.9614   0.1176   0.4941     H
H       0.9614   0.8824   0.9941     H
H       0.9615   0.3927   0.9108     H
H       0.9615   0.6073   0.4108     H
H       0.9618   0.4517    0.245     H
H       0.9618   0.5483    0.745     H
H       0.9631    0.337   0.9768     H
H       0.9631    0.663   0.4768     H
H       0.9638   0.3889    0.191     H
H       0.9638   0.6111    0.691     H
H       0.9665   0.2187   0.3809     H
H       0.9665   0.7813   0.8809     H
H       0.9667   0.0302   0.3264     H
H       0.9667   0.9698   0.8264     H
H       0.9683   0.2971   0.2644     H
H       0.9683   0.7029   0.7644     H
H       0.9698   0.3575   0.7562     H
H       0.9698   0.6425   0.2562     H
H       0.9742   0.1705   0.2558     H
H       0.9742   0.8295   0.7558     H
C       0.9749   0.0406   0.5881     C
C       0.9749   0.9594   0.0881     C
N      0.97598  0.25761   0.3316     N
N      0.97598  0.74239   0.8316     N
H       0.9768   0.1159   0.0433     H
H       0.9768   0.8841   0.5433     H
H       0.9774   0.1202   0.3256     H
H       0.9774   0.8798   0.8256     H
H       0.9797   0.0504   0.9918     H
H       0.9797   0.9496   0.4918     H
O        0.983   0.0449   0.9007     O
O        0.983   0.9551   0.4007     O
H       0.9834   0.0426    0.631     H
H       0.9834   0.9574    0.131     H
