data_I
_chemical_name_common  '/home/zhangsd/repos/MofS-CGCNN/ML/data/SSD/clean_cifs/IBOTAU_clean'
_cell_length_a 13.60860
_cell_length_b 13.60860
_cell_length_c 15.27770
_cell_angle_alpha 90.00000
_cell_angle_beta  90.00000
_cell_angle_gamma 120.00000
_space_group_name_H-M_alt      'P 1'


loop_
_space_group_symop_operation_xyz
  'x, y, z' 

loop_
_atom_site_label
_atom_site_fract_x
_atom_site_fract_y
_atom_site_fract_z
_atom_site_type_symbol
Zn         0.0      0.0      0.0    Zn
P      0.02013  0.79338  0.10648     P
O       0.0243   0.7267   0.0281     O
Zn     0.02804  0.78453  0.91009    Zn
O      0.03573  0.64237  0.69477     O
O      0.03863  0.28227  0.81567     O
O       0.0472    0.147    0.921     O
O      0.05107  0.42303  0.48233     O
O      0.06003  0.36907  0.63857     O
O      0.07663  0.52777  0.80307     O
O       0.0897   0.7053    0.851     O
Zn     0.08982  0.63863  0.57676    Zn
O       0.0998   0.9528    0.921     O
P      0.10658  0.64654  0.77315     P
O       0.1178   0.2567   0.1364     O
Zn     0.11786  0.42316  0.75658    Zn
P      0.12671  0.43992  0.56019     P
O       0.1389   0.8822   0.1364     O
O        0.147   0.0998    0.079     O
O      0.18633  0.56687  0.58767     O
O      0.19443  0.78447  0.53027     O
P      0.20662  0.22675  0.10648     P
Zn     0.21547  0.24351  0.91009    Zn
O      0.21553  0.40997  0.53027     O
P      0.22675  0.02013  0.89352     P
O      0.23353  0.71387  0.74567     O
Zn     0.24351  0.02804  0.08991    Zn
O      0.24363  0.96137  0.81567     O
O       0.2567   0.1389   0.8636     O
O       0.2733   0.2976   0.0281     O
O      0.28227  0.24363  0.18433     O
O      0.28613  0.51967  0.74567     O
O       0.2947   0.3844    0.851     O
O       0.2976   0.0243   0.9719     O
Zn     0.30529  0.88214  0.75658    Zn
O      0.30903  0.93997  0.63857     O
P       0.3132  0.87329  0.56019     P
Zn     0.33333  0.66667  0.66667    Zn
P      0.35346  0.46005  0.77315     P
O      0.35763  0.39337  0.69477     O
Zn     0.36137   0.4512  0.57676    Zn
O      0.36907  0.30903  0.36143     O
O      0.37197  0.94893  0.48233     O
O      0.38053  0.81367  0.58767     O
O       0.3844   0.0897    0.149     O
O      0.39337  0.03573  0.30523     O
O      0.40997  0.19443  0.46973     O
O      0.42303  0.37197  0.51767     O
Zn     0.42316  0.30529  0.24342    Zn
O      0.43313  0.61947  0.58767     O
P      0.43992   0.3132  0.43981     P
O      0.45113  0.92337  0.80307     O
Zn      0.4512  0.08982  0.42324    Zn
P      0.46005  0.10658  0.22685     P
O      0.47223  0.54887  0.80307     O
O      0.48033  0.76647  0.74567     O
O      0.51967  0.23353  0.25433     O
O      0.52777  0.45113  0.19693     O
P      0.53995  0.89342  0.77315     P
Zn      0.5488  0.91018  0.57676    Zn
O      0.54887  0.07663  0.19693     O
P      0.56008   0.6868  0.56019     P
O      0.56687  0.38053  0.41233     O
Zn     0.57684  0.69471  0.75658    Zn
O      0.57697  0.62803  0.48233     O
O      0.59003  0.80557  0.53027     O
O      0.60663  0.96427  0.69477     O
O       0.6156   0.9103    0.851     O
O      0.61947  0.18633  0.41233     O
O      0.62803  0.05107  0.51767     O
O      0.63093  0.69097  0.63857     O
Zn     0.63863   0.5488  0.42324    Zn
O      0.64237  0.60663  0.30523     O
P      0.64654  0.53995  0.22685     P
Zn     0.66667  0.33333  0.33333    Zn
P       0.6868  0.12671  0.43981     P
O      0.69097  0.06003  0.36143     O
Zn     0.69471  0.11786  0.24342    Zn
O       0.7024   0.9757   0.0281     O
O       0.7053   0.6156    0.149     O
O      0.71387  0.48033  0.25433     O
O      0.71773  0.75637  0.81567     O
O       0.7267   0.7024   0.9719     O
O       0.7433   0.8611   0.1364     O
O      0.75637  0.03863  0.18433     O
Zn     0.75649  0.97196  0.91009    Zn
O      0.76647  0.28613  0.25433     O
P      0.77325  0.97987  0.10648     P
O      0.78447  0.59003  0.46973     O
Zn     0.78453  0.75649  0.08991    Zn
P      0.79338  0.77325  0.89352     P
O      0.80557  0.21553  0.46973     O
O      0.81367  0.43313  0.41233     O
O        0.853   0.9002    0.921     O
O       0.8611   0.1178   0.8636     O
P      0.87329  0.56008  0.43981     P
Zn     0.88214  0.57684  0.24342    Zn
O       0.8822   0.7433   0.8636     O
P      0.89342  0.35346  0.22685     P
O       0.9002   0.0472    0.079     O
Zn     0.91018  0.36137  0.42324    Zn
O       0.9103   0.2947    0.149     O
O      0.92337  0.47223  0.19693     O
O      0.93997  0.63093  0.36143     O
O      0.94893  0.57697  0.51767     O
O       0.9528    0.853    0.079     O
O      0.96137  0.71773  0.18433     O
O      0.96427  0.35763  0.30523     O
Zn     0.97196  0.21547  0.08991    Zn
O       0.9757   0.2733   0.9719     O
P      0.97987  0.20662  0.89352     P
