data_I
_chemical_name_common  '/home/zhangsd/repos/MofS-CGCNN/ML/data/SSD/clean_cifs/IGETUL_clean'
_cell_length_a 10.85110
_cell_length_b 28.88030
_cell_length_c 19.15500
_cell_angle_alpha 90.00000
_cell_angle_beta  123.90200
_cell_angle_gamma 90.00000
_space_group_name_H-M_alt      'P 1'


loop_
_space_group_symop_operation_xyz
  'x, y, z' 

loop_
_atom_site_label
_atom_site_fract_x
_atom_site_fract_y
_atom_site_fract_z
_atom_site_type_symbol
C          0.0     0.32     0.25     C
H          0.0   0.3513     0.75     H
C          0.0   0.3709     0.25     C
C          0.0   0.3835     0.75     C
C          0.0   0.4691     0.25     C
C          0.0   0.4789     0.75     C
C          0.0   0.5211     0.25     C
C          0.0   0.5309     0.75     C
C          0.0   0.6165     0.25     C
C          0.0   0.6291     0.75     C
H          0.0   0.6487     0.25     H
C          0.0     0.68     0.75     C
H       0.0179   0.1046   0.0784     H
H       0.0179   0.8954   0.5784     H
C       0.0304   0.2875   0.0233     C
C       0.0304   0.7125   0.5233     C
C       0.0311   0.3102   0.9604     C
C       0.0311   0.6898   0.4604     C
C        0.032   0.1803   0.3614     C
C        0.032   0.8197   0.8614     C
C        0.079   0.1144   0.4601     C
C        0.079   0.8856   0.9601     C
O       0.0799   0.2118   0.3382     O
O       0.0799   0.7882   0.8382     O
H       0.0962    0.338   0.6519     H
H       0.0962    0.662   0.1519     H
C        0.099    0.324    0.609     C
C        0.099    0.676    0.109     C
C       0.1043   0.2804   0.4851     C
C       0.1043   0.7196   0.9851     C
O       0.1057   0.1691   0.1824     O
O       0.1057   0.8309   0.6824     O
H        0.108   0.2671   0.4421     H
H        0.108   0.7329   0.9421     H
C        0.118   0.4066   0.8173     C
C        0.118   0.4552    0.816     C
C        0.118   0.5448    0.316     C
C        0.118   0.5934   0.3173     C
H       0.1202   0.3159   0.9656     H
H       0.1202   0.6841   0.4656     H
O       0.1227   0.2989   0.2949     O
O       0.1227   0.7011   0.7949     O
C       0.1309   0.1541   0.4436     C
C       0.1309   0.8459   0.9436     C
C       0.1324   0.3977   0.2829     C
C       0.1324   0.6023   0.7829     C
C       0.1331   0.4436   0.2831     C
C       0.1331   0.5564   0.7831     C
H       0.1368   0.0617   0.5426     H
H       0.1368   0.9383   0.0426     H
O       0.1624   0.2681   0.1677     O
O       0.1624   0.7319   0.6677     O
C        0.169   0.2772   0.1048     C
C        0.169   0.7228   0.6048     C
C       0.1697   0.0893   0.5334     C
C       0.1697   0.9107   0.0334     C
H       0.1977   0.4715   0.8599     H
H       0.1977   0.5285   0.3599     H
Eu     0.21901  0.23008  0.28564    Eu
Eu     0.21901  0.76992  0.78564    Eu
H        0.222   0.3822   0.3051     H
H        0.222   0.6178   0.8051     H
H       0.2223   0.4593   0.3053     H
H       0.2223   0.5407   0.8053     H
C       0.2335    0.294   0.5607     C
C       0.2335    0.706   0.0607     C
C       0.2358   0.3189   0.6206     C
C       0.2358   0.6811   0.1206     C
C        0.242     0.38   0.8876     C
C        0.242     0.62   0.3876     C
H       0.2496   0.3287   0.8171     H
H       0.2496   0.6713   0.3171     H
H       0.2717   0.4186   0.9827     H
H       0.2717   0.5814   0.4827     H
C       0.2728   0.1706   0.5023     C
C       0.2728   0.8294   0.0023     C
H       0.2758   0.4749   0.6889     H
H       0.2758   0.5251   0.1889     H
H        0.278   0.4459   0.1938     H
H        0.278   0.5541   0.6938     H
H       0.2788   0.1317   0.1724     H
H       0.2788   0.8683   0.6724     H
H         0.28   0.0524   0.1664     H
H         0.28   0.9476   0.6664     H
H       0.2855   0.4045   0.6574     H
H       0.2855   0.5955   0.1574     H
C       0.2884   0.3379   0.8722     C
C       0.2884   0.6621   0.3722     C
O       0.2908   0.2763   0.1131     O
O       0.2908   0.7237   0.6131     O
C        0.301   0.3913   0.9701     C
C        0.301   0.6087   0.4701     C
H       0.3066   0.1973   0.4909     H
H       0.3066   0.8027   0.9909     H
C       0.3153   0.1068   0.5949     C
C       0.3153   0.8932   0.0949     C
H       0.3241   0.2853   0.5701     H
H       0.3241   0.7147   0.0701     H
H       0.3462   0.0168    0.626     H
H       0.3462   0.9832    0.126     H
C       0.3631   0.1477   0.5767     C
C       0.3631   0.8523   0.0767     C
C       0.3654   0.4908   0.7139     C
C       0.3654   0.5092   0.2139     C
C       0.3667   0.4619   0.2157     C
C       0.3667   0.5381   0.7157     C
C       0.3677   0.1154   0.2027     C
C       0.3677   0.8846   0.7027     C
C       0.3689   0.0682    0.201     C
C       0.3689   0.9318    0.701     C
C       0.3736   0.3887   0.6939     C
C       0.3736   0.6113   0.1939     C
C       0.3741   0.3418   0.6904     C
C       0.3741   0.6582   0.1904     C
O       0.3759   0.3647   0.2058     O
O       0.3759   0.6353   0.7058     O
C        0.389   0.3107   0.9369     C
C        0.389   0.6893   0.4369     C
O       0.3987   0.2555   0.4263     O
O       0.3987   0.7445   0.9263     O
C       0.4051   0.3622   0.0363     C
C       0.4051   0.6378   0.5363     C
C       0.4084   0.0329   0.6759     C
C       0.4084   0.9671   0.1759     C
C       0.4088   0.0817   0.6757     C
C       0.4088   0.9183   0.1757     C
O       0.4152   0.2134   0.2622     O
O       0.4152   0.7866   0.7622     O
O       0.4177   0.2953    0.339     O
O       0.4177   0.7047    0.839     O
H       0.4207   0.2836   0.9253     H
H       0.4207   0.7164   0.4253     H
H       0.4456   0.3711   0.0917     H
H       0.4456   0.6289   0.5917     H
C       0.4466   0.2883   0.4113     C
C       0.4466   0.3221   0.0208     C
C       0.4466   0.6779   0.5208     C
C       0.4466   0.7117   0.9113     C
H       0.4572   0.1593    0.616     H
H       0.4572   0.8407    0.116     H
C          0.5   0.0087     0.75     C
C          0.5    0.043     0.25     C
C          0.5   0.1051     0.75     C
H          0.5   0.1373     0.75     H
C          0.5   0.1381     0.25     C
C          0.5     0.19     0.25     C
H          0.5    0.284     0.75     H
Eu         0.5  0.29132     0.25    Eu
C          0.5   0.3162     0.75     C
C          0.5   0.3866     0.25     C
C          0.5    0.414     0.75     C
C          0.5   0.4368     0.25     C
C          0.5   0.4659     0.75     C
C          0.5   0.5341     0.25     C
C          0.5   0.5632     0.75     C
C          0.5    0.586     0.25     C
C          0.5   0.6134     0.75     C
C          0.5   0.6838     0.25     C
Eu         0.5  0.70868     0.75    Eu
H          0.5    0.716     0.25     H
C          0.5     0.81     0.75     C
C          0.5   0.8619     0.75     C
H          0.5   0.8627     0.25     H
C          0.5   0.8949     0.25     C
C          0.5    0.957     0.75     C
C          0.5   0.9913     0.25     C
H       0.5428   0.1593    0.884     H
H       0.5428   0.8407    0.384     H
C       0.5534   0.2883   0.0887     C
C       0.5534   0.3221   0.4792     C
C       0.5534   0.6779   0.9792     C
C       0.5534   0.7117   0.5887     C
H       0.5544   0.3711   0.4083     H
H       0.5544   0.6289   0.9083     H
H       0.5793   0.2836   0.5747     H
H       0.5793   0.7164   0.0747     H
O       0.5823   0.2953    0.161     O
O       0.5823   0.7047    0.661     O
O       0.5848   0.2134   0.2378     O
O       0.5848   0.7866   0.7378     O
C       0.5912   0.0817   0.8243     C
C       0.5912   0.9183   0.3243     C
C       0.5916   0.0329   0.8241     C
C       0.5916   0.9671   0.3241     C
C       0.5949   0.3622   0.4637     C
C       0.5949   0.6378   0.9637     C
O       0.6013   0.2555   0.0737     O
O       0.6013   0.7445   0.5737     O
C        0.611   0.3107   0.5631     C
C        0.611   0.6893   0.0631     C
O       0.6241   0.3647   0.2942     O
O       0.6241   0.6353   0.7942     O
C       0.6259   0.3418   0.8096     C
C       0.6259   0.6582   0.3096     C
C       0.6264   0.3887   0.8061     C
C       0.6264   0.6113   0.3061     C
C       0.6311   0.0682    0.299     C
C       0.6311   0.9318    0.799     C
C       0.6323   0.1154   0.2973     C
C       0.6323   0.8846   0.7973     C
C       0.6333   0.4619   0.2843     C
C       0.6333   0.5381   0.7843     C
C       0.6346   0.4908   0.7861     C
C       0.6346   0.5092   0.2861     C
C       0.6369   0.1477   0.9233     C
C       0.6369   0.8523   0.4233     C
H       0.6538   0.0168    0.874     H
H       0.6538   0.9832    0.374     H
H       0.6759   0.2853   0.9299     H
H       0.6759   0.7147   0.4299     H
C       0.6847   0.1068   0.9051     C
C       0.6847   0.8932   0.4051     C
H       0.6934   0.1973   0.0091     H
H       0.6934   0.8027   0.5091     H
C        0.699   0.3913   0.5299     C
C        0.699   0.6087   0.0299     C
O       0.7092   0.2763   0.3869     O
O       0.7092   0.7237   0.8869     O
C       0.7116   0.3379   0.6278     C
C       0.7116   0.6621   0.1278     C
H       0.7145   0.4045   0.8426     H
H       0.7145   0.5955   0.3426     H
H         0.72   0.0524   0.3336     H
H         0.72   0.9476   0.8336     H
H       0.7212   0.1317   0.3276     H
H       0.7212   0.8683   0.8276     H
H        0.722   0.4459   0.3062     H
H        0.722   0.5541   0.8062     H
H       0.7242   0.4749   0.8111     H
H       0.7242   0.5251   0.3111     H
C       0.7272   0.1706   0.9977     C
C       0.7272   0.8294   0.4977     C
H       0.7283   0.4186   0.5173     H
H       0.7283   0.5814   0.0173     H
H       0.7504   0.3287   0.6829     H
H       0.7504   0.6713   0.1829     H
C        0.758     0.38   0.6124     C
C        0.758     0.62   0.1124     C
C       0.7642   0.3189   0.8794     C
C       0.7642   0.6811   0.3794     C
C       0.7665    0.294   0.9393     C
C       0.7665    0.706   0.4393     C
H       0.7777   0.4593   0.1947     H
H       0.7777   0.5407   0.6947     H
H        0.778   0.3822   0.1949     H
H        0.778   0.6178   0.6949     H
Eu     0.78099  0.23008  0.21436    Eu
Eu     0.78099  0.76992  0.71436    Eu
H       0.8023   0.4715   0.6401     H
H       0.8023   0.5285   0.1401     H
C       0.8303   0.0893   0.9666     C
C       0.8303   0.9107   0.4666     C
C        0.831   0.2772   0.3952     C
C        0.831   0.7228   0.8952     C
O       0.8376   0.2681   0.3323     O
O       0.8376   0.7319   0.8323     O
H       0.8632   0.0617   0.9574     H
H       0.8632   0.9383   0.4574     H
C       0.8669   0.4436   0.2169     C
C       0.8669   0.5564   0.7169     C
C       0.8676   0.3977   0.2171     C
C       0.8676   0.6023   0.7171     C
C       0.8691   0.1541   0.0564     C
C       0.8691   0.8459   0.5564     C
O       0.8773   0.2989   0.2051     O
O       0.8773   0.7011   0.7051     O
H       0.8798   0.3159   0.5344     H
H       0.8798   0.6841   0.0344     H
C        0.882   0.4066   0.6827     C
C        0.882   0.4552    0.684     C
C        0.882   0.5448    0.184     C
C        0.882   0.5934   0.1827     C
H        0.892   0.2671   0.0579     H
H        0.892   0.7329   0.5579     H
O       0.8943   0.1691   0.3176     O
O       0.8943   0.8309   0.8176     O
C       0.8957   0.2804   0.0149     C
C       0.8957   0.7196   0.5149     C
C        0.901    0.324    0.891     C
C        0.901    0.676    0.391     C
H       0.9038    0.338   0.8481     H
H       0.9038    0.662   0.3481     H
O       0.9201   0.2118   0.1618     O
O       0.9201   0.7882   0.6618     O
C        0.921   0.1144   0.0399     C
C        0.921   0.8856   0.5399     C
C        0.968   0.1803   0.1386     C
C        0.968   0.8197   0.6386     C
C       0.9689   0.3102   0.5396     C
C       0.9689   0.6898   0.0396     C
C       0.9696   0.2875   0.4767     C
C       0.9696   0.7125   0.9767     C
H       0.9821   0.1046   0.4216     H
H       0.9821   0.8954   0.9216     H
