data_I
_chemical_name_common  '/home/zhangsd/repos/MofS-CGCNN/ML/data/SSD/clean_cifs/IGUTUB_clean'
_cell_length_a  9.70550
_cell_length_b 17.84980
_cell_length_c 14.78450
_cell_angle_alpha 90.00000
_cell_angle_beta  94.74850
_cell_angle_gamma 90.00000
_space_group_name_H-M_alt      'P 1'


loop_
_space_group_symop_operation_xyz
  'x, y, z' 

loop_
_atom_site_label
_atom_site_fract_x
_atom_site_fract_y
_atom_site_fract_z
_atom_site_type_symbol
N       0.0071  0.66497   0.4491     N
N       0.0071  0.83503   0.9491     N
C       0.0088   0.1776   0.1398     C
C       0.0088   0.3224   0.6398     C
H       0.0443   0.7393   0.2546     H
H       0.0443   0.7607   0.7546     H
C       0.0607   0.7326    0.317     C
C       0.0607   0.7674    0.817     C
O       0.0656  0.53612   0.5969     O
O       0.0656  0.96388   0.0969     O
H       0.0705   0.1475   0.1749     H
H       0.0705   0.3525   0.6749     H
H       0.0797   0.6301   0.7291     H
H       0.0797   0.8699   0.2291     H
C       0.0991    0.708   0.4965     C
C       0.0991    0.792   0.9965     C
H       0.1142   0.7002   0.5587     H
H       0.1142   0.7998   0.0587     H
Cd     0.13167  0.08159  0.98074    Cd
Cd     0.13167  0.41841  0.48074    Cd
H       0.1528   0.0095    0.785     H
H       0.1528   0.4905    0.285     H
C       0.1543   0.7226    0.866     C
C       0.1543   0.7774    0.366     C
O       0.1603  0.16233  0.85346     O
O       0.1603  0.33767  0.35346     O
C       0.1704     0.62   0.7509     C
C       0.1704     0.88   0.2509     C
C       0.1728   0.7364   0.9576     C
C       0.1728   0.7636   0.4576     C
C       0.1755  0.51532   0.6368     C
C       0.1755  0.98468   0.1368     C
C       0.2214   0.5195   0.3155     C
C       0.2214   0.9805   0.8155     C
C       0.2325   0.6628   0.8224     C
C       0.2325   0.8372   0.3224     C
H       0.2358   0.7078   0.9938     H
H       0.2358   0.7922   0.4938     H
O       0.2381  0.04214  0.11562     O
O       0.2381  0.45786  0.61562     O
H       0.2409   0.2341   0.7217     H
H       0.2409   0.2659   0.2217     H
C       0.2419   0.5627   0.7121     C
C       0.2419   0.9373   0.2121     C
N       0.2464  0.50998   0.4051     N
N       0.2464  0.99002   0.9051     N
H       0.2695   0.5741    0.204     H
H       0.2695   0.9259    0.704     H
C       0.2736   0.1843   0.8903     C
C       0.2736   0.3157   0.3903     C
C       0.2913   0.5697   0.2662     C
C       0.2913   0.9303   0.7662     C
O       0.3162   0.1664   0.9694     O
O       0.3162   0.3336   0.4694     O
C       0.3219   0.2459   0.2499     C
C       0.3219   0.2541   0.7499     C
C       0.3466   0.5521   0.4456     C
C       0.3466   0.9479   0.9456     C
H       0.3528   0.6713    0.144     H
H       0.3528   0.8287    0.644     H
C       0.3623   0.2346   0.8379     C
C       0.3623   0.2654   0.3379     C
H       0.3674    0.546   0.5077     H
H       0.3674    0.954   0.0077     H
H       0.3681   0.1836   0.1437     H
H       0.3681   0.3164   0.6437     H
C       0.3696   0.6486   0.8519     C
C       0.3696   0.8514   0.3519     C
C       0.3789   0.5489   0.7434     C
C       0.3789   0.9511   0.2434     C
C       0.3954   0.6141   0.3093     C
C       0.3954   0.8859   0.8093     C
C       0.3993   0.1971   0.2027     C
C       0.3993   0.3029   0.7027     C
H       0.4126   0.6767   0.8991     H
H       0.4126   0.8233   0.3991     H
C       0.4206   0.6036   0.4017     C
C       0.4206   0.8964   0.9017     C
H       0.4275   0.5101   0.7185     H
H       0.4275   0.9899   0.2185     H
C       0.4353   0.6899   0.1718     C
C       0.4353   0.8101   0.6718     C
C       0.4423   0.5932   0.8118     C
C       0.4423   0.9068   0.3118     C
H       0.4651   0.0854   0.6691     H
H       0.4651   0.4146   0.1691     H
C       0.4771   0.6675   0.2588     C
C       0.4771   0.8325   0.7588     C
H       0.4785   0.7452    0.567     H
H       0.4785   0.7548    0.067     H
C       0.4881   0.2391   0.3753     C
C       0.4881   0.2609   0.8753     C
H       0.4884   0.6317   0.4342     H
H       0.4884   0.8683   0.9342     H
H       0.5116   0.1317   0.0658     H
H       0.5116   0.3683   0.5658     H
C       0.5119   0.7391   0.1247     C
C       0.5119   0.7609   0.6247     C
H       0.5215   0.2452    0.933     H
H       0.5215   0.2548    0.433     H
C       0.5229   0.1675   0.2412     C
C       0.5229   0.3325   0.7412     C
H       0.5349   0.5854   0.8309     H
H       0.5349   0.9146   0.3309     H
C       0.5577   0.0932   0.6882     C
C       0.5577   0.4068   0.1882     C
C       0.5647   0.1899   0.3282     C
C       0.5647   0.3101   0.8282     C
H       0.5725   0.0101   0.7815     H
H       0.5725   0.4899   0.2815     H
C       0.5794   0.1036   0.0983     C
C       0.5794   0.3964   0.5983     C
H       0.5874   0.1767   0.6009     H
H       0.5874   0.3233   0.1009     H
C       0.6007   0.6971   0.2973     C
C       0.6007   0.8029   0.7973     C
C       0.6046   0.1141   0.1907     C
C       0.6046   0.3859   0.6907     C
C       0.6211   0.0489   0.7566     C
C       0.6211   0.4511   0.2566     C
C       0.6304   0.1486   0.6481     C
C       0.6304   0.3514   0.1481     C
H       0.6319   0.6836   0.3563     H
H       0.6319   0.8164   0.8563     H
H       0.6326    0.046   0.9923     H
H       0.6326    0.454   0.4923     H
C       0.6377   0.7346   0.6621     C
C       0.6377   0.7654   0.1621     C
H       0.6472   0.1713    0.356     H
H       0.6472   0.3287    0.856     H
C       0.6534   0.0521   0.0544     C
C       0.6534   0.4479   0.5544     C
C       0.6781   0.7459   0.2501     C
C       0.6781   0.7541   0.7501     C
O       0.6838   0.6664   0.5306     O
O       0.6838   0.8336   0.0306     O
C       0.7087   0.0697   0.2338     C
C       0.7087   0.4303   0.7338     C
C       0.7264   0.6843   0.6097     C
C       0.7264   0.8157   0.1097     C
H       0.7305   0.0741    0.296     H
H       0.7305   0.4259    0.796     H
N       0.7536  0.00998   0.0949     N
N       0.7536  0.49002   0.5949     N
C       0.7581   0.0627   0.7879     C
C       0.7581   0.4373   0.2879     C
H       0.7591   0.7341   0.7783     H
H       0.7591   0.7659   0.2783     H
O       0.7619  0.54214  0.38438     O
O       0.7619  0.95786  0.88438     O
H       0.7642   0.2078   0.5062     H
H       0.7642   0.2922   0.0062     H
C       0.7675   0.1628   0.6776     C
C       0.7675   0.3372   0.1776     C
C       0.7786   0.0195   0.1845     C
C       0.7786   0.4805   0.6845     C
C       0.8245  0.01532   0.8632     C
C       0.8245  0.48468   0.3632     C
C       0.8272   0.2364   0.5424     C
C       0.8272   0.2636   0.0424     C
C       0.8296     0.12   0.7491     C
C       0.8296     0.38   0.2491     C
O       0.8397  0.66233  0.64654     O
O       0.8397  0.83767  0.14654     O
C       0.8457   0.2226    0.634     C
C       0.8457   0.2774    0.134     C
H       0.8472   0.5095    0.715     H
H       0.8472   0.9905    0.215     H
Cd     0.86833  0.58159  0.51926    Cd
Cd     0.86833  0.91841  0.01926    Cd
H       0.8858   0.2002   0.9413     H
H       0.8858   0.2998   0.4413     H
C       0.9009    0.208   0.0035     C
C       0.9009    0.292   0.5035     C
H       0.9203   0.1301   0.7709     H
H       0.9203   0.3699   0.2709     H
H       0.9295   0.6475   0.3251     H
H       0.9295   0.8525   0.8251     H
O       0.9344  0.03612   0.9031     O
O       0.9344  0.46388   0.4031     O
C       0.9393   0.2326    0.183     C
C       0.9393   0.2674    0.683     C
H       0.9557   0.2393   0.2454     H
H       0.9557   0.2607   0.7454     H
C       0.9912   0.6776   0.3602     C
C       0.9912   0.8224   0.8602     C
N       0.9929  0.16497   0.0509     N
N       0.9929  0.33503   0.5509     N
