data_I
_chemical_name_common  '/home/zhangsd/repos/MofS-CGCNN/ML/data/SSD/clean_cifs/IHOTEG_clean'
_cell_length_a 23.19300
_cell_length_b 23.19300
_cell_length_c 12.06900
_cell_angle_alpha 90.00000
_cell_angle_beta  90.00000
_cell_angle_gamma 90.00000
_space_group_name_H-M_alt      'P 1'


loop_
_space_group_symop_operation_xyz
  'x, y, z' 

loop_
_atom_site_label
_atom_site_fract_x
_atom_site_fract_y
_atom_site_fract_z
_atom_site_type_symbol
Mg         0.0      0.0      0.0    Mg
Mg         0.0      0.5      0.0    Mg
O       0.0008   0.4249   0.9131     O
O       0.0008   0.9249   0.0869     O
H       0.0091   0.0487   0.3341     H
H       0.0091   0.5487   0.6659     H
H       0.0157   0.4945   0.2424     H
H       0.0157   0.9945   0.7576     H
C       0.0174   0.0143   0.2898     C
C       0.0174   0.5143   0.7102     C
H        0.019   0.3319   0.8285     H
H        0.019   0.8319   0.1715     H
H       0.0203   0.3893   0.1231     H
H       0.0203   0.8893   0.8769     H
C       0.0223   0.1607   0.8195     C
C       0.0223   0.6607   0.1805     C
H       0.0249   0.4816   0.6609     H
H       0.0249   0.9816   0.3391     H
H       0.0309   0.1542    0.741     H
H       0.0309   0.6542    0.259     H
C       0.0387   0.1085   0.8846     C
C       0.0387   0.6085   0.1154     C
H       0.0443    0.194   0.8463     H
H       0.0443    0.694   0.1537     H
H        0.056   0.2943   0.4037     H
H        0.056   0.7943   0.5963     H
C         0.06   0.3784   0.1413     C
C         0.06   0.8784   0.8587     C
O      0.06059    0.033   0.1153     O
O      0.06059    0.533   0.8847     O
H       0.0622   0.3669   0.2194     H
H       0.0622   0.8669   0.7806     H
C       0.0686   0.0249   0.2201     C
C       0.0686   0.5249   0.7799     C
H        0.072   0.3461   0.0944     H
H        0.072   0.8461   0.9056     H
O        0.079   0.4756    0.078     O
O        0.079   0.9756    0.922     O
H       0.0819    0.231   0.4215     H
H       0.0819    0.731   0.5785     H
C       0.0893   0.2723   0.4305     C
C       0.0893   0.7723   0.5695     C
O       0.0907    0.103   0.9088     O
O       0.0907    0.603   0.0912     O
H       0.0958   0.2809    0.509     H
H       0.0958   0.7809    0.491     H
H       0.0961    0.178   0.1556     H
H       0.0961    0.678   0.8444     H
C       0.0999   0.4297   0.1212     C
C       0.0999   0.9297   0.8788     C
H       0.1005   0.0112   0.5626     H
H       0.1005   0.5112   0.4374     H
H       0.1063   0.4688   0.3333     H
H       0.1063   0.9688   0.6667     H
H       0.1106   0.4436   0.4565     H
H       0.1106   0.9436   0.5435     H
O       0.1161   0.0266    0.265     O
O       0.1161   0.5266    0.735     O
H       0.1169   0.1878   0.0306     H
H       0.1169   0.6878   0.9694     H
C       0.1197   0.4766   0.4089     C
C       0.1197   0.9766   0.5911     C
C       0.1284     0.19   0.1087     C
C       0.1284     0.69   0.8913     C
Mg     0.12983  0.04234   0.0001    Mg
Mg     0.12983  0.54234   0.9999    Mg
H       0.1393   0.2297   0.1269     H
H       0.1393   0.7297   0.8731     H
C       0.1415   0.2887   0.3654     C
C       0.1415   0.7887   0.6346     C
O        0.147   0.3407   0.3412     O
O        0.147   0.8407   0.6588     O
O      0.15176  0.42414   0.1423     O
O      0.15176  0.92414   0.8577     O
H        0.154     0.46    0.918     H
H        0.154     0.96    0.082     H
O       0.1732   0.4793   0.9222     O
O       0.1732   0.9793   0.0778     O
O      0.17414  0.09824   0.1077     O
O      0.17414  0.59824   0.8923     O
O       0.1749   0.2492   0.3369     O
O       0.1749   0.7492   0.6631     O
C       0.1797   0.1501   0.1288     C
C       0.1797   0.6501   0.8712     C
C       0.1822   0.4858   0.4078     C
C       0.1822   0.9858   0.5922     C
H       0.1936   0.1394   0.7935     H
H       0.1936   0.6394   0.2065     H
O          0.2   0.0279   0.5407     O
O          0.2   0.5279   0.4593     O
H       0.2013   0.2591   0.9159     H
H       0.2013   0.7591   0.0841     H
Mg     0.20134  0.02393   0.2104    Mg
Mg     0.20134  0.52393   0.7896    Mg
O      0.20407  0.03576   0.9006     O
O      0.20407  0.53576   0.0994     O
Mg     0.20766  0.37983   0.2499    Mg
Mg     0.20766  0.87983   0.7501    Mg
H         0.21    0.096    0.332     H
H         0.21    0.596    0.668     H
O      0.21424  0.45407   0.3494     O
O      0.21424  0.95407   0.6506     O
O        0.217  0.31059   0.1347     O
O        0.217  0.81059   0.8653     O
H       0.2188   0.1437   0.9167     H
H       0.2188   0.6437   0.0833     H
O       0.2221     0.45   0.7093     O
O       0.2221     0.95   0.2907     O
O       0.2234   0.3661    0.985     O
O       0.2234   0.8661    0.015     O
C       0.2251   0.3186   0.0299     C
C       0.2251   0.8186   0.9701     C
O       0.2256    0.171    0.172     O
O       0.2256    0.671    0.828     O
Mg     0.22607  0.45134   0.0396    Mg
Mg     0.22607  0.95134   0.9604    Mg
C       0.2266   0.1303   0.8411     C
C       0.2266   0.6303   0.1589     C
O       0.2293   0.0768   0.3278     O
O       0.2293   0.5768   0.6722     O
H       0.2316   0.2251   0.5891     H
H       0.2316   0.7251   0.4109     H
C       0.2357   0.2674   0.9602     C
C       0.2357   0.7674   0.0398     C
C       0.2358   0.0678   0.8422     C
C       0.2358   0.5678   0.1578     C
H       0.2388   0.3505   0.6874     H
H       0.2388   0.8505   0.3126     H
H       0.2445   0.2343   0.0076     H
H       0.2445   0.7343   0.9924     H
Mg        0.25     0.25     0.25    Mg
Mg        0.25     0.75     0.75    Mg
H       0.2555   0.2657   0.4924     H
H       0.2555   0.7657   0.5076     H
H       0.2612   0.1495   0.8126     H
H       0.2612   0.6495   0.1874     H
C       0.2642   0.4322   0.6578     C
C       0.2642   0.9322   0.3422     C
C       0.2643   0.2326   0.5398     C
C       0.2643   0.7326   0.4602     C
H       0.2684   0.2749   0.9109     H
H       0.2684   0.7749   0.0891     H
O       0.2707   0.4232   0.1722     O
O       0.2707   0.9232   0.8278     O
C       0.2734   0.3697   0.6589     C
C       0.2734   0.8697   0.3411     C
Mg     0.27393  0.04866   0.4604    Mg
Mg     0.27393  0.54866   0.5396    Mg
O       0.2744    0.329    0.328     O
O       0.2744    0.829    0.672     O
C       0.2749   0.1814   0.4701     C
C       0.2749   0.6814   0.5299     C
O       0.2766   0.1339    0.515     O
O       0.2766   0.6339    0.485     O
O       0.2779     0.05   0.7907     O
O       0.2779     0.55   0.2093     O
H       0.2812   0.3563   0.5833     H
H       0.2812   0.8563   0.4167     H
O        0.283  0.18941   0.3653     O
O        0.283  0.68941   0.6347     O
O      0.28576  0.04593   0.1506     O
O      0.28576  0.54593   0.8494     O
H         0.29    0.404    0.168     H
H         0.29    0.904    0.832     H
Mg     0.29234  0.12017   0.2501    Mg
Mg     0.29234  0.62017   0.7499    Mg
O      0.29593  0.46424   0.5994     O
O      0.29593  0.96424   0.4006     O
Mg     0.29866  0.47607   0.2896    Mg
Mg     0.29866  0.97607   0.7104    Mg
H       0.2987   0.2409   0.5841     H
H       0.2987   0.7409   0.4159     H
O          0.3   0.4721   0.9593     O
O          0.3   0.9721   0.0407     O
H       0.3064   0.3606   0.7065     H
H       0.3064   0.8606   0.2935     H
C       0.3178   0.0142   0.0922     C
C       0.3178   0.5142   0.9078     C
C       0.3203   0.3499   0.3712     C
C       0.3203   0.8499   0.6288     C
O       0.3251   0.2508   0.1631     O
O       0.3251   0.7508   0.8369     O
O      0.32586  0.40176   0.3923     O
O      0.32586  0.90176   0.6077     O
O       0.3268   0.0207   0.5778     O
O       0.3268   0.5207   0.4222     O
H        0.346     0.04    0.582     H
H        0.346     0.54    0.418     H
O      0.34824  0.07586   0.3577     O
O      0.34824  0.57586   0.6423     O
O        0.353   0.1593   0.1588     O
O        0.353   0.6593   0.8412     O
C       0.3585   0.2113   0.1346     C
C       0.3585   0.7113   0.8654     C
H       0.3607   0.2703   0.3731     H
H       0.3607   0.7703   0.6269     H
Mg     0.37017  0.45766   0.4999    Mg
Mg     0.37017  0.95766   0.5001    Mg
C       0.3716     0.31   0.3913     C
C       0.3716     0.81   0.6087     C
C       0.3803   0.0234   0.0911     C
C       0.3803   0.5234   0.9089     C
H       0.3831   0.3122   0.4694     H
H       0.3831   0.8122   0.5306     H
O       0.3839   0.4734    0.235     O
O       0.3839   0.9734    0.765     O
H       0.3894   0.0564   0.0435     H
H       0.3894   0.5564   0.9565     H
H       0.3937   0.0312   0.1667     H
H       0.3937   0.5312   0.8333     H
H       0.3995   0.4888   0.9374     H
H       0.3995   0.9888   0.0626     H
C       0.4001   0.0703   0.3788     C
C       0.4001   0.5703   0.6212     C
H       0.4039    0.322   0.3444     H
H       0.4039    0.822   0.6556     H
H       0.4042   0.2191    0.991     H
H       0.4042   0.7191    0.009     H
O       0.4093    0.397   0.5912     O
O       0.4093    0.897   0.4088     O
C       0.4107   0.2277   0.0695     C
C       0.4107   0.7277   0.9305     C
H       0.4181    0.269   0.0785     H
H       0.4181    0.769   0.9215     H
O        0.421   0.0244    0.422     O
O        0.421   0.5244    0.578     O
H        0.428   0.1539   0.4056     H
H        0.428   0.6539   0.5944     H
C       0.4314   0.4751   0.2799     C
C       0.4314   0.9751   0.7201     C
H       0.4378   0.1331   0.2806     H
H       0.4378   0.6331   0.7194     H
O      0.43941    0.467   0.3847     O
O      0.43941    0.967   0.6153     O
C         0.44   0.1216   0.3587     C
C         0.44   0.6216   0.6413     C
H        0.444   0.2057   0.0963     H
H        0.444   0.7057   0.9037     H
H       0.4557    0.306   0.6537     H
H       0.4557    0.806   0.3463     H
C       0.4613   0.3915   0.6154     C
C       0.4613   0.8915   0.3846     C
H       0.4691   0.3458    0.759     H
H       0.4691   0.8458    0.241     H
H       0.4751   0.0184   0.8391     H
H       0.4751   0.5184   0.1609     H
C       0.4777   0.3393   0.6805     C
C       0.4777   0.8393   0.3195     C
H       0.4797   0.1107   0.3769     H
H       0.4797   0.6107   0.6231     H
H        0.481   0.1681   0.6715     H
H        0.481   0.6681   0.3285     H
C       0.4826   0.4857   0.2102     C
C       0.4826   0.9857   0.7898     C
H       0.4843   0.0055   0.2576     H
H       0.4843   0.5055   0.7424     H
H       0.4909   0.4513   0.1659     H
H       0.4909   0.9513   0.8341     H
O       0.4992   0.0751   0.5869     O
O       0.4992   0.5751   0.4131     O
Mg         0.5      0.0      0.5    Mg
Mg         0.5      0.5      0.5    Mg
O       0.5008   0.4249   0.5869     O
O       0.5008   0.9249   0.4131     O
H       0.5091   0.0487   0.1659     H
H       0.5091   0.5487   0.8341     H
H       0.5157   0.4945   0.2576     H
H       0.5157   0.9945   0.7424     H
C       0.5174   0.0143   0.2102     C
C       0.5174   0.5143   0.7898     C
H        0.519   0.3319   0.6715     H
H        0.519   0.8319   0.3285     H
H       0.5203   0.3893   0.3769     H
H       0.5203   0.8893   0.6231     H
C       0.5223   0.1607   0.6805     C
C       0.5223   0.6607   0.3195     C
H       0.5249   0.4816   0.8391     H
H       0.5249   0.9816   0.1609     H
H       0.5309   0.1542    0.759     H
H       0.5309   0.6542    0.241     H
C       0.5387   0.1085   0.6154     C
C       0.5387   0.6085   0.3846     C
H       0.5443    0.194   0.6537     H
H       0.5443    0.694   0.3463     H
H        0.556   0.2943   0.0963     H
H        0.556   0.7943   0.9037     H
C         0.56   0.3784   0.3587     C
C         0.56   0.8784   0.6413     C
O      0.56059    0.033   0.3847     O
O      0.56059    0.533   0.6153     O
H       0.5622   0.3669   0.2806     H
H       0.5622   0.8669   0.7194     H
C       0.5686   0.0249   0.2799     C
C       0.5686   0.5249   0.7201     C
H        0.572   0.3461   0.4056     H
H        0.572   0.8461   0.5944     H
O        0.579   0.4756    0.422     O
O        0.579   0.9756    0.578     O
H       0.5819    0.231   0.0785     H
H       0.5819    0.731   0.9215     H
C       0.5893   0.2723   0.0695     C
C       0.5893   0.7723   0.9305     C
O       0.5907    0.103   0.5912     O
O       0.5907    0.603   0.4088     O
H       0.5958   0.2809    0.991     H
H       0.5958   0.7809    0.009     H
H       0.5961    0.178   0.3444     H
H       0.5961    0.678   0.6556     H
C       0.5999   0.4297   0.3788     C
C       0.5999   0.9297   0.6212     C
H       0.6005   0.0112   0.9374     H
H       0.6005   0.5112   0.0626     H
H       0.6063   0.4688   0.1667     H
H       0.6063   0.9688   0.8333     H
H       0.6106   0.4436   0.0435     H
H       0.6106   0.9436   0.9565     H
O       0.6161   0.0266    0.235     O
O       0.6161   0.5266    0.765     O
H       0.6169   0.1878   0.4694     H
H       0.6169   0.6878   0.5306     H
C       0.6197   0.4766   0.0911     C
C       0.6197   0.9766   0.9089     C
C       0.6284     0.19   0.3913     C
C       0.6284     0.69   0.6087     C
Mg     0.62983  0.04234   0.4999    Mg
Mg     0.62983  0.54234   0.5001    Mg
H       0.6393   0.2297   0.3731     H
H       0.6393   0.7297   0.6269     H
C       0.6415   0.2887   0.1346     C
C       0.6415   0.7887   0.8654     C
O        0.647   0.3407   0.1588     O
O        0.647   0.8407   0.8412     O
O      0.65176  0.42414   0.3577     O
O      0.65176  0.92414   0.6423     O
H        0.654     0.46    0.582     H
H        0.654     0.96    0.418     H
O       0.6732   0.4793   0.5778     O
O       0.6732   0.9793   0.4222     O
O      0.67414  0.09824   0.3923     O
O      0.67414  0.59824   0.6077     O
O       0.6749   0.2492   0.1631     O
O       0.6749   0.7492   0.8369     O
C       0.6797   0.1501   0.3712     C
C       0.6797   0.6501   0.6288     C
C       0.6822   0.4858   0.0922     C
C       0.6822   0.9858   0.9078     C
H       0.6936   0.1394   0.7065     H
H       0.6936   0.6394   0.2935     H
O          0.7   0.0279   0.9593     O
O          0.7   0.5279   0.0407     O
H       0.7013   0.2591   0.5841     H
H       0.7013   0.7591   0.4159     H
Mg     0.70134  0.02393   0.2896    Mg
Mg     0.70134  0.52393   0.7104    Mg
O      0.70407  0.03576   0.5994     O
O      0.70407  0.53576   0.4006     O
Mg     0.70766  0.37983   0.2501    Mg
Mg     0.70766  0.87983   0.7499    Mg
H         0.71    0.096    0.168     H
H         0.71    0.596    0.832     H
O      0.71424  0.45407   0.1506     O
O      0.71424  0.95407   0.8494     O
O        0.717  0.31059   0.3653     O
O        0.717  0.81059   0.6347     O
H       0.7188   0.1437   0.5833     H
H       0.7188   0.6437   0.4167     H
O       0.7221     0.45   0.7907     O
O       0.7221     0.95   0.2093     O
O       0.7234   0.3661    0.515     O
O       0.7234   0.8661    0.485     O
C       0.7251   0.3186   0.4701     C
C       0.7251   0.8186   0.5299     C
O       0.7256    0.171    0.328     O
O       0.7256    0.671    0.672     O
Mg     0.72607  0.45134   0.4604    Mg
Mg     0.72607  0.95134   0.5396    Mg
C       0.7266   0.1303   0.6589     C
C       0.7266   0.6303   0.3411     C
O       0.7293   0.0768   0.1722     O
O       0.7293   0.5768   0.8278     O
H       0.7316   0.2251   0.9109     H
H       0.7316   0.7251   0.0891     H
C       0.7357   0.2674   0.5398     C
C       0.7357   0.7674   0.4602     C
C       0.7358   0.0678   0.6578     C
C       0.7358   0.5678   0.3422     C
H       0.7388   0.3505   0.8126     H
H       0.7388   0.8505   0.1874     H
H       0.7445   0.2343   0.4924     H
H       0.7445   0.7343   0.5076     H
Mg        0.75     0.25     0.25    Mg
Mg        0.75     0.75     0.75    Mg
H       0.7555   0.2657   0.0076     H
H       0.7555   0.7657   0.9924     H
H       0.7612   0.1495   0.6874     H
H       0.7612   0.6495   0.3126     H
C       0.7642   0.4322   0.8422     C
C       0.7642   0.9322   0.1578     C
C       0.7643   0.2326   0.9602     C
C       0.7643   0.7326   0.0398     C
H       0.7684   0.2749   0.5891     H
H       0.7684   0.7749   0.4109     H
O       0.7707   0.4232   0.3278     O
O       0.7707   0.9232   0.6722     O
C       0.7734   0.3697   0.8411     C
C       0.7734   0.8697   0.1589     C
Mg     0.77393  0.04866   0.0396    Mg
Mg     0.77393  0.54866   0.9604    Mg
O       0.7744    0.329    0.172     O
O       0.7744    0.829    0.828     O
C       0.7749   0.1814   0.0299     C
C       0.7749   0.6814   0.9701     C
O       0.7766   0.1339    0.985     O
O       0.7766   0.6339    0.015     O
O       0.7779     0.05   0.7093     O
O       0.7779     0.55   0.2907     O
H       0.7812   0.3563   0.9167     H
H       0.7812   0.8563   0.0833     H
O        0.783  0.18941   0.1347     O
O        0.783  0.68941   0.8653     O
O      0.78576  0.04593   0.3494     O
O      0.78576  0.54593   0.6506     O
H         0.79    0.404    0.332     H
H         0.79    0.904    0.668     H
Mg     0.79234  0.12017   0.2499    Mg
Mg     0.79234  0.62017   0.7501    Mg
O      0.79593  0.46424   0.9006     O
O      0.79593  0.96424   0.0994     O
Mg     0.79866  0.47607   0.2104    Mg
Mg     0.79866  0.97607   0.7896    Mg
H       0.7987   0.2409   0.9159     H
H       0.7987   0.7409   0.0841     H
O          0.8   0.4721   0.5407     O
O          0.8   0.9721   0.4593     O
H       0.8064   0.3606   0.7935     H
H       0.8064   0.8606   0.2065     H
C       0.8178   0.0142   0.4078     C
C       0.8178   0.5142   0.5922     C
C       0.8203   0.3499   0.1288     C
C       0.8203   0.8499   0.8712     C
O       0.8251   0.2508   0.3369     O
O       0.8251   0.7508   0.6631     O
O      0.82586  0.40176   0.1077     O
O      0.82586  0.90176   0.8923     O
O       0.8268   0.0207   0.9222     O
O       0.8268   0.5207   0.0778     O
H        0.846     0.04    0.918     H
H        0.846     0.54    0.082     H
O      0.84824  0.07586   0.1423     O
O      0.84824  0.57586   0.8577     O
O        0.853   0.1593   0.3412     O
O        0.853   0.6593   0.6588     O
C       0.8585   0.2113   0.3654     C
C       0.8585   0.7113   0.6346     C
H       0.8607   0.2703   0.1269     H
H       0.8607   0.7703   0.8731     H
Mg     0.87017  0.45766   0.0001    Mg
Mg     0.87017  0.95766   0.9999    Mg
C       0.8716     0.31   0.1087     C
C       0.8716     0.81   0.8913     C
C       0.8803   0.0234   0.4089     C
C       0.8803   0.5234   0.5911     C
H       0.8831   0.3122   0.0306     H
H       0.8831   0.8122   0.9694     H
O       0.8839   0.4734    0.265     O
O       0.8839   0.9734    0.735     O
H       0.8894   0.0564   0.4565     H
H       0.8894   0.5564   0.5435     H
H       0.8937   0.0312   0.3333     H
H       0.8937   0.5312   0.6667     H
H       0.8995   0.4888   0.5626     H
H       0.8995   0.9888   0.4374     H
C       0.9001   0.0703   0.1212     C
C       0.9001   0.5703   0.8788     C
H       0.9039    0.322   0.1556     H
H       0.9039    0.822   0.8444     H
H       0.9042   0.2191    0.509     H
H       0.9042   0.7191    0.491     H
O       0.9093    0.397   0.9088     O
O       0.9093    0.897   0.0912     O
C       0.9107   0.2277   0.4305     C
C       0.9107   0.7277   0.5695     C
H       0.9181    0.269   0.4215     H
H       0.9181    0.769   0.5785     H
O        0.921   0.0244    0.078     O
O        0.921   0.5244    0.922     O
H        0.928   0.1539   0.0944     H
H        0.928   0.6539   0.9056     H
C       0.9314   0.4751   0.2201     C
C       0.9314   0.9751   0.7799     C
H       0.9378   0.1331   0.2194     H
H       0.9378   0.6331   0.7806     H
O      0.93941    0.467   0.1153     O
O      0.93941    0.967   0.8847     O
C         0.94   0.1216   0.1413     C
C         0.94   0.6216   0.8587     C
H        0.944   0.2057   0.4037     H
H        0.944   0.7057   0.5963     H
H       0.9557    0.306   0.8463     H
H       0.9557    0.806   0.1537     H
C       0.9613   0.3915   0.8846     C
C       0.9613   0.8915   0.1154     C
H       0.9691   0.3458    0.741     H
H       0.9691   0.8458    0.259     H
H       0.9751   0.0184   0.6609     H
H       0.9751   0.5184   0.3391     H
C       0.9777   0.3393   0.8195     C
C       0.9777   0.8393   0.1805     C
H       0.9797   0.1107   0.1231     H
H       0.9797   0.6107   0.8769     H
H        0.981   0.1681   0.8285     H
H        0.981   0.6681   0.1715     H
C       0.9826   0.4857   0.2898     C
C       0.9826   0.9857   0.7102     C
H       0.9843   0.0055   0.2424     H
H       0.9843   0.5055   0.7576     H
H       0.9909   0.4513   0.3341     H
H       0.9909   0.9513   0.6659     H
O       0.9992   0.0751   0.9131     O
O       0.9992   0.5751   0.0869     O
