data_I
_chemical_name_common  '/home/zhangsd/repos/MofS-CGCNN/ML/data/SSD/clean_cifs/IJASES01_clean'
_cell_length_a  8.65140
_cell_length_b 10.15310
_cell_length_c 11.17030
_cell_angle_alpha 65.43700
_cell_angle_beta  71.66600
_cell_angle_gamma 78.42100
_space_group_name_H-M_alt      'P 1'


loop_
_space_group_symop_operation_xyz
  'x, y, z' 

loop_
_atom_site_label
_atom_site_fract_x
_atom_site_fract_y
_atom_site_fract_z
_atom_site_type_symbol
C        0.012   0.0165   0.3681     C
H       0.0207   0.0271   0.2795     H
C       0.0339    0.114   0.5236     C
O       0.0377   0.3657   0.4811     O
C       0.0449   0.1308    0.392     C
O       0.0645   0.4764   0.1749     O
C       0.0701   0.2339   0.5524     C
H       0.0741   0.2179   0.3199     H
O        0.132   0.2006     0.65     O
Tm     0.13211  0.44027  0.65278    Tm
O       0.1567   0.6187   0.2363     O
O       0.1787   0.2656   0.8685     O
C       0.1798   0.5385   0.1691     C
H       0.2303   0.0702   0.0811     H
H       0.2868   0.3817   0.0153     H
C       0.3258   0.2314   0.8209     C
C       0.3393   0.0422   0.0481     C
C       0.3458   0.5171   0.0826     C
H       0.3664   0.8882   0.2269     H
C       0.3721   0.4292   0.0091     C
O       0.3978   0.2989   0.6961     O
C       0.4181   0.1118    0.911     C
C       0.4207   0.9326   0.1356     C
H       0.4561   0.6455   0.1231     H
C       0.4739   0.5871   0.0734     C
C       0.5261   0.4129   0.9266     C
H       0.5439   0.3545   0.8769     H
C       0.5793   0.0674   0.8644     C
C       0.5819   0.8882    0.089     C
O       0.6022   0.7011   0.3039     O
C       0.6279   0.5708   0.9909     C
H       0.6336   0.1118   0.7731     H
C       0.6542   0.4829   0.9174     C
C       0.6607   0.9578   0.9519     C
C       0.6742   0.7686   0.1791     C
H       0.7132   0.6183   0.9847     H
H       0.7697   0.9298   0.9189     H
C       0.8202   0.4615   0.8309     C
O       0.8213   0.7344   0.1315     O
O       0.8433   0.3813   0.7637     O
Tm     0.86789  0.55973  0.34722    Tm
O        0.868   0.7994     0.35     O
H       0.9259   0.7821   0.6801     H
C       0.9299   0.7661   0.4476     C
O       0.9355   0.5236   0.8251     O
C       0.9551   0.8692    0.608     C
O       0.9623   0.6343   0.5189     O
C       0.9661    0.886   0.4764     C
H       0.9793   0.9729   0.7205     H
C        0.988   0.9835   0.6319     C
