data_I
_chemical_name_common  '/home/zhangsd/repos/MofS-CGCNN/ML/data/SSD/clean_cifs/IKETUO_clean'
_cell_length_a  6.07800
_cell_length_b  9.95000
_cell_length_c 13.33700
_cell_angle_alpha 68.82300
_cell_angle_beta  81.14200
_cell_angle_gamma 76.81300
_space_group_name_H-M_alt      'P 1'


loop_
_space_group_symop_operation_xyz
  'x, y, z' 

loop_
_atom_site_label
_atom_site_fract_x
_atom_site_fract_y
_atom_site_fract_z
_atom_site_type_symbol
O       0.0156   0.4321    0.341     O
C         0.05    0.616   0.5605     C
N       0.0622   0.1376   0.9459     N
O       0.0702   0.2882   0.5105     O
O       0.0828   0.4302   0.1301     O
C        0.089   0.4405   0.0333     C
C       0.1348   0.8928   0.0697     C
Tb     0.16637  0.38607  0.80454    Tb
C        0.189   0.0296    0.015     C
O       0.2152   0.6475   0.1835     O
O       0.2237    0.362   0.9873     O
C        0.287   0.5574   0.5265     C
C        0.289   0.7649   0.1408     C
H       0.2913   0.6749   0.3706     H
H       0.3251   0.0463   0.0279     H
C        0.379   0.6032    0.423     C
N       0.4046   0.4519   0.6068     N
O       0.4797   0.7821   0.1527     O
O       0.5203   0.2179   0.8473     O
N       0.5954   0.5481   0.3932     N
C        0.621   0.3968    0.577     C
H       0.6749   0.9537   0.9721     H
H       0.7087   0.3251   0.6294     H
C        0.711   0.2351   0.8592     C
C        0.713   0.4426   0.4735     C
O       0.7763    0.638   0.0127     O
O       0.7848   0.3525   0.8165     O
C        0.811   0.9704    0.985     C
Tb     0.83363  0.61393  0.19546    Tb
C       0.8652   0.1072   0.9303     C
C        0.911   0.5595   0.9667     C
O       0.9172   0.5698   0.8699     O
O       0.9298   0.7118   0.4895     O
N       0.9378   0.8624   0.0541     N
C         0.95    0.384   0.4395     C
O       0.9844   0.5679    0.659     O
