data_I
_chemical_name_common  '/home/zhangsd/repos/MofS-CGCNN/ML/data/SSD/clean_cifs/IKUTIT_clean'
_cell_length_a 10.58510
_cell_length_b 10.78830
_cell_length_c 12.87270
_cell_angle_alpha 73.87800
_cell_angle_beta  67.67700
_cell_angle_gamma 81.16000
_space_group_name_H-M_alt      'P 1'


loop_
_space_group_symop_operation_xyz
  'x, y, z' 

loop_
_atom_site_label
_atom_site_fract_x
_atom_site_fract_y
_atom_site_fract_z
_atom_site_type_symbol
C       0.0153   0.6238   0.5071     C
C        0.019   0.3825   0.0742     C
O       0.0204  0.21249  0.39423     O
C       0.0327   0.7579   0.5087     C
C        0.037   0.2563   0.1522     C
Dy     0.06145  0.03411  0.31558    Dy
O       0.0622  0.81613  0.79085     O
C       0.0689    0.462    0.396     C
C       0.0832   0.5838   0.4046     C
O       0.0993  0.83202  0.41549     O
C       0.1082   0.5814   0.9383     C
C       0.1282   0.4646   0.0119     C
H       0.1319    0.356   0.2845     H
N       0.1386   0.4309  0.29271     N
H       0.1395   0.6403   0.3406     H
O      0.13989  0.99982  0.53928     O
O       0.1534  0.22296  0.16249     O
H       0.1801   0.6359    0.897     H
H       0.1894   0.4862   0.2356     H
C       0.2499   0.0202   0.4548     C
N        0.254   0.4351   0.0189     N
O       0.2567  0.04913  0.34986     O
H       0.2699   0.3637   0.0636     H
H       0.2958   0.9416   0.6492     H
H       0.3182   0.4877   0.9787     H
C        0.378   0.9652   0.5894     C
C       0.3802   0.0101   0.4761     C
H        0.408   0.8889   0.7795     H
H       0.4426   0.0974   0.2552     H
N       0.4859     0.91  0.72661     N
C       0.4959   0.9549   0.6146     C
C       0.5041   0.0451   0.3854     C
N       0.5141     0.09  0.27339     N
H       0.5574   0.9026   0.7448     H
H        0.592   0.1111   0.2205     H
C       0.6198   0.9899   0.5239     C
C        0.622   0.0348   0.4106     C
H       0.6818   0.5123   0.0213     H
H       0.7042   0.0584   0.3508     H
H       0.7301   0.6363   0.9364     H
O       0.7433  0.95087  0.65014     O
N        0.746   0.5649   0.9811     N
C       0.7501   0.9798   0.5452     C
H       0.8106   0.5138   0.7644     H
H       0.8199   0.3641    0.103     H
O       0.8466  0.77704  0.83751     O
O      0.86011  0.00018  0.46072     O
H       0.8605   0.3597   0.6594     H
N       0.8614   0.5691  0.70729     N
H       0.8681    0.644   0.7155     H
C       0.8718   0.5354   0.9881     C
C       0.8918   0.4186   0.0617     C
O       0.9007  0.16798  0.58451     O
C       0.9168   0.4162   0.5954     C
C       0.9311    0.538    0.604     C
O       0.9378  0.18387  0.20915     O
Dy     0.93855  0.96589  0.68442    Dy
C        0.963   0.7437   0.8478     C
C       0.9673   0.2421   0.4913     C
O       0.9796  0.78751  0.60577     O
C        0.981   0.6175   0.9258     C
C       0.9847   0.3762   0.4929     C
