data_I
_chemical_name_common  '/home/zhangsd/repos/MofS-CGCNN/ML/data/SSD/clean_cifs/IKUTOZ_clean'
_cell_length_a 10.76730
_cell_length_b 11.02090
_cell_length_c 13.09180
_cell_angle_alpha 105.06400
_cell_angle_beta  94.85400
_cell_angle_gamma 93.84700
_space_group_name_H-M_alt      'P 1'


loop_
_space_group_symop_operation_xyz
  'x, y, z' 

loop_
_atom_site_label
_atom_site_fract_x
_atom_site_fract_y
_atom_site_fract_z
_atom_site_type_symbol
C       0.0017    0.125   0.9929     C
C       0.0042   0.8876   0.4202     C
C       0.0046   0.2612   0.9908     C
O       0.0092   0.7173   0.0965     O
C       0.0118   0.7671   0.3352     C
O       0.0225   0.3413    0.078     O
Dy      0.0302  0.55128  0.17541    Dy
C       0.0486   0.1145   0.4859     C
C       0.0509   0.0007   0.4052     C
O       0.0886   0.2928   0.7121     O
H       0.0918   0.3057   0.5196     H
C       0.0952   0.2307   0.4675     C
C       0.0992   0.0076   0.3054     C
H       0.0992   0.9347   0.2503     H
C       0.1073    0.062   0.9773     C
C        0.108   0.9349   0.9852     C
O       0.1162   0.7288   0.3172     O
C       0.1447    0.122   0.2931     C
C       0.1449   0.2345    0.375     C
O       0.1724   0.4925   0.8984     O
H       0.1759   0.1254   0.2297     H
H       0.1784   0.3108   0.3663     H
O       0.1887   0.5581   0.0721     O
C       0.2198   0.1183   0.9515     C
H       0.2203   0.1988   0.9413     H
C       0.2211    0.877    0.975     C
H       0.2241   0.7963   0.9841     H
C       0.2328   0.5192   0.9857     C
H       0.2714   0.3654   0.8066     H
C       0.3243   0.9356   0.9525     C
C       0.3251   0.0588   0.9414     C
N        0.351     0.36   0.8138     N
C       0.3715     0.51   0.9911     C
H       0.3854     0.31   0.7647     H
H       0.3966   0.8939   0.9442     H
H       0.3978   0.0991   0.9273     H
H       0.4116   0.6253    0.137     H
C       0.4254   0.4346   0.9073     C
C       0.4476    0.574   0.0812     C
C       0.5524    0.426   0.9188     C
C       0.5746   0.5654   0.0927     C
H       0.5884   0.3747    0.863     H
H       0.6022   0.9009   0.0727     H
H       0.6034   0.1061   0.0558     H
H       0.6146     0.69   0.2353     H
C       0.6285     0.49   0.0089     C
N        0.649     0.64   0.1862     N
C       0.6749   0.9412   0.0586     C
C       0.6757   0.0644   0.0475     C
H       0.7286   0.6346   0.1934     H
C       0.7672   0.4808   0.0143     C
H       0.7759   0.2037   0.0159     H
C       0.7789    0.123    0.025     C
H       0.7797   0.8012   0.0587     H
C       0.7802   0.8817   0.0485     C
O       0.8113   0.4419   0.9279     O
H       0.8216   0.6892   0.6337     H
H       0.8241   0.8746   0.7703     H
O       0.8276   0.5075   0.1016     O
C       0.8551   0.7655    0.625     C
C       0.8553    0.878   0.7069     C
O       0.8838   0.2712   0.6828     O
C        0.892   0.0651   0.0148     C
C       0.8927    0.938   0.0227     C
H       0.9008   0.0653   0.7497     H
C       0.9008   0.9924   0.6946     C
C       0.9048   0.7693   0.5325     C
H       0.9082   0.6943   0.4804     H
O       0.9114   0.7072   0.2879     O
C       0.9491   0.9993   0.5948     C
C       0.9514   0.8855   0.5141     C
Dy      0.9698  0.44872  0.82459    Dy
O       0.9775   0.6587    0.922     O
C       0.9882   0.2329   0.6648     C
O       0.9908   0.2827   0.9035     O
C       0.9954   0.7388   0.0092     C
C       0.9958   0.1124   0.5798     C
C       0.9983    0.875   0.0071     C
