data_I
_chemical_name_common  '/home/zhangsd/repos/MofS-CGCNN/ML/data/SSD/clean_cifs/IPIHIA_clean'
_cell_length_a 27.10800
_cell_length_b 10.67300
_cell_length_c 16.64100
_cell_angle_alpha 90.00000
_cell_angle_beta  104.24100
_cell_angle_gamma 90.00000
_space_group_name_H-M_alt      'P 1'


loop_
_space_group_symop_operation_xyz
  'x, y, z' 

loop_
_atom_site_label
_atom_site_fract_x
_atom_site_fract_y
_atom_site_fract_z
_atom_site_type_symbol
C       0.0017   0.4672   0.8654     C
C       0.0017   0.5328   0.3654     C
C       0.0111    0.423   0.4099     C
C       0.0111    0.577   0.9099     C
H       0.0199   0.2681   0.0485     H
H       0.0199   0.7319   0.5485     H
H       0.0318   0.4451   0.6592     H
H       0.0318   0.5549   0.1592     H
C        0.033   0.3428   0.0798     C
C        0.033   0.6572   0.5798     C
H       0.0331   0.3149   0.8257     H
H       0.0331   0.6851   0.3257     H
C       0.0405   0.3886   0.8561     C
C       0.0405   0.6114   0.3561     C
H       0.0475   0.2665   0.5316     H
H       0.0475   0.7335   0.0316     H
N       0.0528   0.2121   0.2054     N
N       0.0528   0.7879   0.7054     N
H        0.053   0.3889   0.0488     H
H        0.053   0.6111   0.5488     H
C       0.0614   0.3923   0.4483     C
C       0.0614   0.6077   0.9483     C
N       0.0658   0.3062    0.161     N
N       0.0658   0.6938    0.661     N
H       0.0729   0.2053   0.4663     H
H       0.0729   0.7947   0.9663     H
C       0.0736   0.2778   0.5017     C
C       0.0736   0.7222   0.0017     C
C       0.0901   0.4204   0.8922     C
C       0.0901   0.5796   0.3922     C
C       0.0914   0.2048    0.272     C
C       0.0914   0.7952    0.772     C
H        0.093   0.1474   0.3146     H
H        0.093   0.8526   0.8146     H
C       0.1002   0.4701   0.4383     C
C       0.1002   0.5299   0.9383     C
C       0.1102     0.35   0.2003     C
C       0.1102     0.65   0.7003     C
H       0.1166   0.3691   0.8859     H
H       0.1166   0.6309   0.3859     H
N       0.1227   0.2832   0.5607     N
N       0.1227   0.7168   0.0607     N
H       0.1272   0.4149   0.1812     H
H       0.1272   0.5851   0.6812     H
N       0.1277   0.2891   0.2711     N
N       0.1277   0.7109   0.7711     N
N       0.1297   0.3618   0.6275     N
N       0.1297   0.6382   0.1275     N
H       0.1338   0.4486   0.4629     H
H       0.1338   0.5514   0.9629     H
C       0.1658   0.2265   0.5628     C
C       0.1658   0.7735   0.0628     C
H       0.1703   0.1692   0.5231     H
H       0.1703   0.8308   0.0231     H
C       0.1781   0.3419   0.6641     C
C       0.1781   0.6581   0.1641     C
O       0.1814   0.1283   0.1482     O
O       0.1814   0.8717   0.6482     O
H       0.1944   0.3829   0.7127     H
H       0.1944   0.6171   0.2127     H
N       0.2019   0.2599   0.6273     N
N       0.2019   0.7401   0.1273     N
H       0.2105   0.4071   0.0532     H
H       0.2105   0.5929   0.5532     H
Cd     0.21292  0.29005  0.33287    Cd
Cd     0.21292  0.70995  0.83287    Cd
C       0.2133   0.2114   0.1481     C
C       0.2133   0.7886   0.6481     C
O       0.2183   0.4908   0.8381     O
O       0.2183   0.5092   0.3381     O
C       0.2264   0.3428   0.0314     C
C       0.2264   0.6572   0.5314     C
C       0.2291   0.4874   0.9151     C
C       0.2291   0.5126   0.4151     C
O       0.2293     0.29   0.2057     O
O       0.2293     0.71   0.7057     O
O       0.2295   0.4136   0.4575     O
O       0.2295   0.5864   0.9575     O
C       0.2336   0.2305   0.0725     C
C       0.2336   0.7695   0.5725     C
C       0.2415   0.3658    0.959     C
C       0.2415   0.6342    0.459     C
C       0.2585   0.1342    0.041     C
C       0.2585   0.8658    0.541     C
C       0.2664   0.2695   0.9275     C
C       0.2664   0.7305   0.4275     C
O       0.2705   0.0864   0.5425     O
O       0.2705   0.9136   0.0425     O
O       0.2707     0.21   0.7943     O
O       0.2707     0.79   0.2943     O
C       0.2709   0.0126   0.0849     C
C       0.2709   0.9874   0.5849     C
C       0.2736   0.1572   0.9686     C
C       0.2736   0.8428   0.4686     C
O       0.2817   0.0092   0.1619     O
O       0.2817   0.9908   0.6619     O
C       0.2867   0.2886   0.8519     C
C       0.2867   0.7114   0.3519     C
Cd     0.28708  0.20995  0.66713    Cd
Cd     0.28708  0.79005  0.16713    Cd
H       0.2895   0.0929   0.9468     H
H       0.2895   0.9071   0.4468     H
N       0.2981   0.2401   0.3727     N
N       0.2981   0.7599   0.8727     N
H       0.3056   0.1171   0.2873     H
H       0.3056   0.8829   0.7873     H
O       0.3186   0.3717   0.8518     O
O       0.3186   0.6283   0.3518     O
C       0.3219   0.1581   0.3359     C
C       0.3219   0.8419   0.8359     C
H       0.3297   0.3308   0.4769     H
H       0.3297   0.6692   0.9769     H
C       0.3342   0.2735   0.4372     C
C       0.3342   0.7265   0.9372     C
H       0.3662   0.0514   0.5371     H
H       0.3662   0.9486   0.0371     H
N       0.3703   0.1382   0.3725     N
N       0.3703   0.8618   0.8725     N
N       0.3723   0.2109   0.7289     N
N       0.3723   0.7891   0.2289     N
H       0.3728   0.0851   0.8188     H
H       0.3728   0.9149   0.3188     H
N       0.3773   0.2168   0.4393     N
N       0.3773   0.7832   0.9393     N
H       0.3834   0.1309   0.1141     H
H       0.3834   0.8691   0.6141     H
C       0.3898     0.15   0.7997     C
C       0.3898     0.85   0.2997     C
C       0.3998   0.0299   0.5617     C
C       0.3998   0.9701   0.0617     C
H        0.407   0.3526   0.6854     H
H        0.407   0.6474   0.1854     H
C       0.4086   0.2952    0.728     C
C       0.4086   0.7048    0.228     C
C       0.4099   0.0796   0.1078     C
C       0.4099   0.9204   0.6078     C
C       0.4264   0.2222   0.4983     C
C       0.4264   0.7778   0.9983     C
H       0.4271   0.2947   0.5337     H
H       0.4271   0.7053   0.0337     H
N       0.4342   0.1938    0.839     N
N       0.4342   0.8062    0.339     N
C       0.4386   0.1077   0.5517     C
C       0.4386   0.8923   0.0517     C
H        0.447   0.1111   0.9512     H
H        0.447   0.8889   0.4512     H
N       0.4472   0.2879   0.7946     N
N       0.4472   0.7121   0.2946     N
H       0.4525   0.2335   0.4684     H
H       0.4525   0.7665   0.9684     H
C       0.4595   0.1114   0.1439     C
C       0.4595   0.8886   0.6439     C
H       0.4669   0.1851   0.1743     H
H       0.4669   0.8149   0.6743     H
C        0.467   0.1572   0.9202     C
C        0.467   0.8428   0.4202     C
H       0.4682   0.0549   0.3408     H
H       0.4682   0.9451   0.8408     H
H       0.4801   0.2319   0.9515     H
H       0.4801   0.7681   0.4515     H
C       0.4889    0.077   0.5901     C
C       0.4889    0.923   0.0901     C
C       0.4983   0.0328   0.1346     C
C       0.4983   0.9672   0.6346     C
C       0.5017   0.0328   0.3654     C
C       0.5017   0.9672   0.8654     C
C       0.5111    0.077   0.9099     C
C       0.5111    0.923   0.4099     C
H       0.5199   0.2319   0.5485     H
H       0.5199   0.7681   0.0485     H
H       0.5318   0.0549   0.1592     H
H       0.5318   0.9451   0.6592     H
C        0.533   0.1572   0.5798     C
C        0.533   0.8428   0.0798     C
H       0.5331   0.1851   0.3257     H
H       0.5331   0.8149   0.8257     H
C       0.5405   0.1114   0.3561     C
C       0.5405   0.8886   0.8561     C
H       0.5475   0.2335   0.0316     H
H       0.5475   0.7665   0.5316     H
N       0.5528   0.2879   0.7054     N
N       0.5528   0.7121   0.2054     N
H        0.553   0.1111   0.5488     H
H        0.553   0.8889   0.0488     H
C       0.5614   0.1077   0.9483     C
C       0.5614   0.8923   0.4483     C
N       0.5658   0.1938    0.661     N
N       0.5658   0.8062    0.161     N
H       0.5729   0.2947   0.9663     H
H       0.5729   0.7053   0.4663     H
C       0.5736   0.2222   0.0017     C
C       0.5736   0.7778   0.5017     C
C       0.5901   0.0796   0.3922     C
C       0.5901   0.9204   0.8922     C
C       0.5914   0.2952    0.772     C
C       0.5914   0.7048    0.272     C
H        0.593   0.3526   0.8146     H
H        0.593   0.6474   0.3146     H
C       0.6002   0.0299   0.9383     C
C       0.6002   0.9701   0.4383     C
C       0.6102     0.15   0.7003     C
C       0.6102     0.85   0.2003     C
H       0.6166   0.1309   0.3859     H
H       0.6166   0.8691   0.8859     H
N       0.6227   0.2168   0.0607     N
N       0.6227   0.7832   0.5607     N
H       0.6272   0.0851   0.6812     H
H       0.6272   0.9149   0.1812     H
N       0.6277   0.2109   0.7711     N
N       0.6277   0.7891   0.2711     N
N       0.6297   0.1382   0.1275     N
N       0.6297   0.8618   0.6275     N
H       0.6338   0.0514   0.9629     H
H       0.6338   0.9486   0.4629     H
C       0.6658   0.2735   0.0628     C
C       0.6658   0.7265   0.5628     C
H       0.6703   0.3308   0.0231     H
H       0.6703   0.6692   0.5231     H
C       0.6781   0.1581   0.1641     C
C       0.6781   0.8419   0.6641     C
O       0.6814   0.3717   0.6482     O
O       0.6814   0.6283   0.1482     O
H       0.6944   0.1171   0.2127     H
H       0.6944   0.8829   0.7127     H
N       0.7019   0.2401   0.1273     N
N       0.7019   0.7599   0.6273     N
H       0.7105   0.0929   0.5532     H
H       0.7105   0.9071   0.0532     H
Cd     0.71292  0.20995  0.83287    Cd
Cd     0.71292  0.79005  0.33287    Cd
C       0.7133   0.2886   0.6481     C
C       0.7133   0.7114   0.1481     C
O       0.7183   0.0092   0.3381     O
O       0.7183   0.9908   0.8381     O
C       0.7264   0.1572   0.5314     C
C       0.7264   0.8428   0.0314     C
C       0.7291   0.0126   0.4151     C
C       0.7291   0.9874   0.9151     C
O       0.7293     0.21   0.7057     O
O       0.7293     0.79   0.2057     O
O       0.7295   0.0864   0.9575     O
O       0.7295   0.9136   0.4575     O
C       0.7336   0.2695   0.5725     C
C       0.7336   0.7305   0.0725     C
C       0.7415   0.1342    0.459     C
C       0.7415   0.8658    0.959     C
C       0.7585   0.3658    0.541     C
C       0.7585   0.6342    0.041     C
C       0.7664   0.2305   0.4275     C
C       0.7664   0.7695   0.9275     C
O       0.7705   0.4136   0.0425     O
O       0.7705   0.5864   0.5425     O
O       0.7707     0.29   0.2943     O
O       0.7707     0.71   0.7943     O
C       0.7709   0.4874   0.5849     C
C       0.7709   0.5126   0.0849     C
C       0.7736   0.3428   0.4686     C
C       0.7736   0.6572   0.9686     C
O       0.7817   0.4908   0.6619     O
O       0.7817   0.5092   0.1619     O
C       0.7867   0.2114   0.3519     C
C       0.7867   0.7886   0.8519     C
Cd     0.78708  0.29005  0.16713    Cd
Cd     0.78708  0.70995  0.66713    Cd
H       0.7895   0.4071   0.4468     H
H       0.7895   0.5929   0.9468     H
N       0.7981   0.2599   0.8727     N
N       0.7981   0.7401   0.3727     N
H       0.8056   0.3829   0.7873     H
H       0.8056   0.6171   0.2873     H
O       0.8186   0.1283   0.3518     O
O       0.8186   0.8717   0.8518     O
C       0.8219   0.3419   0.8359     C
C       0.8219   0.6581   0.3359     C
H       0.8297   0.1692   0.9769     H
H       0.8297   0.8308   0.4769     H
C       0.8342   0.2265   0.9372     C
C       0.8342   0.7735   0.4372     C
H       0.8662   0.4486   0.0371     H
H       0.8662   0.5514   0.5371     H
N       0.8703   0.3618   0.8725     N
N       0.8703   0.6382   0.3725     N
N       0.8723   0.2891   0.2289     N
N       0.8723   0.7109   0.7289     N
H       0.8728   0.4149   0.3188     H
H       0.8728   0.5851   0.8188     H
N       0.8773   0.2832   0.9393     N
N       0.8773   0.7168   0.4393     N
H       0.8834   0.3691   0.6141     H
H       0.8834   0.6309   0.1141     H
C       0.8898     0.35   0.2997     C
C       0.8898     0.65   0.7997     C
C       0.8998   0.4701   0.0617     C
C       0.8998   0.5299   0.5617     C
H        0.907   0.1474   0.1854     H
H        0.907   0.8526   0.6854     H
C       0.9086   0.2048    0.228     C
C       0.9086   0.7952    0.728     C
C       0.9099   0.4204   0.6078     C
C       0.9099   0.5796   0.1078     C
C       0.9264   0.2778   0.9983     C
C       0.9264   0.7222   0.4983     C
H       0.9271   0.2053   0.0337     H
H       0.9271   0.7947   0.5337     H
N       0.9342   0.3062    0.339     N
N       0.9342   0.6938    0.839     N
C       0.9386   0.3923   0.0517     C
C       0.9386   0.6077   0.5517     C
H        0.947   0.3889   0.4512     H
H        0.947   0.6111   0.9512     H
N       0.9472   0.2121   0.2946     N
N       0.9472   0.7879   0.7946     N
H       0.9525   0.2665   0.9684     H
H       0.9525   0.7335   0.4684     H
C       0.9595   0.3886   0.6439     C
C       0.9595   0.6114   0.1439     C
H       0.9669   0.3149   0.6743     H
H       0.9669   0.6851   0.1743     H
C        0.967   0.3428   0.4202     C
C        0.967   0.6572   0.9202     C
H       0.9682   0.4451   0.8408     H
H       0.9682   0.5549   0.3408     H
H       0.9801   0.2681   0.4515     H
H       0.9801   0.7319   0.9515     H
C       0.9889    0.423   0.0901     C
C       0.9889    0.577   0.5901     C
C       0.9983   0.4672   0.6346     C
C       0.9983   0.5328   0.1346     C
