data_I
_chemical_name_common  '/home/zhangsd/repos/MofS-CGCNN/ML/data/SSD/clean_cifs/IPIJEY_clean'
_cell_length_a 18.58000
_cell_length_b  9.96200
_cell_length_c 32.73200
_cell_angle_alpha 90.00000
_cell_angle_beta  90.00000
_cell_angle_gamma 90.00000
_space_group_name_H-M_alt      'P 1'


loop_
_space_group_symop_operation_xyz
  'x, y, z' 

loop_
_atom_site_label
_atom_site_fract_x
_atom_site_fract_y
_atom_site_fract_z
_atom_site_type_symbol
H       0.0004    0.233   0.8387     H
H       0.0004    0.267   0.3387     H
C      0.00147   0.6917  0.63587     C
C      0.00147   0.8083  0.13587     C
N      0.00436  0.71716  0.75282     N
N      0.00436  0.78284  0.25282     N
C       0.0068   0.5668  0.55807     C
C       0.0068   0.9332  0.05807     C
H       0.0085   0.5257   0.5326     H
H       0.0085   0.9743   0.0326     H
N       0.0098  0.09167  0.75846     N
N       0.0098  0.40833  0.25846     N
C      0.01813   0.1953  0.93748     C
C      0.01813   0.3047  0.43748     C
C      0.02043   0.2436  0.39879     C
C      0.02043   0.2564  0.89879     C
C      0.02683   0.5602  0.63121     C
C      0.02683   0.9398  0.13121     C
C      0.02949   0.5001  0.59312     C
C      0.02949   0.9999  0.09312     C
H       0.0374   0.1561   0.3967     H
H       0.0374   0.3439   0.8967     H
C      0.04309   0.2302    0.475     C
C      0.04309   0.2698    0.975     C
O      0.04453  0.20054  0.00712     O
O      0.04453  0.29946  0.50712     O
N      0.05257  0.03129  0.15851     N
N      0.05257  0.46871  0.65851     N
N      0.05466  0.22338  0.23467     N
N      0.05466  0.27662  0.73467     N
N       0.0576  0.12564  0.09857     N
N       0.0576  0.37436  0.59857     N
O      0.06182  0.11195  0.47301     O
O      0.06182  0.38805  0.97301     O
Zn      0.0643  0.02828  0.21891    Zn
Zn      0.0643  0.47172  0.71891    Zn
H       0.0698   0.0027   0.6224     H
H       0.0698   0.4973   0.1224     H
N      0.07054  0.14159  0.13808     N
N      0.07054  0.35841  0.63808     N
Zn      0.0807  0.22539   0.5586    Zn
Zn      0.0807  0.27461   0.0586    Zn
C       0.0815   0.0697  0.75292     C
C       0.0815   0.4303  0.25292     C
H        0.105   0.6217    0.271     H
H        0.105   0.8783    0.771     H
C      0.11015   0.1874  0.73717     C
C      0.11015   0.3126  0.23717     C
C       0.1194   0.0099  0.61933     C
C       0.1194   0.4901  0.11933     C
H         0.12   0.6554    0.016     H
H         0.12   0.8446    0.516     H
C      0.12428   0.5425  0.26062     C
C      0.12428   0.9575  0.76062     C
H       0.1439   0.6314   0.1616     H
H       0.1439   0.8686   0.6616     H
N      0.14542    0.097  0.59246     N
N      0.14542    0.403  0.09246     N
H       0.1507   0.6847   0.5634     H
H       0.1507   0.8153   0.0634     H
O      0.15914  0.00156  0.24001     O
O      0.15914  0.49844  0.74001     O
C       0.1634   0.5708  0.14301     C
C       0.1634   0.9292  0.64301     C
C       0.1682   0.6718  0.02205     C
C       0.1682   0.8282  0.52205     C
H       0.1725   0.0807   0.9993     H
H       0.1725   0.4193   0.4993     H
O      0.17325    0.676  0.70044     O
O      0.17325    0.824  0.20044     O
C      0.18284   0.1961  0.72659     C
C      0.18284   0.3039  0.22659     C
C       0.1864   0.7333  0.55004     C
C       0.1864   0.7667  0.05004     C
H       0.1874   0.5418   0.6093     H
H       0.1874   0.9582   0.1093     H
N      0.19015   0.2225  0.03979     N
N      0.19015   0.2775  0.53979     N
C      0.19595   0.5299  0.25218     C
C      0.19595   0.9701  0.75218     C
C       0.1963   0.5913  0.72382     C
C       0.1963   0.9087  0.22382     C
H       0.2017   0.2273   0.2144     H
H       0.2017   0.2727   0.7144     H
C       0.2086   0.1289  0.01243     C
C       0.2086   0.3711  0.51243     C
H       0.2093   0.5357    0.984     H
H       0.2093   0.9643    0.484     H
C       0.2166   0.1087  0.58866     C
C       0.2166   0.3913  0.08866     C
C       0.2207   0.6015  0.00306     C
C       0.2207   0.8985  0.50306     C
C       0.2248    0.088  0.73485     C
C       0.2248    0.412  0.23485     C
H       0.2266   0.6011    0.258     H
H       0.2266   0.8989    0.758     H
H        0.234   0.1136   0.1536     H
H        0.234   0.3864   0.6536     H
C       0.2353   0.5592  0.13847     C
C       0.2353   0.9408  0.63847     C
C        0.237   0.5316  0.61187     C
C        0.237   0.9684  0.11187     C
C      0.24212    0.209  0.55865     C
C      0.24212    0.291  0.05865     C
C      0.25788    0.709  0.55865     C
C      0.25788    0.791  0.05865     C
C        0.263   0.0316  0.61187     C
C        0.263   0.4684  0.11187     C
C       0.2647   0.0592  0.13847     C
C       0.2647   0.4408  0.63847     C
H        0.266   0.6136   0.1536     H
H        0.266   0.8864   0.6536     H
H       0.2734   0.1011    0.258     H
H       0.2734   0.3989    0.758     H
C       0.2752    0.588  0.73485     C
C       0.2752    0.912  0.23485     C
C       0.2793   0.1015  0.00306     C
C       0.2793   0.3985  0.50306     C
C       0.2834   0.6087  0.58866     C
C       0.2834   0.8913  0.08866     C
H       0.2907   0.0357    0.984     H
H       0.2907   0.4643    0.484     H
C       0.2914   0.6289  0.01243     C
C       0.2914   0.8711  0.51243     C
H       0.2983   0.7273   0.2144     H
H       0.2983   0.7727   0.7144     H
C       0.3037   0.0913  0.72382     C
C       0.3037   0.4087  0.22382     C
C      0.30405   0.0299  0.25218     C
C      0.30405   0.4701  0.75218     C
N      0.30985   0.7225  0.03979     N
N      0.30985   0.7775  0.53979     N
H       0.3126   0.0418   0.6093     H
H       0.3126   0.4582   0.1093     H
C       0.3136   0.2333  0.55004     C
C       0.3136   0.2667  0.05004     C
C      0.31716   0.6961  0.72659     C
C      0.31716   0.8039  0.22659     C
O      0.32675    0.176  0.70044     O
O      0.32675    0.324  0.20044     O
H       0.3275   0.5807   0.9993     H
H       0.3275   0.9193   0.4993     H
C       0.3318   0.1718  0.02205     C
C       0.3318   0.3282  0.52205     C
C       0.3366   0.0708  0.14301     C
C       0.3366   0.4292  0.64301     C
O      0.34086  0.50156  0.24001     O
O      0.34086  0.99844  0.74001     O
H       0.3493   0.1847   0.5634     H
H       0.3493   0.3153   0.0634     H
N      0.35458    0.597  0.59246     N
N      0.35458    0.903  0.09246     N
H       0.3561   0.1314   0.1616     H
H       0.3561   0.3686   0.6616     H
C      0.37572   0.0425  0.26062     C
C      0.37572   0.4575  0.76062     C
H         0.38   0.1554    0.016     H
H         0.38   0.3446    0.516     H
C       0.3806   0.5099  0.61933     C
C       0.3806   0.9901  0.11933     C
C      0.38985   0.6874  0.73717     C
C      0.38985   0.8126  0.23717     C
H        0.395   0.1217    0.271     H
H        0.395   0.3783    0.771     H
C       0.4185   0.5697  0.75292     C
C       0.4185   0.9303  0.25292     C
Zn      0.4193  0.72539   0.5586    Zn
Zn      0.4193  0.77461   0.0586    Zn
N      0.42946  0.64159  0.13808     N
N      0.42946  0.85841  0.63808     N
H       0.4302   0.5027   0.6224     H
H       0.4302   0.9973   0.1224     H
Zn      0.4357  0.52828  0.21891    Zn
Zn      0.4357  0.97172  0.71891    Zn
O      0.43818  0.61195  0.47301     O
O      0.43818  0.88805  0.97301     O
N       0.4424  0.62564  0.09857     N
N       0.4424  0.87436  0.59857     N
N      0.44534  0.72338  0.23467     N
N      0.44534  0.77662  0.73467     N
N      0.44743  0.53129  0.15851     N
N      0.44743  0.96871  0.65851     N
O      0.45547  0.70054  0.00712     O
O      0.45547  0.79946  0.50712     O
C      0.45691   0.7302    0.475     C
C      0.45691   0.7698    0.975     C
H       0.4626   0.6561   0.3967     H
H       0.4626   0.8439   0.8967     H
C      0.47051   0.0001  0.59312     C
C      0.47051   0.4999  0.09312     C
C      0.47317   0.0602  0.63121     C
C      0.47317   0.4398  0.13121     C
C      0.47957   0.7436  0.39879     C
C      0.47957   0.7564  0.89879     C
C      0.48187   0.6953  0.93748     C
C      0.48187   0.8047  0.43748     C
N       0.4902  0.59167  0.75846     N
N       0.4902  0.90833  0.25846     N
H       0.4915   0.0257   0.5326     H
H       0.4915   0.4743   0.0326     H
C       0.4932   0.0668  0.55807     C
C       0.4932   0.4332  0.05807     C
N      0.49564  0.21716  0.75282     N
N      0.49564  0.28284  0.25282     N
C      0.49853   0.1917  0.63587     C
C      0.49853   0.3083  0.13587     C
H       0.4996    0.733   0.8387     H
H       0.4996    0.767   0.3387     H
H       0.5004    0.233   0.6613     H
H       0.5004    0.267   0.1613     H
C      0.50147   0.6917  0.86413     C
C      0.50147   0.8083  0.36413     C
N      0.50436  0.71716  0.74718     N
N      0.50436  0.78284  0.24718     N
C       0.5068   0.5668  0.94193     C
C       0.5068   0.9332  0.44193     C
H       0.5085   0.5257   0.9674     H
H       0.5085   0.9743   0.4674     H
N       0.5098  0.09167  0.74154     N
N       0.5098  0.40833  0.24154     N
C      0.51813   0.1953  0.56252     C
C      0.51813   0.3047  0.06252     C
C      0.52043   0.2436  0.10121     C
C      0.52043   0.2564  0.60121     C
C      0.52683   0.5602  0.86879     C
C      0.52683   0.9398  0.36879     C
C      0.52949   0.5001  0.90688     C
C      0.52949   0.9999  0.40688     C
H       0.5374   0.1561   0.1033     H
H       0.5374   0.3439   0.6033     H
C      0.54309   0.2302    0.025     C
C      0.54309   0.2698    0.525     C
O      0.54453  0.20054  0.49288     O
O      0.54453  0.29946  0.99288     O
N      0.55257  0.03129  0.34149     N
N      0.55257  0.46871  0.84149     N
N      0.55466  0.22338  0.26533     N
N      0.55466  0.27662  0.76533     N
N       0.5576  0.12564  0.40143     N
N       0.5576  0.37436  0.90143     N
O      0.56182  0.11195  0.02699     O
O      0.56182  0.38805  0.52699     O
Zn      0.5643  0.02828  0.28109    Zn
Zn      0.5643  0.47172  0.78109    Zn
H       0.5698   0.0027   0.8776     H
H       0.5698   0.4973   0.3776     H
N      0.57054  0.14159  0.36192     N
N      0.57054  0.35841  0.86192     N
Zn      0.5807  0.22539   0.9414    Zn
Zn      0.5807  0.27461   0.4414    Zn
C       0.5815   0.0697  0.74708     C
C       0.5815   0.4303  0.24708     C
H        0.605   0.6217    0.229     H
H        0.605   0.8783    0.729     H
C      0.61015   0.1874  0.76283     C
C      0.61015   0.3126  0.26283     C
C       0.6194   0.0099  0.88067     C
C       0.6194   0.4901  0.38067     C
H         0.62   0.6554    0.484     H
H         0.62   0.8446    0.984     H
C      0.62428   0.5425  0.23938     C
C      0.62428   0.9575  0.73938     C
H       0.6439   0.6314   0.3384     H
H       0.6439   0.8686   0.8384     H
N      0.64542    0.097  0.90754     N
N      0.64542    0.403  0.40754     N
H       0.6507   0.6847   0.9366     H
H       0.6507   0.8153   0.4366     H
O      0.65914  0.00156  0.25999     O
O      0.65914  0.49844  0.75999     O
C       0.6634   0.5708  0.35699     C
C       0.6634   0.9292  0.85699     C
C       0.6682   0.6718  0.47795     C
C       0.6682   0.8282  0.97795     C
H       0.6725   0.0807   0.5007     H
H       0.6725   0.4193   0.0007     H
O      0.67325    0.676  0.79956     O
O      0.67325    0.824  0.29956     O
C      0.68284   0.1961  0.77341     C
C      0.68284   0.3039  0.27341     C
C       0.6864   0.7333  0.94996     C
C       0.6864   0.7667  0.44996     C
H       0.6874   0.5418   0.8907     H
H       0.6874   0.9582   0.3907     H
N      0.69015   0.2225  0.46021     N
N      0.69015   0.2775  0.96021     N
C      0.69595   0.5299  0.24782     C
C      0.69595   0.9701  0.74782     C
C       0.6963   0.5913  0.77618     C
C       0.6963   0.9087  0.27618     C
H       0.7017   0.2273   0.2856     H
H       0.7017   0.2727   0.7856     H
C       0.7086   0.1289  0.48757     C
C       0.7086   0.3711  0.98757     C
H       0.7093   0.5357    0.516     H
H       0.7093   0.9643    0.016     H
C       0.7166   0.1087  0.91134     C
C       0.7166   0.3913  0.41134     C
C       0.7207   0.6015  0.49694     C
C       0.7207   0.8985  0.99694     C
C       0.7248    0.088  0.76515     C
C       0.7248    0.412  0.26515     C
H       0.7266   0.6011    0.242     H
H       0.7266   0.8989    0.742     H
H        0.734   0.1136   0.3464     H
H        0.734   0.3864   0.8464     H
C       0.7353   0.5592  0.36153     C
C       0.7353   0.9408  0.86153     C
C        0.737   0.5316  0.88813     C
C        0.737   0.9684  0.38813     C
C      0.74212    0.209  0.94135     C
C      0.74212    0.291  0.44135     C
C      0.75788    0.709  0.94135     C
C      0.75788    0.791  0.44135     C
C        0.763   0.0316  0.88813     C
C        0.763   0.4684  0.38813     C
C       0.7647   0.0592  0.36153     C
C       0.7647   0.4408  0.86153     C
H        0.766   0.6136   0.3464     H
H        0.766   0.8864   0.8464     H
H       0.7734   0.1011    0.242     H
H       0.7734   0.3989    0.742     H
C       0.7752    0.588  0.76515     C
C       0.7752    0.912  0.26515     C
C       0.7793   0.1015  0.49694     C
C       0.7793   0.3985  0.99694     C
C       0.7834   0.6087  0.91134     C
C       0.7834   0.8913  0.41134     C
H       0.7907   0.0357    0.516     H
H       0.7907   0.4643    0.016     H
C       0.7914   0.6289  0.48757     C
C       0.7914   0.8711  0.98757     C
H       0.7983   0.7273   0.2856     H
H       0.7983   0.7727   0.7856     H
C       0.8037   0.0913  0.77618     C
C       0.8037   0.4087  0.27618     C
C      0.80405   0.0299  0.24782     C
C      0.80405   0.4701  0.74782     C
N      0.80985   0.7225  0.46021     N
N      0.80985   0.7775  0.96021     N
H       0.8126   0.0418   0.8907     H
H       0.8126   0.4582   0.3907     H
C       0.8136   0.2333  0.94996     C
C       0.8136   0.2667  0.44996     C
C      0.81716   0.6961  0.77341     C
C      0.81716   0.8039  0.27341     C
O      0.82675    0.176  0.79956     O
O      0.82675    0.324  0.29956     O
H       0.8275   0.5807   0.5007     H
H       0.8275   0.9193   0.0007     H
C       0.8318   0.1718  0.47795     C
C       0.8318   0.3282  0.97795     C
C       0.8366   0.0708  0.35699     C
C       0.8366   0.4292  0.85699     C
O      0.84086  0.50156  0.25999     O
O      0.84086  0.99844  0.75999     O
H       0.8493   0.1847   0.9366     H
H       0.8493   0.3153   0.4366     H
N      0.85458    0.597  0.90754     N
N      0.85458    0.903  0.40754     N
H       0.8561   0.1314   0.3384     H
H       0.8561   0.3686   0.8384     H
C      0.87572   0.0425  0.23938     C
C      0.87572   0.4575  0.73938     C
H         0.88   0.1554    0.484     H
H         0.88   0.3446    0.984     H
C       0.8806   0.5099  0.88067     C
C       0.8806   0.9901  0.38067     C
C      0.88985   0.6874  0.76283     C
C      0.88985   0.8126  0.26283     C
H        0.895   0.1217    0.229     H
H        0.895   0.3783    0.729     H
C       0.9185   0.5697  0.74708     C
C       0.9185   0.9303  0.24708     C
Zn      0.9193  0.72539   0.9414    Zn
Zn      0.9193  0.77461   0.4414    Zn
N      0.92946  0.64159  0.36192     N
N      0.92946  0.85841  0.86192     N
H       0.9302   0.5027   0.8776     H
H       0.9302   0.9973   0.3776     H
Zn      0.9357  0.52828  0.28109    Zn
Zn      0.9357  0.97172  0.78109    Zn
O      0.93818  0.61195  0.02699     O
O      0.93818  0.88805  0.52699     O
N       0.9424  0.62564  0.40143     N
N       0.9424  0.87436  0.90143     N
N      0.94534  0.72338  0.26533     N
N      0.94534  0.77662  0.76533     N
N      0.94743  0.53129  0.34149     N
N      0.94743  0.96871  0.84149     N
O      0.95547  0.70054  0.49288     O
O      0.95547  0.79946  0.99288     O
C      0.95691   0.7302    0.025     C
C      0.95691   0.7698    0.525     C
H       0.9626   0.6561   0.1033     H
H       0.9626   0.8439   0.6033     H
C      0.97051   0.0001  0.90688     C
C      0.97051   0.4999  0.40688     C
C      0.97317   0.0602  0.86879     C
C      0.97317   0.4398  0.36879     C
C      0.97957   0.7436  0.10121     C
C      0.97957   0.7564  0.60121     C
C      0.98187   0.6953  0.56252     C
C      0.98187   0.8047  0.06252     C
N       0.9902  0.59167  0.74154     N
N       0.9902  0.90833  0.24154     N
H       0.9915   0.0257   0.9674     H
H       0.9915   0.4743   0.4674     H
C       0.9932   0.0668  0.94193     C
C       0.9932   0.4332  0.44193     C
N      0.99564  0.21716  0.74718     N
N      0.99564  0.28284  0.24718     N
C      0.99853   0.1917  0.86413     C
C      0.99853   0.3083  0.36413     C
H       0.9996    0.733   0.6613     H
H       0.9996    0.767   0.1613     H
