data_I
_chemical_name_common  '/home/zhangsd/repos/MofS-CGCNN/ML/data/SSD/clean_cifs/IQIPAZ_clean'
_cell_length_a  9.99700
_cell_length_b 13.14420
_cell_length_c 16.45800
_cell_angle_alpha 101.09600
_cell_angle_beta  92.79600
_cell_angle_gamma 96.03000
_space_group_name_H-M_alt      'P 1'


loop_
_space_group_symop_operation_xyz
  'x, y, z' 

loop_
_atom_site_label
_atom_site_fract_x
_atom_site_fract_y
_atom_site_fract_z
_atom_site_type_symbol
C       0.0018    0.575   0.5732     C
O       0.0077   0.3009  0.84944     O
C       0.0112   0.3466   0.3481     C
C       0.0114   0.6295   0.9825     C
C       0.0247   0.5955   0.8992     C
C       0.0335    0.401   0.5031     C
C        0.036   0.4752   0.5761     C
O       0.0382   0.3597  0.66877     O
H       0.0444   0.4077   0.1374     H
O       0.0551   0.1647  0.14853     O
H       0.0553   0.3356   0.5072     H
H       0.0645     0.35   0.9987     H
O       0.0727   0.7342   0.6659     O
C       0.0792   0.4495   0.6585     C
Mn      0.0836  0.86758  0.76176    Mn
O       0.1058   0.3651  0.30462     O
C       0.1063   0.6759   0.1328     C
H       0.1109   0.9279   0.1074     H
H       0.1138   0.8673   0.9612     H
Mn     0.11703  0.25982  0.73811    Mn
C       0.1211   0.6373   0.0394     C
O       0.1305   0.0173  0.85144     O
H       0.1375   0.0935   0.9955     H
N       0.1429   0.5697   0.8732     N
H       0.1481   0.5422   0.8174     H
O       0.1508    0.518  0.70976     O
C       0.1808   0.1786   0.1502     C
C       0.1888   0.1046    0.846     C
C       0.1904   0.9109   0.0838     C
C       0.1952   0.1547   0.9993     C
C       0.1983   0.8817   0.9992     C
O        0.207   0.6817  0.18077     O
O       0.2138   0.1318  0.77808     O
O       0.2347   0.8051  0.82881     O
C        0.235   0.1805   0.9254     C
C       0.2366    0.217   0.0762     C
C       0.2425   0.6107   0.0102     C
C       0.2503   0.5765   0.9259     C
O        0.259   0.1575  0.20498     O
O       0.2599    0.778  0.39486     O
O       0.2919    0.353  0.80861     O
H       0.2999   0.9391    0.192     H
N       0.3008   0.9234   0.1351     N
H       0.3126   0.6173   0.0456     H
C        0.317   0.2739   0.9278     C
C       0.3177   0.3111   0.0795     C
O        0.321   0.9611  0.29672     O
C       0.3232   0.8664   0.9686     C
H       0.3309   0.5567   0.9014     H
C       0.3386    0.832   0.8762     C
O       0.3393    0.482  0.15476     O
C       0.3556   0.3381   0.0052     C
C       0.3607   0.3912   0.1579     C
C        0.371   0.3145   0.8537     C
Mn     0.37677  0.63014  0.24243    Mn
C       0.3777   0.8125    0.385     C
H       0.4054    0.399   0.0066     H
O       0.4165   0.3654  0.21916     O
C       0.4219   0.9089   0.1076     C
C       0.4244   0.0164   0.3313     C
C        0.436   0.8811   0.0234     C
C         0.44   0.9105   0.4433     C
O       0.4516   0.7696   0.3316     O
H       0.4546   0.8488   0.5463     H
O       0.4566   0.8301  0.85595     O
Mn     0.46014  0.22298  0.25879    Mn
C       0.4666    0.006   0.4183     C
C       0.4746   0.9062   0.5255     C
H       0.4835   0.1316   0.0001     H
O       0.4942   0.3135  0.84647     O
H        0.497     0.92   0.1475     H
O       0.4977   0.0807  0.29883     O
O       0.5023   0.9193  0.70117     O
H        0.503     0.08   0.8525     H
O       0.5058   0.6865  0.15353     O
H       0.5165   0.8684   0.9999     H
C       0.5254   0.0938   0.4745     C
C       0.5334    0.994   0.5817     C
Mn     0.53986  0.77702  0.74121    Mn
O       0.5434   0.1699  0.14405     O
H       0.5454   0.1512   0.4537     H
O       0.5484   0.2304   0.6684     O
C         0.56   0.0895   0.5567     C
C        0.564   0.1189   0.9766     C
C       0.5756   0.9836   0.6687     C
C       0.5781   0.0911   0.8924     C
O       0.5835   0.6346  0.78084     O
H       0.5946    0.601   0.9934     H
C       0.6223   0.1875    0.615     C
Mn     0.62323  0.36986  0.75757    Mn
C        0.629   0.6855   0.1463     C
C       0.6393   0.6088   0.8421     C
C       0.6444   0.6619   0.9948     C
O       0.6607    0.518  0.84524     O
C       0.6614    0.168   0.1238     C
H       0.6691   0.4433   0.0986     H
C       0.6768   0.1336   0.0314     C
O        0.679   0.0389  0.70328     O
C       0.6823   0.6889   0.9205     C
C        0.683   0.7261   0.0722     C
H       0.6874   0.3827   0.9544     H
N       0.6992   0.0766   0.8649     N
H       0.7001   0.0609    0.808     H
O       0.7081    0.647  0.19139     O
O       0.7401    0.222  0.60514     O
O        0.741   0.8425  0.79502     O
C       0.7497   0.4235   0.0741     C
C       0.7575   0.3893   0.9898     C
C       0.7634    0.783   0.9238     C
C        0.765   0.8195   0.0746     C
O       0.7653   0.1949  0.17119     O
O       0.7862   0.8682  0.22192     O
O        0.793   0.3183  0.81923     O
C       0.8017   0.1183   0.0008     C
C       0.8048   0.8453   0.0007     C
C       0.8096   0.0891   0.9162     C
C       0.8112   0.8954    0.154     C
C       0.8192   0.8214   0.8498     C
O       0.8492    0.482  0.29024     O
H       0.8519   0.4578   0.1826     H
N       0.8571   0.4303   0.1268     N
H       0.8625   0.9065   0.0045     H
O       0.8695   0.9827  0.14856     O
C       0.8789   0.3627   0.9606     C
Mn     0.88297  0.74018  0.26189    Mn
H       0.8862   0.1327   0.0388     H
H       0.8891   0.0721   0.8926     H
C       0.8937   0.3241   0.8672     C
O       0.8942   0.6349  0.69538     O
Mn      0.9164  0.13242  0.23824    Mn
C       0.9208   0.5505   0.3415     C
O       0.9273   0.2658   0.3341     O
H       0.9355     0.65   0.0013     H
H       0.9447   0.6644   0.4928     H
O       0.9449   0.8353  0.85147     O
H       0.9556   0.5923   0.8626     H
O       0.9618   0.6403  0.33123     O
C        0.964   0.5248   0.4239     C
C       0.9665    0.599   0.4969     C
C       0.9753   0.4045   0.1008     C
C       0.9886   0.3705   0.0175     C
C       0.9888   0.6534   0.6519     C
O       0.9923   0.6991  0.15056     O
C       0.9982    0.425   0.4268     C
