data_I
_chemical_name_common  '/home/zhangsd/repos/MofS-CGCNN/ML/data/SSD/clean_cifs/ISIKOL_clean'
_cell_length_a  7.27650
_cell_length_b 16.97910
_cell_length_c 17.06680
_cell_angle_alpha 90.00000
_cell_angle_beta  96.53800
_cell_angle_gamma 90.00000
_space_group_name_H-M_alt      'P 1'


loop_
_space_group_symop_operation_xyz
  'x, y, z' 

loop_
_atom_site_label
_atom_site_fract_x
_atom_site_fract_y
_atom_site_fract_z
_atom_site_type_symbol
N       0.0076  0.67589   0.8996     N
H       0.0246   0.7228   0.7927     H
H       0.0291   0.9456   0.4089     H
H       0.0306   0.5131   0.2986     H
C       0.0316   0.1743   0.8947     C
O        0.056  0.77094  0.23314     O
C       0.0598   0.9016   0.9721     C
H       0.0606   0.9179   0.2776     H
C       0.0615   0.9725   0.2943     C
Co      0.0653   0.2987  0.69338    Co
H       0.0701   0.8771    0.735     H
H       0.0723   0.4411   0.5539     H
C       0.0761    0.218   0.8223     C
C       0.0847   0.7139   0.8429     C
C       0.0905   0.4807   0.5146     C
H       0.0913   0.9263   0.9269     H
C       0.0917   0.4768   0.7209     C
H       0.1031   0.2203   0.5246     H
H       0.1049   0.4673   0.1317     H
C       0.1058   0.1392   0.0306     C
H       0.1108   0.0303   0.3999     H
C       0.1156   0.9762   0.3821     C
O       0.1158  0.68298  0.39872     O
N       0.1218  0.99248    0.731     N
H       0.1271   0.6512   0.0119     H
C       0.1332   0.8667   0.1065     C
C       0.1386   0.6743   0.9633     C
H       0.1417   0.4575   0.0435     H
C       0.1519  0.17608   0.9629     C
H       0.1541   0.9999    0.268     H
O       0.1575  0.44591  0.44883     O
C       0.1584   0.9167   0.7439     C
N       0.1699  0.40351  0.72971     N
H       0.1777   0.5195   0.5383     H
C        0.178   0.9059   0.0408     C
C       0.1794   0.3559    0.106     C
C       0.1864   0.4433   0.0974     C
O        0.195   0.1132   0.1667     O
H       0.2011   0.5864   0.7451     H
C       0.2125   0.2122   0.5574     C
H        0.215   0.8677   0.1526     H
C       0.2187   0.5322    0.745     C
O       0.2331  0.24398  0.81747     O
C       0.2352    0.144   0.1058     C
H       0.2355   0.7021   0.5363     H
H       0.2439   0.3319   0.0653     H
H       0.2446   0.3413   0.1566     H
N       0.2459  0.23725   0.6342     N
N       0.2541  0.73725   0.8658     N
H       0.2554   0.8413   0.3434     H
H       0.2561   0.8319   0.4347     H
H       0.2645   0.2021   0.9637     H
C       0.2648    0.644   0.3942     C
O       0.2669  0.74398  0.68253     O
C       0.2813   0.0322    0.755     C
H        0.285   0.3677   0.3474     H
C       0.2875   0.7122   0.9426     C
H       0.2989   0.0864   0.7549     H
O        0.305   0.6132   0.3333     O
C       0.3136   0.9433   0.4026     C
C       0.3206   0.8559    0.394     C
C        0.322   0.4059   0.4592     C
H       0.3223   0.0195   0.9617     H
N       0.3301  0.90351  0.77029     N
C       0.3416   0.4167   0.7561     C
O       0.3425  0.94591  0.05117     O
H       0.3459   0.4999    0.232     H
C       0.3481  0.67608   0.5371     C
H       0.3583   0.9575   0.4565     H
C       0.3614   0.1743   0.5367     C
C       0.3668   0.3667   0.3935     C
H       0.3729   0.1512   0.4881     H
N       0.3782  0.49248    0.769     N
O       0.3842  0.18298  0.10128     O
C       0.3844   0.4762   0.1179     C
H       0.3892   0.5303   0.1001     H
C       0.3942   0.6392   0.4694     C
H       0.3951   0.9673   0.3683     H
H       0.3969   0.7203   0.9754     H
C       0.4083   0.9768   0.7791     C
H       0.4087   0.4263   0.5731     H
C       0.4095   0.9807   0.9854     C
C       0.4153   0.2139   0.6571     C
C       0.4239    0.718   0.6777     C
H       0.4277   0.9411   0.9461     H
H       0.4299   0.3771    0.765     H
Co      0.4347   0.7987  0.80662    Co
C       0.4385   0.4725   0.2057     C
H       0.4394   0.4179   0.2224     H
C       0.4402   0.4016   0.5279     C
O        0.444  0.27094  0.26686     O
C       0.4684   0.6743   0.6053     C
H       0.4694   0.0131   0.2014     H
H       0.4709   0.4456   0.0911     H
H       0.4754   0.2228   0.7073     H
N       0.4924  0.17589   0.6004     N
N       0.5076  0.82411   0.3996     N
H       0.5246   0.7772   0.2927     H
H       0.5291   0.5544   0.9089     H
H       0.5306   0.9869   0.7986     H
C       0.5316   0.3257   0.3947     C
O        0.556  0.72906  0.73314     O
C       0.5598   0.5984   0.4721     C
H       0.5606   0.5821   0.7776     H
C       0.5615   0.5275   0.7943     C
Co      0.5653   0.2013  0.19338    Co
H       0.5701   0.6229    0.235     H
H       0.5723   0.0589   0.0539     H
C       0.5761    0.282   0.3223     C
C       0.5847   0.7861   0.3429     C
C       0.5905   0.0193   0.0146     C
H       0.5913   0.5737   0.4269     H
C       0.5917   0.0232   0.2209     C
H       0.6031   0.2797   0.0246     H
H       0.6049   0.0327   0.6317     H
C       0.6058   0.3608   0.5306     C
H       0.6108   0.4697   0.8999     H
C       0.6156   0.5238   0.8821     C
O       0.6158  0.81702  0.89872     O
N       0.6218  0.50752    0.231     N
H       0.6271   0.8488   0.5119     H
C       0.6332   0.6333   0.6065     C
C       0.6386   0.8257   0.4633     C
H       0.6417   0.0425   0.5435     H
C       0.6519  0.32392   0.4629     C
H       0.6541   0.5001    0.768     H
O       0.6575  0.05409  0.94883     O
C       0.6584   0.5833   0.2439     C
N       0.6699  0.09649  0.22971     N
H       0.6777   0.9805   0.0383     H
C        0.678   0.5941   0.5408     C
C       0.6794   0.1441    0.606     C
C       0.6864   0.0567   0.5974     C
O        0.695   0.3868   0.6667     O
H       0.7011   0.9136   0.2451     H
C       0.7125   0.2878   0.0574     C
H        0.715   0.6323   0.6526     H
C       0.7187   0.9678    0.245     C
O       0.7331  0.25602  0.31747     O
C       0.7352    0.356   0.6058     C
H       0.7355   0.7979   0.0363     H
H       0.7439   0.1681   0.5653     H
H       0.7446   0.1587   0.6566     H
N       0.7459  0.26275   0.1342     N
N       0.7541  0.76275   0.3658     N
H       0.7554   0.6587   0.8434     H
H       0.7561   0.6681   0.9347     H
H       0.7645   0.2979   0.4637     H
C       0.7648    0.856   0.8942     C
O       0.7669  0.75602  0.18253     O
C       0.7813   0.4678    0.255     C
H        0.785   0.1323   0.8474     H
C       0.7875   0.7878   0.4426     C
H       0.7989   0.4136   0.2549     H
O        0.805   0.8868   0.8333     O
C       0.8136   0.5567   0.9026     C
C       0.8206   0.6441    0.894     C
C        0.822   0.0941   0.9592     C
H       0.8223   0.4805   0.4617     H
N       0.8301  0.59649  0.27029     N
C       0.8416   0.0833   0.2561     C
O       0.8425  0.55409  0.55117     O
H       0.8459   0.0001    0.732     H
C       0.8481  0.82392   0.0371     C
H       0.8583   0.5425   0.9565     H
C       0.8614   0.3257   0.0367     C
C       0.8668   0.1333   0.8935     C
H       0.8729   0.3488   0.9881     H
N       0.8782  0.00752    0.269     N
O       0.8842  0.31702  0.60128     O
C       0.8844   0.0238   0.6179     C
H       0.8892   0.9697   0.6001     H
C       0.8942   0.8608   0.9694     C
H       0.8951   0.5327   0.8683     H
H       0.8969   0.7797   0.4754     H
C       0.9083   0.5232   0.2791     C
H       0.9087   0.0737   0.0731     H
C       0.9095   0.5193   0.4854     C
C       0.9153   0.2861   0.1571     C
C       0.9239    0.782   0.1777     C
H       0.9277   0.5589   0.4461     H
H       0.9299   0.1229    0.265     H
Co      0.9347   0.7013  0.30662    Co
C       0.9385   0.0275   0.7057     C
H       0.9394   0.0821   0.7224     H
C       0.9402   0.0984   0.0279     C
O        0.944  0.22906  0.76686     O
C       0.9684   0.8257   0.1053     C
H       0.9694   0.4869   0.7014     H
H       0.9709   0.0544   0.5911     H
H       0.9754   0.2772   0.2073     H
N       0.9924  0.32411   0.1004     N
