data_I
_chemical_name_common  '/home/zhangsd/repos/MofS-CGCNN/ML/data/SSD/clean_cifs/ITIWEO_clean'
_cell_length_a 15.95060
_cell_length_b 15.95060
_cell_length_c 21.12500
_cell_angle_alpha 90.00000
_cell_angle_beta  90.00000
_cell_angle_gamma 90.00000
_space_group_name_H-M_alt      'P 1'


loop_
_space_group_symop_operation_xyz
  'x, y, z' 

loop_
_atom_site_label
_atom_site_fract_x
_atom_site_fract_y
_atom_site_fract_z
_atom_site_type_symbol
C       0.0041   0.1655   0.4633     C
C       0.0044   0.1247   0.1797     C
H       0.0053   0.2376   0.8233     H
H       0.0056   0.7998   0.7919     H
N       0.0073   0.0435   0.1829     N
N       0.0126   0.9463   0.8571     N
C       0.0165   0.2323   0.5047     C
N       0.0275    0.187   0.7426     N
C       0.0375   0.2429   0.7857     C
H       0.0396   0.6661   0.0427     H
H       0.0397   0.8852   0.4029     H
C        0.042   0.2203   0.2696     C
N       0.0435   0.0073   0.8171     N
H       0.0451   0.1224   0.4601     H
C       0.0454   0.7081   0.0111     C
N       0.0537   0.9874   0.6429     N
H       0.0539   0.7342   0.6468     H
N        0.054   0.8529   0.6385     N
H       0.0549   0.7618   0.5797     H
Cd     0.05947  0.94053     0.25    Cd
C       0.0603   0.1894   0.2105     C
H       0.0604   0.1547   0.6588     H
H        0.067   0.2367   0.5282     H
C       0.0677   0.8383   0.9268     C
C       0.0691   0.1947   0.6914     C
N        0.076   0.7717    0.619     N
C       0.0765   0.9068   0.8839     C
H       0.0812   0.3033   0.3377     H
H       0.0871   0.7812   0.4679     H
C       0.0897   0.8567   0.3913     C
C       0.0913   0.3098   0.7814     C
C       0.0932   0.9235   0.6161     C
C       0.0937   0.2815    0.297     C
H       0.0951   0.3495   0.8148     H
H       0.1148   0.9603   0.0971     H
C       0.1173   0.7074   0.9722     C
C       0.1178   0.7947   0.4307     C
N       0.1206   0.8737   0.1608     N
H       0.1224   0.0451   0.5399     H
C       0.1247   0.0044   0.8203     C
N       0.1263   0.8794   0.3392     N
C       0.1276   0.2599   0.6808     C
C       0.1277    0.775   0.9316     C
C       0.1301   0.2139   0.1786     C
H       0.1324     0.77   0.2073     H
C       0.1401   0.3182   0.7275     C
C       0.1433   0.9103   0.1087     C
H       0.1451   0.1871   0.1401     H
N       0.1471    0.946   0.8615     N
H       0.1503   0.6985   0.5329     H
H       0.1505   0.5951   0.0648     H
C       0.1531   0.8006    0.172     C
H       0.1547   0.0604   0.3412     H
H       0.1576   0.2632    0.642     H
C       0.1617   0.9323   0.5732     C
C       0.1623   0.3093   0.2643     C
C       0.1655   0.0041   0.5367     C
H       0.1661   0.4604   0.7927     H
H       0.1769   0.7783   0.9064     H
C       0.1796   0.2781   0.2025     C
C       0.1818   0.6401   0.9775     C
N        0.187   0.0275   0.2574     N
H       0.1871   0.1451   0.8599     H
C       0.1894   0.0603   0.7895     C
C       0.1902   0.5913   0.0314     C
C       0.1904   0.7518   0.4167     C
C       0.1907   0.6623   0.5143     C
C       0.1947   0.0691   0.3086     C
H       0.1967   0.5812   0.5877     H
H       0.1985   0.3497   0.2829     H
C       0.1994   0.8469    0.328     C
H       0.2002   0.9944   0.7081     H
C       0.2053   0.8822   0.0693     C
C       0.2074   0.3827   0.7222     C
C       0.2081   0.4546   0.7611     C
H       0.2094    0.261   0.8948     H
C       0.2139   0.1301   0.8214     C
C       0.2175   0.7634    0.135     C
C       0.2185   0.5937    0.547     C
H       0.2188   0.9129   0.0321     H
C       0.2203    0.042   0.7304     C
H       0.2217   0.8231   0.5936     H
C       0.2219   0.6796   0.4525     C
C        0.225   0.8723   0.5684     C
N       0.2283    0.924    0.881     N
H         0.23   0.8676   0.2927     H
C       0.2323   0.0165   0.4953     C
H       0.2342   0.4461   0.3968     H
C       0.2366   0.7825    0.365     C
H       0.2367    0.067   0.4718     H
H       0.2368   0.6576    0.892     H
H       0.2376   0.0053   0.1767     H
H       0.2382   0.9451   0.9203     H
H        0.239   0.7094   0.1448     H
C       0.2401   0.6276   0.9308     C
C       0.2429   0.0375   0.2143     C
C       0.2482   0.8096   0.0833     C
C       0.2518   0.3096   0.1667     C
C       0.2571   0.5375   0.0357     C
C       0.2599   0.1276   0.3192     C
H        0.261   0.2094   0.1052     H
H       0.2618   0.4451   0.3297     H
H       0.2624   0.5053   0.0733     H
H       0.2632   0.1576    0.358     H
H       0.2633    0.567   0.7782     H
C       0.2634   0.2825    0.885     C
H       0.2658   0.9461   0.8532     H
C       0.2677   0.5165   0.7547     C
H         0.27   0.3676   0.9573     H
N       0.2717    0.424    0.369     N
C        0.275   0.3723   0.6816     C
C       0.2781   0.1796   0.7975     C
H       0.2783   0.3231   0.6564     H
C       0.2797    0.542   0.5196     C
H       0.2812   0.4129   0.2179     H
C       0.2815   0.0937    0.703     C
C       0.2825   0.2634    0.115     C
C       0.2861   0.6301   0.4286     C
H       0.2906    0.761   0.3552     H
C       0.2919   0.9546   0.4889     C
C       0.2926   0.8827   0.5278     C
C       0.2947   0.3822   0.1807     C
H       0.2998   0.4944   0.5419     H
C       0.3006   0.3469    0.922     C
H       0.3015   0.8497   0.9671     H
H       0.3033   0.0812   0.6623     H
C       0.3053   0.5691   0.9414     C
C       0.3093   0.1623   0.7357     C
C       0.3096   0.2518   0.8333     C
C       0.3098   0.0913   0.2186     C
C       0.3106   0.5603   0.4605     C
H       0.3129   0.6451   0.3901     H
N        0.313   0.5275   0.9926     N
C       0.3182   0.1401   0.2725     C
C       0.3204   0.7781   0.0475     C
H       0.3231   0.2783   0.3436     H
H       0.3339   0.9604   0.4573     H
C       0.3345   0.5041   0.7133     C
C       0.3377   0.8093   0.9857     C
C       0.3383   0.4323   0.6768     C
H       0.3424   0.7632    0.608     H
H       0.3453   0.5604   0.9088     H
C       0.3469   0.3006    0.078     C
H       0.3495   0.0951   0.1852     H
H       0.3497   0.1985   0.7171     H
N       0.3529    0.446   0.3885     N
H       0.3549   0.6871   0.1099     H
C       0.3567   0.4103   0.1413     C
C       0.3599   0.8182   0.5225     C
H       0.3676     0.27   0.0427     H
C       0.3699   0.7139   0.0714     C
C       0.3723    0.275   0.3184     C
C       0.3724   0.7599   0.5692     C
N       0.3737   0.3794   0.9108     N
C       0.3753   0.5044   0.4297     C
H       0.3776   0.5451   0.7101     H
N       0.3794   0.3737   0.0892     N
C       0.3822   0.2947   0.8193     C
C       0.3827   0.2074   0.2778     C
H       0.3852   0.4603   0.1529     H
H       0.4049   0.8495   0.4352     H
C       0.4063   0.7815    0.953     C
C       0.4068   0.4235   0.6339     C
C       0.4087   0.8098   0.4686     C
C       0.4103   0.3567   0.8587     C
H       0.4129   0.2812   0.7821     H
H       0.4188   0.8033   0.9123     H
C       0.4235   0.4068   0.3661     C
N        0.424   0.2717    0.631     N
C       0.4309   0.6947   0.5586     C
C       0.4323   0.3383   0.3232     C
H        0.433   0.7367   0.7218     H
H       0.4396   0.6547   0.5912     H
C       0.4397   0.6894   0.0395     C
Cd     0.44053  0.44053      0.0    Cd
H       0.4451   0.2618   0.6703     H
N        0.446   0.3529   0.6115     N
H       0.4461   0.2342   0.6032     H
N       0.4463   0.4874   0.6071     N
C       0.4546   0.2081   0.2389     C
H       0.4549   0.6224   0.7899     H
N       0.4565   0.5073   0.4329     N
C        0.458   0.7203   0.9804     C
H       0.4603   0.3852   0.8471     H
H       0.4604   0.1661   0.2073     H
C       0.4625   0.7429   0.4643     C
N       0.4725    0.687   0.5074     N
C       0.4835   0.7323   0.7453     C
N       0.4874   0.4463   0.3929     N
N       0.4927   0.5435   0.0671     N
H       0.4944   0.2998   0.4581     H
H       0.4947   0.7376   0.4267     H
C       0.4956   0.6247   0.0703     C
C       0.4959   0.6655   0.7867     C
C       0.5041   0.3345   0.2867     C
C       0.5044   0.3753   0.5703     C
H       0.5053   0.2624   0.9267     H
H       0.5056   0.7002   0.9581     H
N       0.5073   0.4565   0.5671     N
N       0.5126   0.5537   0.8929     N
C       0.5165   0.2677   0.2453     C
N       0.5275    0.313   0.0074     N
C       0.5375   0.2571   0.9643     C
H       0.5396   0.8339   0.7073     H
H       0.5397   0.6148   0.3471     H
C        0.542   0.2797   0.4804     C
N       0.5435   0.4927   0.9329     N
H       0.5451   0.3776   0.2899     H
C       0.5454   0.7919   0.7389     C
N       0.5537   0.5126   0.1071     N
H       0.5539   0.7658   0.1032     H
N        0.554   0.6471   0.1115     N
H       0.5549   0.7382   0.1703     H
Cd     0.55947  0.55947      0.5    Cd
C       0.5603   0.3106   0.5395     C
H       0.5604   0.3453   0.0912     H
H        0.567   0.2633   0.2218     H
C       0.5677   0.6617   0.8232     C
C       0.5691   0.3053   0.0586     C
N        0.576   0.7283    0.131     N
C       0.5765   0.5932   0.8661     C
H       0.5812   0.1967   0.4123     H
H       0.5871   0.7188   0.2821     H
C       0.5897   0.6433   0.3587     C
C       0.5913   0.1902   0.9686     C
C       0.5932   0.5765   0.1339     C
C       0.5937   0.2185    0.453     C
H       0.5951   0.1505   0.9352     H
H       0.6148   0.5397   0.6529     H
C       0.6173   0.7926   0.7778     C
C       0.6178   0.7053   0.3193     C
N       0.6206   0.6263   0.5892     N
H       0.6224   0.4549   0.2101     H
C       0.6247   0.4956   0.9297     C
N       0.6263   0.6206   0.4108     N
C       0.6276   0.2401   0.0692     C
C       0.6277    0.725   0.8184     C
C       0.6301   0.2861   0.5714     C
H       0.6324     0.73   0.5427     H
C       0.6401   0.1818   0.0225     C
C       0.6433   0.5897   0.6413     C
H       0.6451   0.3129   0.6099     H
N       0.6471    0.554   0.8885     N
H       0.6503   0.8015   0.2171     H
H       0.6505   0.9049   0.6852     H
C       0.6531   0.6994    0.578     C
H       0.6547   0.4396   0.4088     H
H       0.6576   0.2368    0.108     H
C       0.6617   0.5677   0.1768     C
C       0.6623   0.1907   0.4857     C
C       0.6655   0.4959   0.2133     C
H       0.6661   0.0396   0.9573     H
H       0.6769   0.7217   0.8436     H
C       0.6796   0.2219   0.5475     C
C       0.6818   0.8599   0.7725     C
N        0.687   0.4725   0.4926     N
H       0.6871   0.3549   0.8901     H
C       0.6894   0.4397   0.9605     C
C       0.6902   0.9087   0.7186     C
C       0.6904   0.7482   0.3333     C
C       0.6907   0.8377   0.2357     C
C       0.6947   0.4309   0.4414     C
H       0.6967   0.9188   0.1623     H
H       0.6985   0.1503   0.4671     H
C       0.6994   0.6531    0.422     C
H       0.7002   0.5056   0.0419     H
C       0.7053   0.6178   0.6807     C
C       0.7074   0.1173   0.0278     C
C       0.7081   0.0454   0.9889     C
H       0.7094    0.239   0.8552     H
C       0.7139   0.3699   0.9286     C
C       0.7175   0.7366    0.615     C
C       0.7185   0.9063    0.203     C
H       0.7188   0.5871   0.7179     H
C       0.7203    0.458   0.0196     C
H       0.7217   0.6769   0.1564     H
C       0.7219   0.8204   0.2975     C
C        0.725   0.6277   0.1816     C
N       0.7283    0.576    0.869     N
H         0.73   0.6324   0.4573     H
C       0.7323   0.4835   0.2547     C
H       0.7342   0.0539   0.3532     H
C       0.7366   0.7175    0.385     C
H       0.7367    0.433   0.2782     H
H       0.7368   0.8424    0.858     H
H       0.7376   0.4947   0.5733     H
H       0.7382   0.5549   0.8297     H
H        0.739   0.7906   0.6052     H
C       0.7401   0.8724   0.8192     C
C       0.7429   0.4625   0.5357     C
C       0.7482   0.6904   0.6667     C
C       0.7518   0.1904   0.5833     C
C       0.7571   0.9625   0.7143     C
C       0.7599   0.3724   0.4308     C
H        0.761   0.2906   0.6448     H
H       0.7618   0.0549   0.4203     H
H       0.7624   0.9947   0.6767     H
H       0.7632   0.3424    0.392     H
H       0.7633    0.933   0.9718     H
C       0.7634   0.2175    0.865     C
H       0.7658   0.5539   0.8968     H
C       0.7677   0.9835   0.9953     C
H         0.77   0.1324   0.7927     H
N       0.7717    0.076    0.381     N
C        0.775   0.1277   0.0684     C
C       0.7781   0.3204   0.9525     C
H       0.7783   0.1769   0.0936     H
C       0.7797    0.958   0.2304     C
H       0.7812   0.0871   0.5321     H
C       0.7815   0.4063    0.047     C
C       0.7825   0.2366    0.635     C
C       0.7861   0.8699   0.3214     C
H       0.7906    0.739   0.3948     H
C       0.7919   0.5454   0.2611     C
C       0.7926   0.6173   0.2222     C
C       0.7947   0.1178   0.5693     C
H       0.7998   0.0056   0.2081     H
C       0.8006   0.1531    0.828     C
H       0.8015   0.6503   0.7829     H
H       0.8033   0.4188   0.0877     H
C       0.8053   0.9309   0.8086     C
C       0.8093   0.3377   0.0143     C
C       0.8096   0.2482   0.9167     C
C       0.8098   0.4087   0.5314     C
C       0.8106   0.9397   0.2895     C
H       0.8129   0.8549   0.3599     H
N        0.813   0.9725   0.7574     N
C       0.8182   0.3599   0.4775     C
C       0.8204   0.7219   0.7025     C
H       0.8231   0.2217   0.4064     H
H       0.8339   0.5396   0.2927     H
C       0.8345   0.9959   0.0367     C
C       0.8377   0.6907   0.7643     C
C       0.8383   0.0677   0.0732     C
H       0.8424   0.7368    0.142     H
H       0.8453   0.9396   0.8412     H
C       0.8469   0.1994    0.672     C
H       0.8495   0.4049   0.5648     H
H       0.8497   0.3015   0.0329     H
N       0.8529    0.054   0.3615     N
H       0.8549   0.8129   0.6401     H
C       0.8567   0.0897   0.6087     C
C       0.8599   0.6818   0.2275     C
H       0.8676     0.23   0.7073     H
C       0.8699   0.7861   0.6786     C
C       0.8723    0.225   0.4316     C
C       0.8724   0.7401   0.1808     C
N       0.8737   0.1206   0.8392     N
C       0.8753   0.9956   0.3203     C
H       0.8776   0.9549   0.0399     H
N       0.8794   0.1263   0.6608     N
C       0.8822   0.2053   0.9307     C
C       0.8827   0.2926   0.4722     C
H       0.8852   0.0397   0.5971     H
H       0.9049   0.6505   0.3148     H
C       0.9063   0.7185    0.797     C
C       0.9068   0.0765   0.1161     C
C       0.9087   0.6902   0.2814     C
C       0.9103   0.1433   0.8913     C
H       0.9129   0.2188   0.9679     H
H       0.9188   0.6967   0.8377     H
C       0.9235   0.0932   0.3839     C
N        0.924   0.2283    0.119     N
C       0.9309   0.8053   0.1914     C
C       0.9323   0.1617   0.4268     C
H        0.933   0.7633   0.0282     H
H       0.9396   0.8453   0.1588     H
C       0.9397   0.8106   0.7105     C
Cd     0.94053  0.05947     0.75    Cd
H       0.9451   0.2382   0.0797     H
N        0.946   0.1471   0.1385     N
H       0.9461   0.2658   0.1468     H
N       0.9463   0.0126   0.1429     N
C       0.9546   0.2919   0.5111     C
H       0.9549   0.8776   0.9601     H
N       0.9565   0.9927   0.3171     N
C        0.958   0.7797   0.7696     C
H       0.9603   0.1148   0.9029     H
H       0.9604   0.3339   0.5427     H
C       0.9625   0.7571   0.2857     C
N       0.9725    0.813   0.2426     N
C       0.9835   0.7677   0.0047     C
N       0.9874   0.0537   0.3571     N
N       0.9927   0.9565   0.6829     N
H       0.9944   0.2002   0.2919     H
H       0.9947   0.7624   0.3233     H
C       0.9956   0.8753   0.6797     C
C       0.9959   0.8345   0.9633     C
