data_I
_chemical_name_common  '/home/zhangsd/repos/MofS-CGCNN/ML/data/SSD/clean_cifs/ITIWAK_clean'
_cell_length_a 15.83460
_cell_length_b 15.83460
_cell_length_c 21.46300
_cell_angle_alpha 90.00000
_cell_angle_beta  90.00000
_cell_angle_gamma 90.00000
_space_group_name_H-M_alt      'P 1'


loop_
_space_group_symop_operation_xyz
  'x, y, z' 

loop_
_atom_site_label
_atom_site_fract_x
_atom_site_fract_y
_atom_site_fract_z
_atom_site_type_symbol
C       0.0034   0.8753   0.5687     C
C       0.0065   0.8349   0.2887     C
N       0.0083   0.9559   0.5663     N
H        0.009   0.2019   0.9568     H
H       0.0091   0.7621   0.9258     H
N       0.0105   0.0527   0.8946     N
C       0.0209   0.7683    0.249     C
N       0.0236   0.8125   0.0091     N
H       0.0371   0.1117   0.3468     H
H       0.0383   0.3353     0.71     H
C       0.0389   0.7554   0.9639     C
C       0.0396   0.7799    0.479     C
H        0.041   0.2503   0.1534     H
C       0.0432   0.2937   0.7417     C
N       0.0441   0.9917   0.9337     N
H       0.0459     0.88   0.2909     H
N       0.0527   0.0105   0.1054     N
C       0.0573   0.8112   0.5372     C
H       0.0578   0.8389   0.0931     H
N       0.0598    0.147   0.1082     N
Cd     0.06021  0.06021      0.5    Cd
C       0.0656   0.1637   0.8254     C
C       0.0664   0.7997   0.0602     C
H       0.0727   0.7638   0.2269     H
C       0.0743   0.0922   0.8692     C
N       0.0812    0.231   0.1267     N
H        0.083   0.2648   0.0924     H
H        0.084    0.701   0.4126     H
H       0.0863   0.2156   0.2819     H
C       0.0873   0.1408    0.358     C
C       0.0922   0.0743   0.1308     C
C       0.0937   0.6885    0.968     C
C       0.0943   0.7214   0.4535     C
H       0.0997   0.6494   0.9347     H
C       0.1116   0.2934     0.78     C
H       0.1117   0.0371   0.6532     H
C       0.1168   0.2022   0.3187     C
N       0.1194   0.1255   0.5884     N
H         0.12   0.9541   0.2091     H
C        0.123   0.7351   0.0713     C
C       0.1247   0.2265   0.8201     C
C       0.1247   0.9966   0.9313     C
N       0.1255   0.1194   0.4116     N
C       0.1276   0.7829   0.5703     C
H       0.1388    0.805   0.6106     H
C       0.1399   0.6801   0.0225     C
C       0.1408   0.0873    0.642     C
H       0.1413   0.2307   0.5409     H
N        0.147   0.0598   0.8918     N
H       0.1493   0.7285   0.1108     H
H       0.1494   0.4003   0.6847     H
H       0.1503    0.301   0.2176     H
C       0.1574   0.2003   0.5771     C
H       0.1611   0.9422   0.4069     H
C       0.1636   0.6919   0.4859     C
C       0.1637   0.0656   0.1746     C
H       0.1647   0.5383     0.96     H
C       0.1651   0.9935   0.2113     C
H       0.1749    0.224   0.8443     H
C       0.1801   0.3601   0.7725     C
C       0.1822    0.722   0.5448     C
N       0.1875   0.9764   0.4909     N
C       0.1885   0.4063    0.718     C
C       0.1888   0.9427   0.9628     C
C       0.1919   0.3364   0.2359     C
C       0.1923   0.2457   0.3327     C
H        0.195   0.8612   0.8894     H
H        0.199   0.6503   0.4676     H
C       0.2003   0.1574   0.4229     C
C       0.2003   0.9336   0.4398     C
H        0.201    0.416   0.1626     H
H       0.2019    0.009   0.0432     H
C       0.2022   0.1168   0.6813     C
C       0.2063   0.5432   0.9917     C
C       0.2066   0.6116     0.03     C
H       0.2113   0.7413   0.8552     H
H       0.2156   0.0863   0.7181     H
C       0.2171   0.8724   0.9297     C
C       0.2182   0.2349    0.615     C
C       0.2201   0.9604    0.021     C
C       0.2214   0.4057   0.2035     C
C        0.222   0.3178   0.2948     C
H        0.224   0.1749   0.1557     H
C       0.2265   0.1247   0.1799     C
H       0.2285   0.3507   0.8608     H
H       0.2307   0.1413   0.4591     H
N        0.231   0.0812   0.8733     N
C       0.2317   0.9791    0.251     C
C       0.2349   0.2182    0.385     C
C       0.2351    0.377   0.8213     C
H       0.2352    0.583   0.3424     H
H       0.2362   0.9273   0.2731     H
H       0.2379   0.9909   0.5742     H
H       0.2413   0.2887   0.6052     H
C       0.2446   0.9611   0.5361     C
C       0.2457   0.1923   0.6673     C
H       0.2497    0.541   0.4034     H
H       0.2503    0.041   0.8466     H
C       0.2543   0.6923   0.5827     C
C       0.2554   0.4611   0.7139     C
H       0.2587   0.7887   0.6448     H
H       0.2621   0.4909   0.6758     H
H       0.2638   0.4273   0.9769     H
H       0.2648    0.083   0.9076     H
C       0.2649    0.877   0.4287     C
C       0.2651   0.7182    0.865     C
C       0.2683   0.4791    0.999     C
N        0.269   0.5812   0.3767     N
H       0.2693   0.6413   0.7909     H
H       0.2715   0.8507   0.3892     H
C       0.2735   0.6247   0.0701     C
H        0.276   0.6749   0.0943     H
C        0.278   0.8178   0.9552     C
C       0.2786   0.9057   0.0465     C
C       0.2799   0.4604    0.229     C
C       0.2818   0.7349    0.635     C
C       0.2829   0.3724   0.3203     C
H       0.2844   0.5863   0.5319     H
H       0.2887   0.2413   0.3948     H
C       0.2934   0.1116     0.22     C
C       0.2937   0.0432   0.2583     C
C       0.2978   0.6168   0.5687     C
H       0.2981    0.509   0.2068     H
H        0.299    0.916   0.0874     H
C       0.2997   0.4336   0.8102     C
C       0.2997   0.6574   0.8271     C
H        0.301   0.1503   0.7824     H
H        0.305   0.3612   0.3606     H
C       0.3077   0.7457   0.9173     C
C       0.3081   0.8364   0.0141     C
C       0.3112   0.4427   0.2872     C
C       0.3115   0.9063    0.532     C
N       0.3125   0.4764   0.7591     N
C       0.3178    0.222   0.7052     C
C       0.3199   0.8601   0.4775     C
H       0.3251    0.724   0.4057     H
C       0.3349   0.4935   0.0387     C
H       0.3353   0.0383     0.29     H
C       0.3363   0.5656   0.0754     C
C       0.3364   0.1919   0.7641     C
H       0.3389   0.4422   0.8431     H
C       0.3426   0.7003   0.6729     C
H       0.3497    0.801   0.0324     H
H       0.3506   0.9003   0.5653     H
H       0.3507   0.2285   0.1392     H
N        0.353   0.5598   0.3582     N
H       0.3587   0.7307   0.7091     H
C       0.3592   0.5873    0.608     C
C       0.3601   0.1801   0.2275     C
H       0.3612    0.305   0.6394     H
C       0.3724   0.2829   0.6797     C
N       0.3745   0.6194   0.8384     N
C       0.3753   0.4966   0.3187     C
C       0.3753   0.7265   0.4299     C
C        0.377   0.2351   0.1787     C
H         0.38   0.4541   0.0409     H
N       0.3806   0.6255   0.6616     N
C       0.3832   0.7022   0.9313     C
H       0.3883   0.5371   0.5968     H
C       0.3884   0.7934     0.47     C
H       0.4003   0.1494   0.3153     H
C       0.4057   0.2214   0.7965     C
C       0.4063   0.1885    0.282     C
C       0.4078   0.5743   0.1192     C
C       0.4127   0.6408    0.892     C
H       0.4137   0.7156   0.9681     H
H        0.416    0.201   0.8374     H
H        0.417   0.7648   0.1576     H
N       0.4188    0.731   0.1233     N
C       0.4257   0.5922   0.3808     C
H       0.4273   0.2638   0.0231     H
C       0.4336   0.2997   0.1898     C
C       0.4344   0.6637   0.4246     C
Cd     0.43979  0.56021     0.75    Cd
N       0.4402    0.647   0.1418     N
H       0.4422   0.3389   0.1569     H
C       0.4427   0.3112   0.7128     C
N       0.4473   0.5105   0.1446     N
H       0.4541     0.38   0.9591     H
N       0.4559   0.4917   0.3163     N
C       0.4568   0.7937   0.5083     C
H        0.459   0.7503   0.0966     H
C       0.4604   0.2799    0.771     C
C       0.4611   0.2554   0.2861     C
H       0.4617   0.8353     0.54     H
H       0.4629   0.6117   0.9032     H
N       0.4764   0.3125   0.2409     N
C       0.4791   0.2683    0.001     C
N       0.4895   0.5527   0.3554     N
H       0.4909   0.2621   0.3242     H
H        0.491   0.7019   0.2932     H
N       0.4917   0.4559   0.6837     N
C       0.4935   0.3349   0.9613     C
C       0.4966   0.3753   0.6813     C
C       0.5034   0.6247   0.1813     C
C       0.5065   0.6651   0.4613     C
N       0.5083   0.5441   0.1837     N
H        0.509   0.2981   0.7932     H
H       0.5091   0.7379   0.8242     H
N       0.5105   0.4473   0.8554     N
C       0.5209   0.7317    0.501     C
N       0.5236   0.6875   0.7409     N
H       0.5371   0.3883   0.4032     H
H       0.5383   0.1647     0.04     H
C       0.5389   0.7446   0.7861     C
C       0.5396   0.7201    0.271     C
H        0.541   0.2497   0.5966     H
C       0.5432   0.2063   0.0083     C
N       0.5441   0.5083   0.8163     N
H       0.5459     0.62   0.4591     H
N       0.5527   0.4895   0.6446     N
C       0.5573   0.6888   0.2128     C
H       0.5578   0.6611   0.6569     H
N       0.5598    0.353   0.6418     N
Cd     0.56021  0.43979     0.25    Cd
C       0.5656   0.3363   0.9246     C
C       0.5664   0.7003   0.6898     C
H       0.5727   0.7362   0.5231     H
C       0.5743   0.4078   0.8808     C
N       0.5812    0.269   0.6233     N
H        0.583   0.2352   0.6576     H
H        0.584    0.799   0.3374     H
H       0.5863   0.2844   0.4681     H
C       0.5873   0.3592    0.392     C
C       0.5922   0.4257   0.6192     C
C       0.5937   0.8115    0.782     C
C       0.5943   0.7786   0.2965     C
H       0.5997   0.8506   0.8153     H
C       0.6116   0.2066     0.97     C
H       0.6117   0.4629   0.0968     H
C       0.6168   0.2978   0.4313     C
N       0.6194   0.3745   0.1616     N
H         0.62   0.5459   0.5409     H
C        0.623   0.7649   0.6787     C
C       0.6247   0.2735   0.9299     C
C       0.6247   0.5034   0.8187     C
N       0.6255   0.3806   0.3384     N
C       0.6276   0.7171   0.1797     C
H       0.6388    0.695   0.1394     H
C       0.6399   0.8199   0.7275     C
C       0.6408   0.4127    0.108     C
H       0.6413   0.2693   0.2091     H
N        0.647   0.4402   0.8582     N
H       0.6493   0.7715   0.6392     H
H       0.6494   0.0997   0.0653     H
H       0.6503    0.199   0.5324     H
C       0.6574   0.2997   0.1729     C
H       0.6611   0.5578   0.3431     H
C       0.6636   0.8081   0.2641     C
C       0.6637   0.4344   0.5754     C
H       0.6647   0.9617     0.79     H
C       0.6651   0.5065   0.5387     C
H       0.6749    0.276   0.9057     H
C       0.6801   0.1399   0.9775     C
C       0.6822    0.778   0.2052     C
N       0.6875   0.5236   0.2591     N
C       0.6885   0.0937    0.032     C
C       0.6888   0.5573   0.7872     C
C       0.6919   0.1636   0.5141     C
C       0.6923   0.2543   0.4173     C
H        0.695   0.6388   0.8606     H
H        0.699   0.8497   0.2824     H
C       0.7003   0.3426   0.3271     C
C       0.7003   0.5664   0.3102     C
H        0.701    0.084   0.5874     H
H       0.7019    0.491   0.7068     H
C       0.7022   0.3832   0.0687     C
C       0.7063   0.9568   0.7583     C
C       0.7066   0.8884     0.72     C
H       0.7113   0.7587   0.8948     H
H       0.7156   0.4137   0.0319     H
C       0.7171   0.6276   0.8203     C
C       0.7182   0.2651    0.135     C
C       0.7201   0.5396    0.729     C
C       0.7214   0.0943   0.5465     C
C        0.722   0.1822   0.4552     C
H        0.724   0.3251   0.5943     H
C       0.7265   0.3753   0.5701     C
H       0.7285   0.1493   0.8892     H
H       0.7307   0.3587   0.2909     H
N        0.731   0.4188   0.8767     N
C       0.7317   0.5209    0.499     C
C       0.7349   0.2818    0.365     C
C       0.7351    0.123   0.9287     C
H       0.7352    0.917   0.4076     H
H       0.7362   0.5727   0.4769     H
H       0.7379   0.5091   0.1758     H
H       0.7413   0.2113   0.1448     H
C       0.7446   0.5389   0.2139     C
C       0.7457   0.3077   0.0827     C
H       0.7497    0.959   0.3466     H
H       0.7503    0.459   0.9034     H
C       0.7543   0.8077   0.1673     C
C       0.7554   0.0389   0.0361     C
H       0.7587   0.7113   0.1052     H
H       0.7621   0.0091   0.0742     H
H       0.7638   0.0727   0.7731     H
H       0.7648    0.417   0.8424     H
C       0.7649    0.623   0.3213     C
C       0.7651   0.7818    0.885     C
C       0.7683   0.0209    0.751     C
N        0.769   0.9188   0.3733     N
H       0.7693   0.8587   0.9591     H
H       0.7715   0.6493   0.3608     H
C       0.7735   0.8753   0.6799     C
H        0.776   0.8251   0.6557     H
C        0.778   0.6822   0.7948     C
C       0.7786   0.5943   0.7035     C
C       0.7799   0.0396    0.521     C
C       0.7818   0.7651    0.115     C
C       0.7829   0.1276   0.4297     C
H       0.7844   0.9137   0.2181     H
H       0.7887   0.2587   0.3552     H
C       0.7934   0.3884     0.53     C
C       0.7937   0.4568   0.4917     C
C       0.7978   0.8832   0.1813     C
H       0.7981    0.991   0.5432     H
H        0.799    0.584   0.6626     H
C       0.7997   0.0664   0.9398     C
C       0.7997   0.8426   0.9229     C
H        0.801   0.3497   0.9676     H
H        0.805   0.1388   0.3894     H
C       0.8077   0.7543   0.8327     C
C       0.8081   0.6636   0.7359     C
C       0.8112   0.0573   0.4628     C
C       0.8115   0.5937    0.218     C
N       0.8125   0.0236   0.9909     N
C       0.8178    0.278   0.0448     C
C       0.8199   0.6399   0.2725     C
H       0.8251    0.776   0.3443     H
C       0.8349   0.0065   0.7113     C
H       0.8353   0.4617     0.46     H
C       0.8363   0.9344   0.6746     C
C       0.8364   0.3081   0.9859     C
H       0.8389   0.0578   0.9069     H
C       0.8426   0.7997   0.0771     C
H       0.8497    0.699   0.7176     H
H       0.8506   0.5997   0.1847     H
H       0.8507   0.2715   0.6108     H
N        0.853   0.9402   0.3918     N
H       0.8587   0.7693   0.0409     H
C       0.8592   0.9127    0.142     C
C       0.8601   0.3199   0.5225     C
H       0.8612    0.195   0.1106     H
C       0.8724   0.2171   0.0703     C
N       0.8745   0.8806   0.9116     N
C       0.8753   0.0034   0.4313     C
C       0.8753   0.7735   0.3201     C
C        0.877   0.2649   0.5713     C
H         0.88   0.0459   0.7091     H
N       0.8806   0.8745   0.0884     N
C       0.8832   0.7978   0.8187     C
H       0.8883   0.9629   0.1532     H
C       0.8884   0.7066     0.28     C
H       0.9003   0.3506   0.4347     H
C       0.9057   0.2786   0.9535     C
C       0.9063   0.3115    0.468     C
C       0.9078   0.9257   0.6308     C
C       0.9127   0.8592    0.858     C
H       0.9137   0.7844   0.7819     H
H        0.916    0.299   0.9126     H
H        0.917   0.7352   0.5924     H
N       0.9188    0.769   0.6267     N
C       0.9257   0.9078   0.3692     C
H       0.9273   0.2362   0.7269     H
C       0.9336   0.2003   0.5602     C
C       0.9344   0.8363   0.3254     C
Cd     0.93979  0.93979      0.0    Cd
N       0.9402    0.853   0.6082     N
H       0.9422   0.1611   0.5931     H
C       0.9427   0.1888   0.0372     C
N       0.9473   0.9895   0.6054     N
H       0.9541     0.12   0.7909     H
N       0.9559   0.0083   0.4337     N
C       0.9568   0.7063   0.2417     C
H        0.959   0.7497   0.6534     H
C       0.9604   0.2201    0.979     C
C       0.9611   0.2446   0.4639     C
H       0.9617   0.6647     0.21     H
H       0.9629   0.8883   0.8468     H
N       0.9764   0.1875   0.5091     N
C       0.9791   0.2317    0.749     C
N       0.9895   0.9473   0.3946     N
H       0.9909   0.2379   0.4258     H
H        0.991   0.7981   0.4568     H
N       0.9917   0.0441   0.0663     N
C       0.9935   0.1651   0.7887     C
C       0.9966   0.1247   0.0687     C
