data_I
_chemical_name_common  '/home/zhangsd/repos/MofS-CGCNN/ML/data/SSD/clean_cifs/IWELIG01_clean'
_cell_length_a  8.44950
_cell_length_b 15.26090
_cell_length_c 15.26090
_cell_angle_alpha 85.60470
_cell_angle_beta  73.92860
_cell_angle_gamma 73.92850
_space_group_name_H-M_alt      'P 1'


loop_
_space_group_symop_operation_xyz
  'x, y, z' 

loop_
_atom_site_label
_atom_site_fract_x
_atom_site_fract_y
_atom_site_fract_z
_atom_site_type_symbol
Co         0.0      0.5      0.5    Co
C      0.00589  0.93929  0.75233     C
O      0.00951  0.91577  0.47341     O
C      0.00967  0.52678  0.69928     C
C      0.03558  0.47676  0.20468     C
N      0.04251  0.04554  0.32464     N
H       0.0427   0.2527   0.0775     H
C      0.05482  0.74767  0.93929     C
O      0.07472  0.02659  0.91577     O
N      0.08455  0.49077  0.35433     N
N      0.08731  0.54554  0.82464     N
N      0.08805  0.82464  0.95446     N
Co     0.09596  0.05017  0.03966    Co
H          0.1   0.3078    0.525     H
O      0.10092  0.60572  0.49264     O
O      0.10131  0.41577  0.97341     O
H       0.1202   0.9225   0.7527     H
N      0.12256  0.05008   0.1698     N
H       0.1271   0.7527   0.5775     H
Co     0.13561  0.96034  0.55018    Co
Co     0.14613  0.53966  0.94982    Co
N      0.15756  0.55008   0.6698     N
N      0.17264   0.6698  0.94992     N
H       0.1825   0.1581   0.5235     H
C      0.18602  0.50059  0.15757     C
C      0.19751  0.56071  0.74767     C
N      0.20831  0.28367  0.51391     N
C      0.21702  0.02324  0.29532     C
C      0.22545  0.51069  0.30901     C
C      0.24026  0.79532  0.97676     C
C      0.24178  0.75233  0.56071     C
O      0.24474  0.42647  0.50945     O
O      0.24581  0.50945  0.07353     O
C      0.26386  0.19099  0.51069     C
C      0.26427  0.02678  0.19928     C
N      0.27778  0.51391  0.21633     N
C      0.29105  0.69928  0.97322     C
N      0.29236   0.8302  0.55008     N
O      0.29336  0.00736  0.60572     O
H        0.294   0.5235   0.3419     H
H       0.2954   0.5775   0.7473     H
O      0.30072  0.10572  0.99264     O
C      0.31339  0.34243  0.50059     C
Co     0.31422  0.55017  0.53966    Co
O      0.31934  0.92647  0.00945     O
O      0.32879  0.99055  0.42647     O
H       0.3406   0.0235   0.8419     H
C      0.34359  0.84243  0.00059     C
C      0.34418  0.99941  0.34243     C
H       0.3641   0.3419   0.9765     H
N      0.36715  0.67536  0.54554     N
H        0.375    0.525   0.1922     H
O      0.40644  0.49264  0.89428     O
H       0.4078    0.025   0.6922     H
N      0.42468  0.14567  0.49077     N
N      0.42965  0.00923  0.14567     N
H       0.4328   0.1922    0.975     H
N      0.43888  0.64567  0.99077     N
C      0.45485  0.01069  0.80901     C
C      0.46355  0.80072  0.52678     C
C      0.46554  0.30901  0.98931     C
O      0.48292  0.52659  0.41577     O
C      0.48766  0.29532  0.47676     C
N      0.49198  0.01391  0.71633     N
N      0.49411  0.78367  0.01391     N
Co         0.5      0.0     -0.0    Co
Co         0.5      0.0      0.5    Co
Co         0.5      0.5     -0.0    Co
N      0.50589  0.21633  0.98609     N
N      0.50802  0.98609  0.28367     N
C      0.51234  0.70468  0.52324     C
O      0.51708  0.47341  0.58423     O
C      0.53446  0.69099  0.01069     C
C      0.53645  0.19928  0.47322     C
C      0.54515  0.98931  0.19099     C
N      0.56112  0.35433  0.00923     N
H       0.5672   0.8078    0.025     H
N      0.57035  0.99077  0.85433     N
N      0.57532  0.85433  0.50923     N
H       0.5922    0.975   0.3078     H
O      0.59356  0.50736  0.10572     O
H        0.625    0.475   0.8078     H
N      0.63285  0.32464  0.45446     N
H       0.6359   0.6581   0.0235     H
C      0.65582  0.00059  0.65757     C
C      0.65641  0.15757  0.99941     C
H       0.6594   0.9765   0.1581     H
O      0.67121  0.00945  0.57353     O
O      0.68066  0.07353  0.99055     O
Co     0.68578  0.44983  0.46034    Co
C      0.68661  0.65757  0.49941     C
O      0.69928  0.89428  0.00736     O
H       0.7046   0.4225   0.2527     H
H        0.706   0.4765   0.6581     H
O      0.70664  0.99264  0.39428     O
N      0.70764   0.1698  0.44992     N
C      0.70895  0.30072  0.02678     C
N      0.72222  0.48609  0.78367     N
C      0.73573  0.97322  0.80072     C
C      0.73614  0.80901  0.48931     C
O      0.75419  0.49055  0.92647     O
O      0.75526  0.57353  0.49055     O
C      0.75822  0.24767  0.43929     C
C      0.75974  0.20468  0.02324     C
C      0.77455  0.48931  0.69099     C
C      0.78298  0.97676  0.70468     C
N      0.79169  0.71633  0.48609     N
C      0.80249  0.43929  0.25233     C
C      0.81398  0.49941  0.84243     C
H       0.8175   0.8419   0.4765     H
N      0.82736   0.3302  0.05008     N
N      0.84244  0.44992   0.3302     N
Co     0.85387  0.46034  0.05018    Co
Co     0.86439  0.03966  0.44982    Co
H       0.8729   0.2473   0.4225     H
N      0.87744  0.94992   0.8302     N
H       0.8798   0.0775   0.2473     H
O      0.89869  0.58423  0.02659     O
O      0.89908  0.39428  0.50736     O
H          0.9   0.6922    0.475     H
Co     0.90404  0.94983  0.96034    Co
N      0.91195  0.17536  0.04554     N
N      0.91269  0.45446  0.17536     N
N      0.91545  0.50923  0.64567     N
O      0.92528  0.97341  0.08423     O
C      0.94518  0.25233  0.06071     C
H       0.9573   0.7473   0.9225     H
N      0.95749  0.95446  0.67536     N
C      0.96442  0.52324  0.79532     C
C      0.99033  0.47322  0.30072     C
O      0.99049  0.08423  0.52659     O
C      0.99411  0.06071  0.24767     C
