data_I
_chemical_name_common  '/home/zhangsd/repos/MofS-CGCNN/ML/data/SSD/clean_cifs/IXEJIG_clean'
_cell_length_a 35.12600
_cell_length_b 35.12600
_cell_length_c 11.23900
_cell_angle_alpha 90.00000
_cell_angle_beta  90.00000
_cell_angle_gamma 90.00000
_space_group_name_H-M_alt      'P 1'


loop_
_space_group_symop_operation_xyz
  'x, y, z' 

loop_
_atom_site_label
_atom_site_fract_x
_atom_site_fract_y
_atom_site_fract_z
_atom_site_type_symbol
H       0.0001   0.6359   0.5858     H
H       0.0001   0.8641   0.0858     H
O      0.00378  0.57721   0.7308     O
O      0.00378  0.92279   0.2308     O
H       0.0055   0.7176   0.4528     H
H       0.0055   0.7824   0.9528     H
C      0.00579  0.69248   0.6221     C
C      0.00579  0.80752   0.1221     C
C      0.01006  0.65359   0.6416     C
C      0.01006  0.84641   0.1416     C
C      0.01007   0.6201   0.1215     C
C      0.01007   0.8799   0.6215     C
O      0.01103   0.0578   0.5382     O
O      0.01103   0.4422   0.0382     O
C      0.01207  0.66149   0.1429     C
C      0.01207  0.83851   0.6429     C
C       0.0123   0.2021   0.0007     C
C       0.0123   0.2979   0.5007     C
O      0.01497  0.53305   0.1525     O
O      0.01497  0.96695   0.6525     O
C      0.01581   0.7395    0.183     C
C      0.01581   0.7605    0.683     C
H       0.0177   0.1784   0.0437     H
H       0.0177   0.3216   0.5437     H
C      0.01888  0.22065   0.3085     C
C      0.01888  0.27935   0.8085     C
O       0.0196  0.10216   0.3447     O
O       0.0196  0.39784   0.8447     O
C      0.02035  0.71834   0.7036     C
C      0.02035  0.78166   0.2036     C
C      0.02074  0.18164   0.3286     C
C      0.02074  0.31836   0.8286     C
Zr     0.02536  0.02536  0.69095    Zr
Zr     0.02536  0.47464  0.19095    Zr
C      0.02888  0.64068   0.7425     C
C      0.02888  0.85932   0.2425     C
C       0.0291   0.5994   0.7711     C
C       0.0291   0.9006   0.2711     C
O      0.03305  0.51497   0.8475     O
O      0.03305  0.98503   0.3475     O
H        0.036   0.2162   0.9886     H
H        0.036   0.2838   0.4886     H
C      0.03921  0.70544   0.8048     C
C      0.03921  0.79456   0.3048     C
O      0.04007  0.60433   0.0844     O
O      0.04007  0.89567   0.5844     O
C      0.04347  0.66662   0.8242     C
C      0.04347  0.83338   0.3242     C
Zr     0.04369  0.04369   0.3876    Zr
Zr     0.04369  0.45631   0.8876    Zr
H       0.0444   0.1688   0.3229     H
H       0.0444   0.3312   0.8229     H
C      0.04676  0.68032   0.1345     C
C      0.04676  0.81968   0.6345     C
C      0.04862  0.71932   0.1546     C
C      0.04862  0.78068   0.6546     C
H       0.0492   0.7232   0.8605     H
H       0.0492   0.7768   0.3605     H
Zr     0.04942  0.54942      0.0    Zr
Zr     0.04942  0.95058      0.5    Zr
O      0.05216  0.59069   0.8535     O
O      0.05216  0.90931   0.3535     O
H       0.0535   0.2437   0.7025     H
H       0.0535   0.2563   0.2025     H
H       0.0563   0.6578   0.8932     H
H       0.0563   0.8422   0.3932     H
C        0.057    0.242   0.2766     C
C        0.057    0.258   0.7766     C
O       0.0578  0.01103   0.5382     O
O       0.0578  0.48897   0.0382     O
H       0.0636   0.2404    0.841     H
H       0.0636   0.2596    0.341     H
H       0.0692   0.6666    0.115     H
H       0.0692   0.8334    0.615     H
H       0.0723   0.7322   0.1489     H
H       0.0723   0.7678   0.6489     H
O      0.07721  0.50378   0.2692     O
O      0.07721  0.99622   0.7692     O
H       0.0775   0.2234   0.2665     H
H       0.0775   0.2766   0.7665     H
O      0.09069  0.55216   0.1465     O
O      0.09069  0.94784   0.6465     O
C       0.0994   0.5291   0.2289     C
C       0.0994   0.9709   0.7289     C
O      0.10216   0.0196   0.3447     O
O      0.10216   0.4804   0.8447     O
O      0.10433  0.54007   0.9156     O
O      0.10433  0.95993   0.4156     O
C       0.1201  0.51007   0.8785     C
C       0.1201  0.98993   0.3785     C
H       0.1359   0.5001   0.4142     H
H       0.1359   0.9999   0.9142     H
C      0.14068  0.52888   0.2575     C
C      0.14068  0.97112   0.7575     C
C      0.15359  0.51006   0.3584     C
C      0.15359  0.98994   0.8584     C
H       0.1578   0.5563   0.1068     H
H       0.1578   0.9437   0.6068     H
C      0.16149  0.51207   0.8571     C
C      0.16149  0.98793   0.3571     C
H       0.1666   0.5692    0.885     H
H       0.1666   0.9308    0.385     H
C      0.16662  0.54347   0.1758     C
C      0.16662  0.95653   0.6758     C
H       0.1688   0.0444   0.3229     H
H       0.1688   0.4556   0.8229     H
H       0.1784   0.0177   0.0437     H
H       0.1784   0.4823   0.5437     H
C      0.18032  0.54676   0.8655     C
C      0.18032  0.95324   0.3655     C
C      0.18164  0.02074   0.3286     C
C      0.18164  0.47926   0.8286     C
C      0.19248  0.50579   0.3779     C
C      0.19248  0.99421   0.8779     C
C       0.2021   0.0123   0.0007     C
C       0.2021   0.4877   0.5007     C
C      0.20544  0.53921   0.1952     C
C      0.20544  0.96079   0.6952     C
H       0.2162    0.036   0.9886     H
H       0.2162    0.464   0.4886     H
H       0.2176   0.5055   0.5472     H
H       0.2176   0.9945   0.0472     H
C      0.21834  0.52035   0.2964     C
C      0.21834  0.97965   0.7964     C
C      0.21932  0.54862   0.8454     C
C      0.21932  0.95138   0.3454     C
C      0.22065  0.01888   0.3085     C
C      0.22065  0.48112   0.8085     C
H       0.2232   0.5492   0.1395     H
H       0.2232   0.9508   0.6395     H
H       0.2234   0.0775   0.2665     H
H       0.2234   0.4225   0.7665     H
H       0.2322   0.5723   0.8511     H
H       0.2322   0.9277   0.3511     H
C       0.2395  0.51581    0.817     C
C       0.2395  0.98419    0.317     C
H       0.2404   0.0636    0.841     H
H       0.2404   0.4364    0.341     H
C        0.242    0.057   0.2766     C
C        0.242    0.443   0.7766     C
H       0.2437   0.0535   0.7025     H
H       0.2437   0.4465   0.2025     H
H       0.2563   0.0535   0.2025     H
H       0.2563   0.4465   0.7025     H
C        0.258    0.057   0.7766     C
C        0.258    0.443   0.2766     C
H       0.2596   0.0636    0.341     H
H       0.2596   0.4364    0.841     H
C       0.2605  0.51581    0.317     C
C       0.2605  0.98419    0.817     C
H       0.2678   0.5723   0.3511     H
H       0.2678   0.9277   0.8511     H
H       0.2766   0.0775   0.7665     H
H       0.2766   0.4225   0.2665     H
H       0.2768   0.5492   0.6395     H
H       0.2768   0.9508   0.1395     H
C      0.27935  0.01888   0.8085     C
C      0.27935  0.48112   0.3085     C
C      0.28068  0.54862   0.3454     C
C      0.28068  0.95138   0.8454     C
C      0.28166  0.52035   0.7964     C
C      0.28166  0.97965   0.2964     C
H       0.2824   0.5055   0.0472     H
H       0.2824   0.9945   0.5472     H
H       0.2838    0.036   0.4886     H
H       0.2838    0.464   0.9886     H
C      0.29456  0.53921   0.6952     C
C      0.29456  0.96079   0.1952     C
C       0.2979   0.0123   0.5007     C
C       0.2979   0.4877   0.0007     C
C      0.30752  0.50579   0.8779     C
C      0.30752  0.99421   0.3779     C
C      0.31836  0.02074   0.8286     C
C      0.31836  0.47926   0.3286     C
C      0.31968  0.54676   0.3655     C
C      0.31968  0.95324   0.8655     C
H       0.3216   0.0177   0.5437     H
H       0.3216   0.4823   0.0437     H
H       0.3312   0.0444   0.8229     H
H       0.3312   0.4556   0.3229     H
C      0.33338  0.54347   0.6758     C
C      0.33338  0.95653   0.1758     C
H       0.3334   0.5692    0.385     H
H       0.3334   0.9308    0.885     H
C      0.33851  0.51207   0.3571     C
C      0.33851  0.98793   0.8571     C
H       0.3422   0.5563   0.6068     H
H       0.3422   0.9437   0.1068     H
C      0.34641  0.51006   0.8584     C
C      0.34641  0.98994   0.3584     C
C      0.35932  0.52888   0.7575     C
C      0.35932  0.97112   0.2575     C
H       0.3641   0.5001   0.9142     H
H       0.3641   0.9999   0.4142     H
C       0.3799  0.51007   0.3785     C
C       0.3799  0.98993   0.8785     C
O      0.39567  0.54007   0.4156     O
O      0.39567  0.95993   0.9156     O
O      0.39784   0.0196   0.8447     O
O      0.39784   0.4804   0.3447     O
C       0.4006   0.5291   0.7289     C
C       0.4006   0.9709   0.2289     C
O      0.40931  0.55216   0.6465     O
O      0.40931  0.94784   0.1465     O
H       0.4225   0.2234   0.7665     H
H       0.4225   0.2766   0.2665     H
O      0.42279  0.50378   0.7692     O
O      0.42279  0.99622   0.2692     O
H       0.4277   0.7322   0.6489     H
H       0.4277   0.7678   0.1489     H
H       0.4308   0.6666    0.615     H
H       0.4308   0.8334    0.115     H
H       0.4364   0.2404    0.341     H
H       0.4364   0.2596    0.841     H
O       0.4422  0.01103   0.0382     O
O       0.4422  0.48897   0.5382     O
C        0.443    0.242   0.7766     C
C        0.443    0.258   0.2766     C
H       0.4437   0.6578   0.3932     H
H       0.4437   0.8422   0.8932     H
H       0.4465   0.2437   0.2025     H
H       0.4465   0.2563   0.7025     H
O      0.44784  0.59069   0.3535     O
O      0.44784  0.90931   0.8535     O
Zr     0.45058  0.54942      0.5    Zr
Zr     0.45058  0.95058      0.0    Zr
H       0.4508   0.7232   0.3605     H
H       0.4508   0.7768   0.8605     H
C      0.45138  0.71932   0.6546     C
C      0.45138  0.78068   0.1546     C
C      0.45324  0.68032   0.6345     C
C      0.45324  0.81968   0.1345     C
H       0.4556   0.1688   0.8229     H
H       0.4556   0.3312   0.3229     H
Zr     0.45631  0.04369   0.8876    Zr
Zr     0.45631  0.45631   0.3876    Zr
C      0.45653  0.66662   0.3242     C
C      0.45653  0.83338   0.8242     C
O      0.45993  0.60433   0.5844     O
O      0.45993  0.89567   0.0844     O
C      0.46079  0.70544   0.3048     C
C      0.46079  0.79456   0.8048     C
H        0.464   0.2162   0.4886     H
H        0.464   0.2838   0.9886     H
O      0.46695  0.51497   0.3475     O
O      0.46695  0.98503   0.8475     O
C       0.4709   0.5994   0.2711     C
C       0.4709   0.9006   0.7711     C
C      0.47112  0.64068   0.2425     C
C      0.47112  0.85932   0.7425     C
Zr     0.47464  0.02536  0.19095    Zr
Zr     0.47464  0.47464  0.69095    Zr
C      0.47926  0.18164   0.8286     C
C      0.47926  0.31836   0.3286     C
C      0.47965  0.71834   0.2036     C
C      0.47965  0.78166   0.7036     C
O       0.4804  0.10216   0.8447     O
O       0.4804  0.39784   0.3447     O
C      0.48112  0.22065   0.8085     C
C      0.48112  0.27935   0.3085     C
H       0.4823   0.1784   0.5437     H
H       0.4823   0.3216   0.0437     H
C      0.48419   0.7395    0.683     C
C      0.48419   0.7605    0.183     C
O      0.48503  0.53305   0.6525     O
O      0.48503  0.96695   0.1525     O
C       0.4877   0.2021   0.5007     C
C       0.4877   0.2979   0.0007     C
C      0.48793  0.66149   0.6429     C
C      0.48793  0.83851   0.1429     C
O      0.48897   0.0578   0.0382     O
O      0.48897   0.4422   0.5382     O
C      0.48993   0.6201   0.6215     C
C      0.48993   0.8799   0.1215     C
C      0.48994  0.65359   0.1416     C
C      0.48994  0.84641   0.6416     C
C      0.49421  0.69248   0.1221     C
C      0.49421  0.80752   0.6221     C
H       0.4945   0.7176   0.9528     H
H       0.4945   0.7824   0.4528     H
O      0.49622  0.57721   0.2308     O
O      0.49622  0.92279   0.7308     O
H       0.4999   0.6359   0.0858     H
H       0.4999   0.8641   0.5858     H
H       0.5001   0.1359   0.4142     H
H       0.5001   0.3641   0.9142     H
O      0.50378  0.07721   0.2692     O
O      0.50378  0.42279   0.7692     O
H       0.5055   0.2176   0.5472     H
H       0.5055   0.2824   0.0472     H
C      0.50579  0.19248   0.3779     C
C      0.50579  0.30752   0.8779     C
C      0.51006  0.15359   0.3584     C
C      0.51006  0.34641   0.8584     C
C      0.51007   0.1201   0.8785     C
C      0.51007   0.3799   0.3785     C
O      0.51103   0.5578   0.4618     O
O      0.51103   0.9422   0.9618     O
C      0.51207  0.16149   0.8571     C
C      0.51207  0.33851   0.3571     C
C       0.5123   0.7021   0.9993     C
C       0.5123   0.7979   0.4993     C
O      0.51497  0.03305   0.8475     O
O      0.51497  0.46695   0.3475     O
C      0.51581   0.2395    0.817     C
C      0.51581   0.2605    0.317     C
H       0.5177   0.6784   0.9563     H
H       0.5177   0.8216   0.4563     H
C      0.51888  0.72065   0.6915     C
C      0.51888  0.77935   0.1915     C
O       0.5196  0.60216   0.6553     O
O       0.5196  0.89784   0.1553     O
C      0.52035  0.21834   0.2964     C
C      0.52035  0.28166   0.7964     C
C      0.52074  0.68164   0.6714     C
C      0.52074  0.81836   0.1714     C
Zr     0.52536  0.52536  0.30905    Zr
Zr     0.52536  0.97464  0.80905    Zr
C      0.52888  0.14068   0.2575     C
C      0.52888  0.35932   0.7575     C
C       0.5291   0.0994   0.2289     C
C       0.5291   0.4006   0.7289     C
O      0.53305  0.01497   0.1525     O
O      0.53305  0.48503   0.6525     O
H        0.536   0.7162   0.0114     H
H        0.536   0.7838   0.5114     H
C      0.53921  0.20544   0.1952     C
C      0.53921  0.29456   0.6952     C
O      0.54007  0.10433   0.9156     O
O      0.54007  0.39567   0.4156     O
C      0.54347  0.16662   0.1758     C
C      0.54347  0.33338   0.6758     C
Zr     0.54369  0.54369   0.6124    Zr
Zr     0.54369  0.95631   0.1124    Zr
H       0.5444   0.6688   0.6771     H
H       0.5444   0.8312   0.1771     H
C      0.54676  0.18032   0.8655     C
C      0.54676  0.31968   0.3655     C
C      0.54862  0.21932   0.8454     C
C      0.54862  0.28068   0.3454     C
H       0.5492   0.2232   0.1395     H
H       0.5492   0.2768   0.6395     H
Zr     0.54942  0.04942      0.0    Zr
Zr     0.54942  0.45058      0.5    Zr
O      0.55216  0.09069   0.1465     O
O      0.55216  0.40931   0.6465     O
H       0.5535   0.7437   0.2975     H
H       0.5535   0.7563   0.7975     H
H       0.5563   0.1578   0.1068     H
H       0.5563   0.3422   0.6068     H
C        0.557    0.742   0.7234     C
C        0.557    0.758   0.2234     C
O       0.5578  0.51103   0.4618     O
O       0.5578  0.98897   0.9618     O
H       0.5636   0.7404    0.159     H
H       0.5636   0.7596    0.659     H
H       0.5692   0.1666    0.885     H
H       0.5692   0.3334    0.385     H
H       0.5723   0.2322   0.8511     H
H       0.5723   0.2678   0.3511     H
O      0.57721  0.00378   0.7308     O
O      0.57721  0.49622   0.2308     O
H       0.5775   0.7234   0.7335     H
H       0.5775   0.7766   0.2335     H
O      0.59069  0.05216   0.8535     O
O      0.59069  0.44784   0.3535     O
C       0.5994   0.0291   0.7711     C
C       0.5994   0.4709   0.2711     C
O      0.60216   0.5196   0.6553     O
O      0.60216   0.9804   0.1553     O
O      0.60433  0.04007   0.0844     O
O      0.60433  0.45993   0.5844     O
C       0.6201  0.01007   0.1215     C
C       0.6201  0.48993   0.6215     C
H       0.6359   0.0001   0.5858     H
H       0.6359   0.4999   0.0858     H
C      0.64068  0.02888   0.7425     C
C      0.64068  0.47112   0.2425     C
C      0.65359  0.01006   0.6416     C
C      0.65359  0.48994   0.1416     C
H       0.6578   0.0563   0.8932     H
H       0.6578   0.4437   0.3932     H
C      0.66149  0.01207   0.1429     C
C      0.66149  0.48793   0.6429     C
H       0.6666   0.0692    0.115     H
H       0.6666   0.4308    0.615     H
C      0.66662  0.04347   0.8242     C
C      0.66662  0.45653   0.3242     C
H       0.6688   0.5444   0.6771     H
H       0.6688   0.9556   0.1771     H
H       0.6784   0.5177   0.9563     H
H       0.6784   0.9823   0.4563     H
C      0.68032  0.04676   0.1345     C
C      0.68032  0.45324   0.6345     C
C      0.68164  0.52074   0.6714     C
C      0.68164  0.97926   0.1714     C
C      0.69248  0.00579   0.6221     C
C      0.69248  0.49421   0.1221     C
C       0.7021   0.5123   0.9993     C
C       0.7021   0.9877   0.4993     C
C      0.70544  0.03921   0.8048     C
C      0.70544  0.46079   0.3048     C
H       0.7162    0.536   0.0114     H
H       0.7162    0.964   0.5114     H
H       0.7176   0.0055   0.4528     H
H       0.7176   0.4945   0.9528     H
C      0.71834  0.02035   0.7036     C
C      0.71834  0.47965   0.2036     C
C      0.71932  0.04862   0.1546     C
C      0.71932  0.45138   0.6546     C
C      0.72065  0.51888   0.6915     C
C      0.72065  0.98112   0.1915     C
H       0.7232   0.0492   0.8605     H
H       0.7232   0.4508   0.3605     H
H       0.7234   0.5775   0.7335     H
H       0.7234   0.9225   0.2335     H
H       0.7322   0.0723   0.1489     H
H       0.7322   0.4277   0.6489     H
C       0.7395  0.01581    0.183     C
C       0.7395  0.48419    0.683     C
H       0.7404   0.5636    0.159     H
H       0.7404   0.9364    0.659     H
C        0.742    0.557   0.7234     C
C        0.742    0.943   0.2234     C
H       0.7437   0.5535   0.2975     H
H       0.7437   0.9465   0.7975     H
H       0.7563   0.5535   0.7975     H
H       0.7563   0.9465   0.2975     H
C        0.758    0.557   0.2234     C
C        0.758    0.943   0.7234     C
H       0.7596   0.5636    0.659     H
H       0.7596   0.9364    0.159     H
C       0.7605  0.01581    0.683     C
C       0.7605  0.48419    0.183     C
H       0.7678   0.0723   0.6489     H
H       0.7678   0.4277   0.1489     H
H       0.7766   0.5775   0.2335     H
H       0.7766   0.9225   0.7335     H
H       0.7768   0.0492   0.3605     H
H       0.7768   0.4508   0.8605     H
C      0.77935  0.51888   0.1915     C
C      0.77935  0.98112   0.6915     C
C      0.78068  0.04862   0.6546     C
C      0.78068  0.45138   0.1546     C
C      0.78166  0.02035   0.2036     C
C      0.78166  0.47965   0.7036     C
H       0.7824   0.0055   0.9528     H
H       0.7824   0.4945   0.4528     H
H       0.7838    0.536   0.5114     H
H       0.7838    0.964   0.0114     H
C      0.79456  0.03921   0.3048     C
C      0.79456  0.46079   0.8048     C
C       0.7979   0.5123   0.4993     C
C       0.7979   0.9877   0.9993     C
C      0.80752  0.00579   0.1221     C
C      0.80752  0.49421   0.6221     C
C      0.81836  0.52074   0.1714     C
C      0.81836  0.97926   0.6714     C
C      0.81968  0.04676   0.6345     C
C      0.81968  0.45324   0.1345     C
H       0.8216   0.5177   0.4563     H
H       0.8216   0.9823   0.9563     H
H       0.8312   0.5444   0.1771     H
H       0.8312   0.9556   0.6771     H
C      0.83338  0.04347   0.3242     C
C      0.83338  0.45653   0.8242     C
H       0.8334   0.0692    0.615     H
H       0.8334   0.4308    0.115     H
C      0.83851  0.01207   0.6429     C
C      0.83851  0.48793   0.1429     C
H       0.8422   0.0563   0.3932     H
H       0.8422   0.4437   0.8932     H
C      0.84641  0.01006   0.1416     C
C      0.84641  0.48994   0.6416     C
C      0.85932  0.02888   0.2425     C
C      0.85932  0.47112   0.7425     C
H       0.8641   0.0001   0.0858     H
H       0.8641   0.4999   0.5858     H
C       0.8799  0.01007   0.6215     C
C       0.8799  0.48993   0.1215     C
O      0.89567  0.04007   0.5844     O
O      0.89567  0.45993   0.0844     O
O      0.89784   0.5196   0.1553     O
O      0.89784   0.9804   0.6553     O
C       0.9006   0.0291   0.2711     C
C       0.9006   0.4709   0.7711     C
O      0.90931  0.05216   0.3535     O
O      0.90931  0.44784   0.8535     O
H       0.9225   0.7234   0.2335     H
H       0.9225   0.7766   0.7335     H
O      0.92279  0.00378   0.2308     O
O      0.92279  0.49622   0.7308     O
H       0.9277   0.2322   0.3511     H
H       0.9277   0.2678   0.8511     H
H       0.9308   0.1666    0.385     H
H       0.9308   0.3334    0.885     H
H       0.9364   0.7404    0.659     H
H       0.9364   0.7596    0.159     H
O       0.9422  0.51103   0.9618     O
O       0.9422  0.98897   0.4618     O
C        0.943    0.742   0.2234     C
C        0.943    0.758   0.7234     C
H       0.9437   0.1578   0.6068     H
H       0.9437   0.3422   0.1068     H
H       0.9465   0.7437   0.7975     H
H       0.9465   0.7563   0.2975     H
O      0.94784  0.09069   0.6465     O
O      0.94784  0.40931   0.1465     O
Zr     0.95058  0.04942      0.5    Zr
Zr     0.95058  0.45058      0.0    Zr
H       0.9508   0.2232   0.6395     H
H       0.9508   0.2768   0.1395     H
C      0.95138  0.21932   0.3454     C
C      0.95138  0.28068   0.8454     C
C      0.95324  0.18032   0.3655     C
C      0.95324  0.31968   0.8655     C
H       0.9556   0.6688   0.1771     H
H       0.9556   0.8312   0.6771     H
Zr     0.95631  0.54369   0.1124    Zr
Zr     0.95631  0.95631   0.6124    Zr
C      0.95653  0.16662   0.6758     C
C      0.95653  0.33338   0.1758     C
O      0.95993  0.10433   0.4156     O
O      0.95993  0.39567   0.9156     O
C      0.96079  0.20544   0.6952     C
C      0.96079  0.29456   0.1952     C
H        0.964   0.7162   0.5114     H
H        0.964   0.7838   0.0114     H
O      0.96695  0.01497   0.6525     O
O      0.96695  0.48503   0.1525     O
C       0.9709   0.0994   0.7289     C
C       0.9709   0.4006   0.2289     C
C      0.97112  0.14068   0.7575     C
C      0.97112  0.35932   0.2575     C
Zr     0.97464  0.52536  0.80905    Zr
Zr     0.97464  0.97464  0.30905    Zr
C      0.97926  0.68164   0.1714     C
C      0.97926  0.81836   0.6714     C
C      0.97965  0.21834   0.7964     C
C      0.97965  0.28166   0.2964     C
O       0.9804  0.60216   0.1553     O
O       0.9804  0.89784   0.6553     O
C      0.98112  0.72065   0.1915     C
C      0.98112  0.77935   0.6915     C
H       0.9823   0.6784   0.4563     H
H       0.9823   0.8216   0.9563     H
C      0.98419   0.2395    0.317     C
C      0.98419   0.2605    0.817     C
O      0.98503  0.03305   0.3475     O
O      0.98503  0.46695   0.8475     O
C       0.9877   0.7021   0.4993     C
C       0.9877   0.7979   0.9993     C
C      0.98793  0.16149   0.3571     C
C      0.98793  0.33851   0.8571     C
O      0.98897   0.5578   0.9618     O
O      0.98897   0.9422   0.4618     O
C      0.98993   0.1201   0.3785     C
C      0.98993   0.3799   0.8785     C
C      0.98994  0.15359   0.8584     C
C      0.98994  0.34641   0.3584     C
C      0.99421  0.19248   0.8779     C
C      0.99421  0.30752   0.3779     C
H       0.9945   0.2176   0.0472     H
H       0.9945   0.2824   0.5472     H
O      0.99622  0.07721   0.7692     O
O      0.99622  0.42279   0.2692     O
H       0.9999   0.1359   0.9142     H
H       0.9999   0.3641   0.4142     H
