data_I
_chemical_name_common  '/home/zhangsd/repos/MofS-CGCNN/ML/data/SSD/clean_cifs/IXOFUX01_clean'
_cell_length_a  6.82700
_cell_length_b 13.96500
_cell_length_c 16.07400
_cell_angle_alpha 90.00000
_cell_angle_beta  90.00000
_cell_angle_gamma 90.00000
_space_group_name_H-M_alt      'P 1'


loop_
_space_group_symop_operation_xyz
  'x, y, z' 

loop_
_atom_site_label
_atom_site_fract_x
_atom_site_fract_y
_atom_site_fract_z
_atom_site_type_symbol
H       0.0326   0.4045   0.7177     H
H       0.0338   0.4578   0.3224     H
H       0.0512   0.5105   0.8273     H
O       0.0536   0.1391    0.574     O
O       0.0554   0.1692   0.4009     O
H       0.0555   0.5658   0.2153     H
V      0.06513  0.73597  0.00135     V
C       0.0667   0.0489   0.2638     C
C       0.0697   0.9968   0.6966     C
C       0.0797   0.9848   0.1994     C
C       0.0809    0.933    0.762     C
O       0.1131   0.8463   0.0749     O
O       0.1166   0.8158   0.9018     O
O       0.2177   0.3073    0.509     O
C       0.2244   0.1162   0.6015     C
C       0.2249   0.1518   0.3718     C
C       0.2364   0.0892   0.2984     C
C       0.2372   0.0405   0.6661     C
C       0.2628   0.9595   0.1661     C
C       0.2636   0.9108   0.7984     C
C       0.2751   0.8482   0.8718     C
C       0.2756   0.8838   0.1015     C
O       0.2823   0.6927    0.009     O
O       0.3834   0.1842   0.4018     O
O       0.3869   0.1537   0.5749     O
C       0.4191    0.067    0.262     C
C       0.4203   0.0152   0.6994     C
C       0.4303   0.0032   0.1966     C
C       0.4333   0.9511   0.7638     C
V      0.43487  0.26403  0.50135     V
H       0.4445   0.4342   0.7153     H
O       0.4446   0.8308   0.9009     O
O       0.4464   0.8609    0.074     O
H       0.4488   0.4895   0.3273     H
H       0.4662   0.5422   0.8224     H
H       0.4674   0.5955   0.2177     H
H       0.5326   0.0955   0.2823     H
H       0.5338   0.0422   0.6776     H
H       0.5512   0.9895   0.1727     H
O       0.5536   0.3609    0.426     O
O       0.5554   0.3308   0.5991     O
H       0.5555   0.9342   0.7847     H
V      0.56513  0.76403  0.99865     V
C       0.5667   0.4511   0.7362     C
C       0.5697   0.5032   0.3034     C
C       0.5797   0.5152   0.8006     C
C       0.5809    0.567    0.238     C
O       0.6131   0.6537   0.9251     O
O       0.6166   0.6842   0.0982     O
O       0.7177   0.1927    0.491     O
C       0.7244   0.3838   0.3985     C
C       0.7249   0.3482   0.6282     C
C       0.7364   0.4108   0.7016     C
C       0.7372   0.4595   0.3339     C
C       0.7628   0.5405   0.8339     C
C       0.7636   0.5892   0.2016     C
C       0.7751   0.6518   0.1282     C
C       0.7756   0.6162   0.8985     C
O       0.7823   0.8073    0.991     O
O       0.8834   0.3158   0.5982     O
O       0.8869   0.3463   0.4251     O
C       0.9191    0.433    0.738     C
C       0.9203   0.4848   0.3006     C
C       0.9303   0.4968   0.8034     C
C       0.9333   0.5489   0.2362     C
V      0.93487  0.23597  0.49865     V
H       0.9445   0.0658   0.2847     H
O       0.9446   0.6692   0.0991     O
O       0.9464   0.6391    0.926     O
H       0.9488   0.0105   0.6727     H
H       0.9662   0.9578   0.1776     H
H       0.9674   0.9045   0.7823     H
