data_I
_chemical_name_common  '/home/zhangsd/repos/MofS-CGCNN/ML/data/SSD/clean_cifs/IXOFIL_clean'
_cell_length_a  6.80180
_cell_length_b 13.53440
_cell_length_c 16.41560
_cell_angle_alpha 90.00000
_cell_angle_beta  90.00000
_cell_angle_gamma 90.00000
_space_group_name_H-M_alt      'P 1'


loop_
_space_group_symop_operation_xyz
  'x, y, z' 

loop_
_atom_site_label
_atom_site_fract_x
_atom_site_fract_y
_atom_site_fract_z
_atom_site_type_symbol
H       0.0309   0.5849   0.7914     H
H       0.0338   0.5554   0.1886     H
H         0.05   0.4797   0.6824     H
H       0.0547   0.4517   0.2963     H
O        0.057  0.85743  0.92133     O
O       0.0585  0.83983  0.09164     O
V      0.06289   0.2644  0.49928     V
C       0.0677   0.9659   0.2261     C
C       0.0717    0.993  0.79424     C
C       0.0804   0.0276   0.2903     C
C       0.0831   0.0561   0.7289     C
O        0.114  0.15673  0.42055     O
O       0.1141  0.17534  0.59234     O
O      0.21889  0.68868  0.99578     O
C       0.2255   0.8584  0.12047     C
C       0.2259   0.8789  0.89403     C
C       0.2378   0.9228  0.19264     C
C       0.2386   0.9491  0.82584     C
C       0.2614   0.0509  0.32584     C
C       0.2622   0.0772  0.69264     C
C       0.2741   0.1211  0.39403     C
C       0.2745   0.1416  0.62047     C
O      0.28111  0.31132  0.49578     O
O       0.3859  0.82466  0.09234     O
O        0.386  0.84327  0.92055     O
C       0.4169   0.9439   0.2289     C
C       0.4196   0.9724   0.7903     C
C       0.4283    0.007  0.29424     C
C       0.4323   0.0341   0.7261     C
V      0.43711   0.7356  0.99928     V
O       0.4415  0.16017  0.59164     O
O        0.443  0.14257  0.42133     O
H       0.4453   0.5483   0.7963     H
H         0.45   0.5203   0.1824     H
H       0.4662   0.4446   0.6886     H
H       0.4691   0.4151   0.2914     H
H       0.5309   0.9151   0.2086     H
H       0.5338   0.9446   0.8114     H
H         0.55   0.0203   0.3176     H
H       0.5547   0.0483   0.7037     H
O        0.557  0.64257  0.07867     O
O       0.5585  0.66017  0.90836     O
V      0.56289   0.2356  0.50072     V
C       0.5677   0.5341   0.7739     C
C       0.5717    0.507  0.20576     C
C       0.5804   0.4724   0.7097     C
C       0.5831   0.4439   0.2711     C
O        0.614  0.34327  0.57945     O
O       0.6141  0.32466  0.40766     O
O      0.71889  0.81132  0.00422     O
C       0.7255   0.6416  0.87953     C
C       0.7259   0.6211  0.10597     C
C       0.7378   0.5772  0.80736     C
C       0.7386   0.5509  0.17416     C
C       0.7614   0.4491  0.67416     C
C       0.7622   0.4228  0.30736     C
C       0.7741   0.3789  0.60597     C
C       0.7745   0.3584  0.37953     C
O      0.78111  0.18868  0.50422     O
O       0.8859  0.67534  0.90766     O
O        0.886  0.65673  0.07945     O
C       0.9169   0.5561   0.7711     C
C       0.9196   0.5276   0.2097     C
C       0.9283    0.493  0.70576     C
C       0.9323   0.4659   0.2739     C
V      0.93711   0.7644  0.00072     V
O       0.9415  0.33983  0.40836     O
O        0.943  0.35743  0.57867     O
H       0.9453   0.9517   0.2037     H
H         0.95   0.9797   0.8176     H
H       0.9662   0.0554   0.3114     H
H       0.9691   0.0849   0.7086     H
