data_I
_chemical_name_common  '/home/zhangsd/repos/MofS-CGCNN/ML/data/SSD/clean_cifs/IYEPUZ_clean'
_cell_length_a 10.31440
_cell_length_b 16.81000
_cell_length_c 44.98500
_cell_angle_alpha 90.00000
_cell_angle_beta  101.86900
_cell_angle_gamma 90.00000
_space_group_name_H-M_alt      'P 1'


loop_
_space_group_symop_operation_xyz
  'x, y, z' 

loop_
_atom_site_label
_atom_site_fract_x
_atom_site_fract_y
_atom_site_fract_z
_atom_site_type_symbol
Mn         0.0      0.0      0.0    Mn
Mn         0.0      0.5      0.5    Mn
C       0.0001   0.5665  0.56257     C
C       0.0001   0.9335  0.06257     C
C       0.0014   0.7449  0.71163     C
C       0.0014   0.7551  0.21163     C
O       0.0023   0.5378  0.34625     O
O       0.0023   0.9622  0.84625     O
H       0.0118   0.7453   0.0751     H
H       0.0118   0.7547   0.5751     H
C       0.0185   0.6966  0.23357     C
C       0.0185   0.8034  0.73357     C
H       0.0276   0.1991   0.2507     H
H       0.0276   0.3009   0.7507     H
H       0.0448   0.0813   0.8934     H
H       0.0448   0.4187   0.3934     H
H       0.0548   0.7066   0.6736     H
H       0.0548   0.7934   0.1736     H
N       0.0602   0.0174  0.96078     N
N       0.0602   0.4826  0.46078     N
H       0.0669   0.6667   0.1198     H
H       0.0669   0.8333   0.6198     H
C       0.0681   0.0576  0.91247     C
C       0.0681   0.4424  0.41247     C
C       0.0683   0.7459   0.6885     C
C       0.0683   0.7541   0.1885     C
O       0.0773   0.5857  0.27946     O
O       0.0773   0.9143  0.77946     O
C       0.0785    0.739   0.5912     C
C       0.0785    0.761   0.0912     C
C       0.0883   0.1717  0.78672     C
C       0.0883   0.3283  0.28672     C
C       0.1039   0.6344  0.23217     C
C       0.1039   0.8656  0.73217     C
Mn     0.10432  0.00427  0.81165    Mn
Mn     0.10432  0.49573  0.31165    Mn
O       0.1063    0.126  0.80851     O
O       0.1063    0.374  0.30851     O
C       0.1076   0.0162  0.16882     C
C       0.1076   0.4838  0.66882     C
C       0.1087   0.6151  0.56319     C
C       0.1087   0.8849  0.06319     C
C       0.1128   0.7137   0.1183     C
C       0.1128   0.7863   0.6183     C
C       0.1201     0.57   0.2564     C
C       0.1201     0.93   0.7564     C
O       0.1205   0.5138  0.69358     O
O       0.1205   0.9862  0.19358     O
H       0.1419     0.09   0.1179     H
H       0.1419     0.41   0.6179     H
O        0.147   0.1701  0.76454     O
O        0.147   0.3299  0.26454     O
C        0.148   0.6697  0.59002     C
C        0.148   0.8303  0.09002     C
N       0.1517   0.5767  0.51345     N
N       0.1517   0.9233  0.01345     N
C       0.1558   0.6936  0.18786     C
C       0.1558   0.8064  0.68786     C
C       0.1661   0.5172  0.45174     C
C       0.1661   0.9828  0.95174     C
C         0.17   0.0093  0.92189     C
C         0.17   0.4907  0.42189     C
C       0.1705   0.6323  0.20905     C
C       0.1705   0.8677  0.70905     C
C       0.1772   0.6189  0.53979     C
C       0.1772   0.8811  0.03979     C
O       0.1785   0.5092   0.2512     O
O       0.1785   0.9908   0.7512     O
C       0.2117   0.7366   0.1419     C
C       0.2117   0.7634   0.6419     C
C       0.2235   0.0724   0.1287     C
C       0.2235   0.4276   0.6287     C
H       0.2262   0.5897   0.2074     H
H       0.2262   0.9103   0.7074     H
C       0.2302   0.0339  0.15533     C
C       0.2302   0.4661  0.65533     C
O       0.2312   0.6818  0.16564     O
O       0.2312   0.8182  0.66564     O
H       0.2333   0.5049   0.4108     H
H       0.2333   0.9951   0.9108     H
C       0.2488   0.6498  0.61383     C
C       0.2488   0.8502  0.11383     C
C       0.2519   0.5945  0.49851     C
C       0.2519   0.9055  0.99851     C
C       0.2567   0.5648  0.46919     C
C       0.2567   0.9352  0.96919     C
C       0.2798   0.6955   0.6388     C
C       0.2798   0.8045   0.1388     C
Mn     0.29609   0.0916  0.75759    Mn
Mn     0.29609   0.4084  0.25759    Mn
C       0.2963   0.6669   0.5407     C
C       0.2963   0.8331   0.0407     C
H       0.2969   0.6035   0.6127     H
H       0.2969   0.8965   0.1127     H
O       0.3027   0.5138  0.33245     O
O       0.3027   0.9862  0.83245     O
O       0.3205   0.1301  0.09049     O
O       0.3205   0.3699  0.59049     O
H        0.326    0.699   0.4446     H
H        0.326    0.801   0.9446     H
H       0.3348   0.7017   0.5561     H
H       0.3348   0.7983   0.0561     H
C       0.3354   0.0858  0.11728     C
C       0.3354   0.4142  0.61728     C
C       0.3389   0.6512  0.51539     C
C       0.3389   0.8488  0.01539     C
H       0.3495   0.6804   0.6544     H
H       0.3495   0.8196   0.1544     H
C       0.3518   0.0057  0.17107     C
C       0.3518   0.4943  0.67107     C
H       0.3568   0.5231   0.6889     H
H       0.3568   0.9769   0.1889     H
H       0.3594   0.0051   0.0599     H
H       0.3594   0.4949   0.5599     H
C       0.3777   0.5898  0.45628     C
C       0.3777   0.9102  0.95628     C
C       0.3885   0.6597  0.44357     C
C       0.3885   0.8403  0.94357     C
O        0.399   0.0517  0.80038     O
O        0.399   0.4483  0.30038     O
C       0.4009    0.009   0.8227     C
C       0.4009    0.491   0.3227     C
H       0.4128   0.6735   0.5097     H
H       0.4128   0.8265   0.0097     H
C       0.4185   0.1171  0.07339     C
C       0.4185   0.3829  0.57339     C
C       0.4228   0.0443  0.05949     C
C       0.4228   0.4557  0.55949     C
C       0.4554   0.0604  0.13312     C
C       0.4554   0.4396  0.63312     C
H       0.4649   0.0156   0.9648     H
H       0.4649   0.4844   0.4648     H
C       0.4672   0.0209  0.15991     C
C       0.4672   0.4791  0.65991     C
H       0.4691   0.5704   0.3746     H
H       0.4691   0.9296   0.8746     H
C       0.4716   0.5329  0.45527     C
C       0.4716   0.9671  0.95527     C
C       0.4944   0.6763  0.42829     C
C       0.4944   0.8237  0.92829     C
H        0.497    0.226   0.0802     H
H        0.497    0.274   0.5802     H
H        0.503    0.726   0.4198     H
H        0.503    0.774   0.9198     H
C       0.5056   0.1763  0.07171     C
C       0.5056   0.3237  0.57171     C
C       0.5284   0.0329  0.04473     C
C       0.5284   0.4671  0.54473     C
H       0.5309   0.0704   0.1254     H
H       0.5309   0.4296   0.6254     H
C       0.5328   0.5209  0.34009     C
C       0.5328   0.9791  0.84009     C
H       0.5351   0.5156   0.5352     H
H       0.5351   0.9844   0.0352     H
C       0.5446   0.5604  0.36688     C
C       0.5446   0.9396  0.86688     C
C       0.5772   0.5443  0.44051     C
C       0.5772   0.9557  0.94051     C
C       0.5815   0.6171  0.42661     C
C       0.5815   0.8829  0.92661     C
H       0.5872   0.1735   0.9903     H
H       0.5872   0.3265   0.4903     H
C       0.5991    0.509   0.6773     C
C       0.5991    0.991   0.1773     C
O        0.601   0.5517  0.69962     O
O        0.601   0.9483  0.19962     O
C       0.6115   0.1597  0.05643     C
C       0.6115   0.3403  0.55643     C
C       0.6223   0.0898  0.04372     C
C       0.6223   0.4102  0.54372     C
H       0.6406   0.5051   0.4401     H
H       0.6406   0.9949   0.9401     H
H       0.6432   0.0231   0.8111     H
H       0.6432   0.4769   0.3111     H
C       0.6482   0.5057  0.32893     C
C       0.6482   0.9943  0.82893     C
H       0.6505   0.1804   0.8456     H
H       0.6505   0.3196   0.3456     H
C       0.6611   0.1512  0.98461     C
C       0.6611   0.3488  0.48461     C
C       0.6646   0.5858  0.38272     C
C       0.6646   0.9142  0.88272     C
H       0.6652   0.2017   0.9439     H
H       0.6652   0.2983   0.4439     H
H        0.674    0.199   0.0554     H
H        0.674    0.301   0.5554     H
O       0.6795   0.6301  0.40951     O
O       0.6795   0.8699  0.90951     O
O       0.6973   0.0138  0.16755     O
O       0.6973   0.4862  0.66755     O
H       0.7031   0.1035   0.8873     H
H       0.7031   0.3965   0.3873     H
C       0.7037   0.1669   0.9593     C
C       0.7037   0.3331   0.4593     C
Mn     0.70391   0.5916  0.74241    Mn
Mn     0.70391   0.9084  0.24241    Mn
C       0.7202   0.1955   0.8612     C
C       0.7202   0.3045   0.3612     C
C       0.7433   0.0648  0.03081     C
C       0.7433   0.4352  0.53081     C
C       0.7481   0.0945  0.00149     C
C       0.7481   0.4055  0.50149     C
C       0.7512   0.1498  0.88617     C
C       0.7512   0.3502  0.38617     C
H       0.7667   0.0049   0.0892     H
H       0.7667   0.4951   0.5892     H
O       0.7688   0.1818  0.33436     O
O       0.7688   0.3182  0.83436     O
C       0.7698   0.5339  0.34467     C
C       0.7698   0.9661  0.84467     C
H       0.7738   0.0897   0.2926     H
H       0.7738   0.4103   0.7926     H
C       0.7765   0.5724   0.3713     C
C       0.7765   0.9276   0.8713     C
C       0.7883   0.2366   0.3581     C
C       0.7883   0.2634   0.8581     C
O       0.8215   0.0092   0.2488     O
O       0.8215   0.4908   0.7488     O
C       0.8228   0.1189  0.96021     C
C       0.8228   0.3811  0.46021     C
C       0.8295   0.1323  0.29095     C
C       0.8295   0.3677  0.79095     C
C         0.83   0.5093  0.57811     C
C         0.83   0.9907  0.07811     C
C       0.8339   0.0172  0.04826     C
C       0.8339   0.4828  0.54826     C
C       0.8442   0.1936  0.31214     C
C       0.8442   0.3064  0.81214     C
N       0.8483   0.0767  0.98655     N
N       0.8483   0.4233  0.48655     N
C        0.852   0.1697  0.90998     C
C        0.852   0.3303  0.40998     C
O        0.853   0.6701  0.73546     O
O        0.853   0.8299  0.23546     O
H       0.8581     0.59   0.3821     H
H       0.8581     0.91   0.8821     H
O       0.8795   0.0138  0.80642     O
O       0.8795   0.4862  0.30642     O
C       0.8799     0.07   0.2436     C
C       0.8799     0.43   0.7436     C
C       0.8872   0.2137   0.3817     C
C       0.8872   0.2863   0.8817     C
C       0.8913   0.1151  0.93681     C
C       0.8913   0.3849  0.43681     C
C       0.8924   0.5162  0.33118     C
C       0.8924   0.9838  0.83118     C
O       0.8937    0.626  0.69149     O
O       0.8937    0.874  0.19149     O
Mn     0.89568  0.50427  0.68835    Mn
Mn     0.89568  0.99573  0.18835    Mn
C       0.8961   0.1344  0.26783     C
C       0.8961   0.3656  0.76783     C
C       0.9117   0.6717  0.71328     C
C       0.9117   0.8283  0.21328     C
C       0.9215    0.239   0.9088     C
C       0.9215    0.261   0.4088     C
O       0.9227   0.0857  0.22054     O
O       0.9227   0.4143  0.72054     O
C       0.9317   0.2459   0.8115     C
C       0.9317   0.2541   0.3115     C
C       0.9319   0.5576  0.58753     C
C       0.9319   0.9424  0.08753     C
H       0.9331   0.1667   0.3802     H
H       0.9331   0.3333   0.8802     H
N       0.9398   0.5174  0.53922     N
N       0.9398   0.9826  0.03922     N
H       0.9452   0.2066   0.8264     H
H       0.9452   0.2934   0.3264     H
H       0.9552   0.5813   0.6066     H
H       0.9552   0.9187   0.1066     H
H       0.9724   0.6991   0.2493     H
H       0.9724   0.8009   0.7493     H
C       0.9815   0.1966  0.26643     C
C       0.9815   0.3034  0.76643     C
H       0.9882   0.2453   0.4249     H
H       0.9882   0.2547   0.9249     H
O       0.9977   0.0378  0.15375     O
O       0.9977   0.4622  0.65375     O
C       0.9986   0.2449  0.78837     C
C       0.9986   0.2551  0.28837     C
C       0.9999   0.0665  0.93743     C
C       0.9999   0.4335  0.43743     C
