data_I
_chemical_name_common  '/home/zhangsd/repos/MofS-CGCNN/ML/data/SSD/clean_cifs/JAHNEM03_clean'
_cell_length_a 13.62060
_cell_length_b 13.62060
_cell_length_c  8.17510
_cell_angle_alpha 90.00000
_cell_angle_beta  90.00000
_cell_angle_gamma 120.00000
_space_group_name_H-M_alt      'P 1'


loop_
_space_group_symop_operation_xyz
  'x, y, z' 

loop_
_atom_site_label
_atom_site_fract_x
_atom_site_fract_y
_atom_site_fract_z
_atom_site_type_symbol
H       0.0183   0.5609   0.3076     H
C       0.0338   0.6815    0.161     C
Mn     0.03865  0.70439  0.54383    Mn
H        0.045   0.6475   0.0637     H
O       0.0478   0.2282   0.9051     O
O       0.0587   0.8144   0.7465     O
N        0.062   0.6369    0.307     N
H       0.0839   0.2852   0.4451     H
H       0.0844   0.7628   0.1546     H
C        0.089    0.344   0.6672     C
C       0.1082    0.267   0.7802     C
N       0.1294    0.634   0.6916     N
N       0.1306   0.4499   0.1035     N
H       0.1342    0.421   0.7108     H
H       0.1346   0.6535   0.2995     H
N       0.1347   0.3448   0.5042     N
H       0.1511   0.4089   0.4505     H
C       0.1588   0.8918   0.7802     C
O       0.1804   0.9522   0.9051     O
O       0.1856   0.2443   0.7465     O
H       0.2013   0.9161   0.4451     H
C       0.2018   0.6457   0.7755     C
C       0.2086   0.5303   0.0537     C
N       0.2101   0.8653   0.5042     N
O       0.2282   0.1804   0.4051     O
H       0.2372   0.3216   0.1546     H
O       0.2443   0.0587   0.2465     O
C        0.255    0.911   0.6672     C
H       0.2578   0.8489   0.4505     H
C        0.267   0.1588   0.2802     C
H       0.2852   0.2013   0.9451     H
H       0.2868   0.8658   0.7108     H
Mn     0.29561  0.33426  0.54383    Mn
C       0.3185   0.3523    0.161     C
N       0.3193   0.8694   0.1035     N
H       0.3216   0.0844   0.6546     H
C       0.3217   0.7914   0.0537     C
Cr     0.33333  0.66667  0.92457    Cr
Mn     0.33426  0.03865  0.04383    Mn
C        0.344    0.255   0.1672     C
N       0.3448   0.2101   0.0042     N
H       0.3465   0.4811   0.2995     H
C       0.3523   0.0338    0.661     C
H       0.3525   0.3975   0.0637     H
C       0.3543   0.5561   0.7755     C
N       0.3631   0.4251    0.307     N
N        0.366   0.4954   0.6916     N
H       0.3975    0.045   0.5637     H
H       0.4089   0.2578   0.9505     H
H        0.421   0.2868   0.2108     H
N       0.4251    0.062    0.807     N
H       0.4391   0.4574   0.3076     H
C       0.4439   0.7982   0.7755     C
N       0.4499   0.3193   0.6035     N
H       0.4574   0.0183   0.8076     H
C       0.4697   0.6783   0.0537     C
H       0.4811   0.1346   0.7995     H
N       0.4954   0.1294   0.1916     N
N       0.5046   0.8706   0.6916     N
H       0.5189   0.8654   0.2995     H
C       0.5303   0.3217   0.5537     C
H       0.5426   0.9817   0.3076     H
N       0.5501   0.6807   0.1035     N
C       0.5561   0.2018   0.2755     C
H       0.5609   0.5426   0.8076     H
N       0.5749    0.938    0.307     N
H        0.579   0.7132   0.7108     H
H       0.5911   0.7422   0.4505     H
H       0.6025    0.955   0.0637     H
N        0.634   0.5046   0.1916     N
N       0.6369   0.5749    0.807     N
C       0.6457   0.4439   0.2755     C
H       0.6475   0.6025   0.5637     H
C       0.6477   0.9662    0.161     C
H       0.6535   0.5189   0.7995     H
N       0.6552   0.7899   0.5042     N
C        0.656    0.745   0.6672     C
Mn     0.66574  0.96135  0.54383    Mn
Cr     0.66667  0.33333  0.42457    Cr
C       0.6783   0.2086   0.5537     C
H       0.6784   0.9156   0.1546     H
N       0.6807   0.1306   0.6035     N
C       0.6815   0.6477    0.661     C
Mn     0.70439  0.66574  0.04383    Mn
H       0.7132   0.1342   0.2108     H
H       0.7148   0.7987   0.4451     H
C        0.733   0.8412   0.7802     C
H       0.7422   0.1511   0.9505     H
C        0.745    0.089   0.1672     C
O       0.7557   0.9413   0.7465     O
H       0.7628   0.6784   0.6546     H
O       0.7718   0.8196   0.9051     O
N       0.7899   0.1347   0.0042     N
C       0.7914   0.4697   0.5537     C
C       0.7982   0.3543   0.2755     C
H       0.7987   0.0839   0.9451     H
O       0.8144   0.7557   0.2465     O
O       0.8196   0.0478   0.4051     O
C       0.8412   0.1082   0.2802     C
H       0.8489   0.5911   0.9505     H
N       0.8653   0.6552   0.0042     N
H       0.8654   0.3465   0.7995     H
H       0.8658    0.579   0.2108     H
N       0.8694   0.5501   0.6035     N
N       0.8706    0.366   0.1916     N
C       0.8918    0.733   0.2802     C
C        0.911    0.656   0.1672     C
H       0.9156   0.2372   0.6546     H
H       0.9161   0.7148   0.9451     H
N        0.938   0.3631    0.807     N
O       0.9413   0.1856   0.2465     O
O       0.9522   0.7718   0.4051     O
H        0.955   0.3525   0.5637     H
Mn     0.96135  0.29561  0.04383    Mn
C       0.9662   0.3185    0.661     C
H       0.9817   0.4391   0.8076     H
