data_I
_chemical_name_common  '/home/zhangsd/repos/MofS-CGCNN/ML/data/SSD/clean_cifs/JAKBIJ_clean'
_cell_length_a 10.49600
_cell_length_b 12.39600
_cell_length_c 16.25400
_cell_angle_alpha 90.00000
_cell_angle_beta  90.00000
_cell_angle_gamma 90.00000
_space_group_name_H-M_alt      'P 1'


loop_
_space_group_symop_operation_xyz
  'x, y, z' 

loop_
_atom_site_label
_atom_site_fract_x
_atom_site_fract_y
_atom_site_fract_z
_atom_site_type_symbol
C       0.0042   0.6998   0.7599     C
N       0.0165   0.7213   0.1558     N
C       0.0561   0.1419   0.3188     C
N       0.0625   0.1601   0.7869     N
C       0.0821   0.7814    0.206     C
C       0.0862    0.838   0.8342     C
N       0.0865   0.7361   0.8127     N
N       0.0975   0.9239   0.8571     N
N       0.1091   0.8874   0.5524     N
N       0.1168    0.071   0.3087     N
N       0.1464   0.8347   0.2398     N
C       0.1475   0.9371   0.6187     C
C       0.1711   0.8946   0.4844     C
N       0.1715   0.9771   0.6785     N
N       0.2188   0.8902   0.4224     N
Mn     0.22651  0.04889  0.79988    Mn
Mn     0.27349  0.95111  0.29988    Mn
N       0.2812   0.1098   0.9224     N
N       0.3285   0.0229   0.1785     N
C       0.3289   0.1054   0.9844     C
C       0.3525   0.0629   0.1187     C
N       0.3536   0.1653   0.7398     N
N       0.3832    0.929   0.8087     N
N       0.3909   0.1126   0.0524     N
N       0.4025   0.0761   0.3571     N
N       0.4135   0.2639   0.3127     N
C       0.4138    0.162   0.3342     C
C       0.4179   0.2186    0.706     C
N       0.4375   0.8399   0.2869     N
C       0.4439   0.8581   0.8188     C
N       0.4835   0.2787   0.6558     N
C       0.4958   0.3002   0.2599     C
C       0.5042   0.8002   0.2401     C
N       0.5165   0.7787   0.8442     N
C       0.5561   0.3581   0.6812     C
N       0.5625   0.3399   0.2131     N
C       0.5821   0.7186    0.794     C
C       0.5862    0.662   0.1658     C
N       0.5865   0.7639   0.1873     N
N       0.5975   0.5761   0.1429     N
N       0.6091   0.6126   0.4476     N
N       0.6168    0.429   0.6913     N
N       0.6464   0.6653   0.7602     N
C       0.6475   0.5629   0.3813     C
C       0.6711   0.6054   0.5156     C
N       0.6715   0.5229   0.3215     N
N       0.7188   0.6098   0.5776     N
Mn     0.72651  0.45111  0.20012    Mn
Mn     0.77349  0.54889  0.70012    Mn
N       0.7812   0.3902   0.0776     N
N       0.8285   0.4771   0.8215     N
C       0.8289   0.3946   0.0156     C
C       0.8525   0.4371   0.8813     C
N       0.8536   0.3347   0.2602     N
N       0.8832    0.571   0.1913     N
N       0.8909   0.3874   0.9476     N
N       0.9025   0.4239   0.6429     N
N       0.9135   0.2361   0.6873     N
C       0.9138    0.338   0.6658     C
C       0.9179   0.2814    0.294     C
N       0.9375   0.6601   0.7131     N
C       0.9439   0.6419   0.1812     C
N       0.9835   0.2213   0.3442     N
C       0.9958   0.1998   0.7401     C
