data_I
_chemical_name_common  '/home/zhangsd/repos/MofS-CGCNN/ML/data/SSD/clean_cifs/JAKBOP01_clean'
_cell_length_a 10.39100
_cell_length_b 15.81000
_cell_length_c 15.48200
_cell_angle_alpha 90.00000
_cell_angle_beta  127.56000
_cell_angle_gamma 90.00000
_space_group_name_H-M_alt      'P 1'


loop_
_space_group_symop_operation_xyz
  'x, y, z' 

loop_
_atom_site_label
_atom_site_fract_x
_atom_site_fract_y
_atom_site_fract_z
_atom_site_type_symbol
C       0.0337   0.2447   0.0357     C
C       0.0337   0.2553   0.5357     C
N        0.098   0.7088   0.0025     N
N        0.098   0.7912   0.5025     N
N       0.1492    0.203   0.0753     N
N       0.1492    0.297   0.5753     N
C       0.2009   0.6892   0.1029     C
C       0.2009   0.8108   0.6029     C
N        0.312   0.6633   0.1916     N
N        0.312   0.8367   0.6916     N
N       0.3902   0.0618   0.1034     N
N       0.3902   0.4382   0.6034     N
N       0.4027   0.1154     0.31     N
N       0.4027   0.3846     0.81     N
Mn      0.4164  0.18386  0.18495    Mn
Mn      0.4164  0.31614  0.68495    Mn
C         0.44   0.5039   0.6093     C
C         0.44   0.9961   0.1093     C
N       0.4446    0.197   0.7721     N
N       0.4446    0.303   0.2721     N
N       0.4541   0.6369   0.9918     N
N       0.4541   0.8631   0.4918     N
C       0.4645   0.1288   0.4009     C
N       0.4645    0.241   0.5849     N
N       0.4645    0.259   0.0849     N
C       0.4645   0.3712   0.9009     C
C       0.4713   0.1382   0.8221     C
C       0.4713   0.3618   0.3221     C
C       0.4951   0.1962   0.5444     C
C       0.4951   0.3038   0.0444     C
N       0.4974   0.5771   0.6075     N
N       0.4974   0.9229   0.1075     N
N       0.5026   0.0771   0.8925     N
N       0.5026   0.4229   0.3925     N
C       0.5049   0.6962   0.9556     C
C       0.5049   0.8038   0.4556     C
C       0.5287   0.6382   0.6779     C
C       0.5287   0.8618   0.1779     C
C       0.5355   0.6288   0.0991     C
N       0.5355    0.741   0.9151     N
N       0.5355    0.759   0.4151     N
C       0.5355   0.8712   0.5991     C
N       0.5459   0.1369   0.5082     N
N       0.5459   0.3631   0.0082     N
N       0.5554    0.697   0.7279     N
N       0.5554    0.803   0.2279     N
C         0.56   0.0039   0.8907     C
C         0.56   0.4961   0.3907     C
Mn      0.5836  0.68386  0.31505    Mn
Mn      0.5836  0.81614  0.81505    Mn
N       0.5973   0.6154     0.19     N
N       0.5973   0.8846     0.69     N
N       0.6098   0.5618   0.3966     N
N       0.6098   0.9382   0.8966     N
N        0.688   0.1633   0.3084     N
N        0.688   0.3367   0.8084     N
C       0.7991   0.1892   0.3971     C
C       0.7991   0.3108   0.8971     C
N       0.8508    0.703   0.4247     N
N       0.8508    0.797   0.9247     N
N        0.902   0.2088   0.4975     N
N        0.902   0.2912   0.9975     N
C       0.9663   0.7447   0.4643     C
C       0.9663   0.7553   0.9643     C
