data_I
_chemical_name_common  '/home/zhangsd/repos/MofS-CGCNN/ML/data/SSD/clean_cifs/JAKBOP_clean'
_cell_length_a 10.69400
_cell_length_b 12.09200
_cell_length_c 16.10800
_cell_angle_alpha 90.00000
_cell_angle_beta  90.00000
_cell_angle_gamma 90.00000
_space_group_name_H-M_alt      'P 1'


loop_
_space_group_symop_operation_xyz
  'x, y, z' 

loop_
_atom_site_label
_atom_site_fract_x
_atom_site_fract_y
_atom_site_fract_z
_atom_site_type_symbol
C       0.0013   0.2933   0.7579     C
N       0.0019   0.2668   0.1592     N
C       0.0641   0.3548   0.1796     C
N       0.0652     0.33   0.7069     N
C       0.0785   0.7186   0.2902     C
N       0.0787   0.7622   0.6864     N
C       0.0829     0.66    0.661     C
N       0.0973   0.5732   0.6349     N
N       0.1014   0.6073   0.9435     N
N       0.1238   0.4279   0.1871     N
C       0.1424   0.5575   0.8768     C
N       0.1484   0.6706   0.2566     N
C        0.167   0.6079   0.0113     C
N       0.1684   0.5176   0.8161     N
N       0.2147   0.6173    0.073     N
Mn     0.22455  0.44573  0.69451    Mn
Mn     0.27545  0.55427  0.19451    Mn
N       0.2853   0.3827    0.573     N
N       0.3316   0.4824   0.3161     N
C        0.333   0.3921   0.5113     C
N       0.3516   0.3294   0.7566     N
C       0.3576   0.4425   0.3768     C
N       0.3762   0.5721   0.6871     N
N       0.3986   0.3927   0.4435     N
N       0.4027   0.4268   0.1349     N
C       0.4171     0.34    0.161     C
N       0.4213   0.2378   0.1864     N
C       0.4215   0.2814   0.7902     C
N       0.4348     0.67   0.2069     N
C       0.4359   0.6452   0.6796     C
N       0.4981   0.7332   0.6592     N
C       0.4987   0.7067   0.2579     C
C       0.5013   0.2067   0.2421     C
N       0.5019   0.2332   0.8408     N
C       0.5641   0.1452   0.8204     C
N       0.5652     0.17   0.2931     N
C       0.5785   0.7814   0.7098     C
N       0.5787   0.7378   0.3136     N
C       0.5829     0.84    0.339     C
N       0.5973   0.9268   0.3651     N
N       0.6014   0.8927   0.0565     N
N       0.6238   0.0721   0.8129     N
C       0.6424   0.9425   0.1232     C
N       0.6484   0.8294   0.7434     N
C        0.667   0.8921   0.9887     C
N       0.6684   0.9824   0.1839     N
N       0.7147   0.8827    0.927     N
Mn     0.72455  0.05427  0.30549    Mn
Mn     0.77545  0.94573  0.80549    Mn
N       0.7853   0.1173    0.427     N
N       0.8316   0.0176   0.6839     N
C        0.833   0.1079   0.4887     C
N       0.8516   0.1706   0.2434     N
C       0.8576   0.0575   0.6232     C
N       0.8762   0.9279   0.3129     N
N       0.8986   0.1073   0.5565     N
N       0.9027   0.0732   0.8651     N
C       0.9171     0.16    0.839     C
N       0.9213   0.2622   0.8136     N
C       0.9215   0.2186   0.2098     C
N       0.9348     0.83   0.7931     N
C       0.9359   0.8548   0.3204     C
N       0.9981   0.7668   0.3408     N
C       0.9987   0.7933   0.7421     C
