data_I
_chemical_name_common  '/home/zhangsd/repos/MofS-CGCNN/ML/data/SSD/clean_cifs/JEDKEJ_clean'
_cell_length_a 18.00500
_cell_length_b 23.23500
_cell_length_c 23.73200
_cell_angle_alpha 90.00000
_cell_angle_beta  90.00000
_cell_angle_gamma 90.46000
_space_group_name_H-M_alt      'P 1'


loop_
_space_group_symop_operation_xyz
  'x, y, z' 

loop_
_atom_site_label
_atom_site_fract_x
_atom_site_fract_y
_atom_site_fract_z
_atom_site_type_symbol
Cr         0.0      0.0      0.0    Cr
Cr         0.0      0.5      0.5    Cr
N       0.0039   0.4355   0.2691     N
N       0.0039   0.9355   0.2309     N
H       0.0062   0.2505   0.6952     H
H       0.0062   0.7505   0.8048     H
C       0.0074   0.3866   0.3005     C
C       0.0074   0.8866   0.1995     C
Cr     0.00741  0.35275  0.84799    Cr
Cr     0.00741  0.85275  0.65201    Cr
C       0.0089   0.2134   0.6173     C
C       0.0089   0.7134   0.8827     C
H       0.0112   0.2957   0.0333     H
H       0.0112   0.7957   0.4667     H
C       0.0152   0.2456   0.1598     C
C       0.0152   0.7456   0.3402     C
C       0.0216   0.0136   0.0839     C
C       0.0216   0.5136   0.4161     C
C       0.0242   0.2736   0.0644     C
C       0.0242   0.7736   0.4356     C
C       0.0271   0.0846   0.9825     C
C       0.0271   0.5846   0.5175     C
C       0.0331   0.0897   0.2925     C
C       0.0331   0.5897   0.2075     C
N       0.0355   0.0205     0.13     N
N       0.0355   0.5205     0.37     N
H       0.0412   0.1831   0.6239     H
H       0.0412   0.6831   0.8761     H
H       0.0423   0.1906   0.8138     H
H       0.0423   0.6906   0.6862     H
C       0.0452   0.1562   0.7939     C
C       0.0452   0.6562   0.7061     C
N       0.0453   0.1315   0.9745     N
N       0.0453   0.6315   0.5255     N
C       0.0487   0.2947    0.905     C
C       0.0487   0.7947    0.595     C
C       0.0492   0.0573   0.7323     C
C       0.0492   0.5573   0.7677     C
H       0.0497   0.0235   0.7113     H
H       0.0497   0.5235   0.7887     H
N       0.0543   0.0535   0.2626     N
N       0.0543   0.5535   0.2374     N
H       0.0549   0.3964    0.379     H
H       0.0549   0.8964    0.121     H
C       0.0646   0.1226   0.4077     C
C       0.0646   0.6226   0.0923     C
C        0.065   0.2023   0.1541     C
C        0.065   0.7023   0.3459     C
C       0.0685   0.2055   0.3169     C
C       0.0685   0.7055   0.1831     C
C       0.0711   0.3831   0.3422     C
C       0.0711   0.8831   0.1578     C
N        0.074   0.2304   0.0571     N
N        0.074   0.7304   0.4429     N
N       0.0753   0.2614   0.9362     N
N       0.0753   0.7614   0.5638     N
H       0.0788   0.1783   0.1835     H
H       0.0788   0.6783   0.3165     H
C       0.0819    0.415   0.8715     C
C       0.0819    0.915   0.6285     C
C       0.0828   0.3197   0.7907     C
C       0.0828   0.8197   0.7093     C
H       0.0872   0.3436   0.3459     H
H       0.0872   0.8436   0.1541     H
Cu     0.08781  0.49072  0.28731    Cu
Cu     0.08781  0.99072  0.21269    Cu
C       0.0923   0.1978   0.1014     C
C       0.0923   0.6978   0.3986     C
H       0.0966   0.3541    0.541     H
H       0.0966   0.8541    0.959     H
H       0.1006   0.4043    0.611     H
H       0.1006   0.9043    0.889     H
N       0.1023   0.1119   0.4447     N
N       0.1023   0.6119   0.0553     N
C       0.1037   0.1459   0.7558     C
C       0.1037   0.6459   0.7442     C
C       0.1043   0.0973   0.7232     C
C       0.1043   0.5973   0.7768     C
N       0.1092   0.2353   0.2979     N
N       0.1092   0.7353   0.2021     N
C       0.1104   0.4759   0.5115     C
C       0.1104   0.9759   0.9885     C
H        0.111   0.2924   0.5657     H
H        0.111   0.7924   0.9343     H
H       0.1123   0.3558   0.6565     H
H       0.1123   0.8558   0.8435     H
H       0.1179   0.1144   0.0807     H
H       0.1179   0.6144   0.4193     H
Cu     0.12266  0.20649  0.98569    Cu
Cu     0.12266  0.70649  0.51431    Cu
N       0.1233   0.4511   0.8823     N
N       0.1233   0.9511   0.6177     N
N       0.1251   0.2995   0.7614     N
N       0.1251   0.7995   0.7386     N
N       0.1326   0.4192   0.3221     N
N       0.1326   0.9192   0.1779     N
H       0.1344   0.4256   0.7357     H
H       0.1344   0.9256   0.7643     H
C        0.135    0.327   0.5513     C
C        0.135    0.827   0.9487     C
H       0.1369   0.4295   0.2874     H
H       0.1369   0.9295   0.2126     H
C       0.1375   0.3816   0.6306     C
C       0.1375   0.8816   0.8694     C
H       0.1399   0.2424   0.4457     H
H       0.1399   0.7424   0.0543     H
H       0.1406   0.0916   0.6959     H
H       0.1406   0.5916   0.8041     H
H       0.1424   0.1724   0.7528     H
H       0.1424   0.6724   0.7472     H
C       0.1456   0.1495   0.0882     C
C       0.1456   0.6495   0.4118     C
H       0.1585   0.4438   0.3986     H
H       0.1585   0.9438   0.1014     H
N       0.1693   0.4609   0.5193     N
N       0.1693   0.9609   0.9807     N
C        0.176   0.4378   0.7157     C
C        0.176   0.9378   0.7843     C
H       0.1777   0.1429   0.1204     H
H       0.1777   0.6429   0.3796     H
C       0.1791   0.2686   0.4488     C
C       0.1791   0.7686   0.0512     C
N       0.1802   0.3508   0.5925     N
N       0.1802   0.8508   0.9075     N
C       0.1839   0.3117   0.4972     C
C       0.1839   0.8117   0.0028     C
C       0.1842   0.4357   0.3636     C
C       0.1842   0.9357   0.1364     C
H       0.1864   0.2264   0.8654     H
H       0.1864   0.7264   0.6346     H
C       0.1886   0.4181     0.66     C
C       0.1886   0.9181     0.84     C
H       0.1895   0.0834   0.0096     H
H       0.1895   0.5834   0.4904     H
H       0.1897   0.0886   0.2412     H
N       0.1897   0.1641   0.0402     N
H       0.1897   0.5886   0.2588     H
N       0.1897   0.6641   0.4598     N
N         0.19   0.0214   0.1931     N
N         0.19   0.5214   0.3069     N
H       0.1957   0.1991   0.0293     H
H       0.1957   0.6991   0.4707     H
N       0.1988   0.1769   0.9315     N
N       0.1988   0.6769   0.5685     N
H       0.2121   0.4843   0.7741     H
H       0.2121   0.9843   0.7259     H
C       0.2143   0.1958   0.8788     C
C       0.2143   0.6958   0.6212     C
H       0.2186   0.4045   0.3704     H
H       0.2186   0.9045   0.1296     H
C        0.219   0.0691   0.2153     C
C        0.219   0.5691   0.2847     C
C       0.2221    0.472   0.7376     C
C       0.2221    0.972   0.7624     C
C       0.2238   0.1158    0.011     C
C       0.2238   0.6158    0.489     C
H       0.2257   0.2489   0.3779     H
H       0.2257   0.7489   0.1221     H
C       0.2263   0.4883   0.3447     C
C       0.2263   0.9883   0.1553     C
H       0.2276    0.347   0.5942     H
H       0.2276    0.847   0.9058     H
C       0.2351   0.2705   0.4101     C
C       0.2351   0.7705   0.0899     C
C       0.2426   0.1345   0.9537     C
C       0.2426   0.6345   0.5463     C
N       0.2497   0.3426   0.4924     N
N       0.2497   0.8426   0.0076     N
N       0.2515   0.4358   0.6329     N
N       0.2515   0.9358   0.8671     N
Cu     0.25687  0.40108  0.55641    Cu
Cu     0.25687  0.90108  0.94359    Cu
C       0.2669   0.1741   0.8437     C
C       0.2669   0.6741   0.6563     C
H       0.2682   0.1039   0.0307     H
H       0.2682   0.6039   0.4693     H
H       0.2726   0.1875    0.807     H
H       0.2726   0.6875    0.693     H
C       0.2858   0.4931    0.713     C
C       0.2858   0.9931    0.787     C
C       0.2865   0.0922   0.2043     C
C       0.2865   0.5922   0.2957     C
C       0.2913   0.2937   0.4098     C
C       0.2913   0.7937   0.0902     C
C       0.2975   0.4686    0.656     C
C       0.2975   0.9686    0.844     C
C       0.2977   0.3341   0.4525     C
C       0.2977   0.8341   0.0475     C
C       0.2987   0.0103   0.1393     C
C       0.2987   0.5103   0.3607     C
C       0.3005   0.1106   0.9191     C
C       0.3005   0.6106   0.5809     C
H       0.3066   0.1247   0.2216     H
H       0.3066   0.6247   0.2784     H
C        0.311   0.1316   0.8651     C
C        0.311   0.6316   0.6349     C
H       0.3176   0.0195     0.77     H
C       0.3176   0.0629   0.1669     C
H       0.3176   0.5195     0.73     H
C       0.3176   0.5629   0.3331     C
H       0.3287   0.2862   0.3838     H
H       0.3287   0.7862   0.1162     H
H       0.3297    0.492   0.3864     H
H       0.3297    0.992   0.1136     H
H       0.3305   0.0813   0.9329     H
H       0.3305   0.5813   0.5671     H
H       0.3401   0.3573   0.4525     H
H       0.3401   0.8573   0.0475     H
H       0.3409    0.478   0.6367     H
H       0.3409    0.978   0.8633     H
N       0.3461   0.4415   0.5297     N
N       0.3461   0.9415   0.9703     N
H       0.3487   0.1166   0.8429     H
H       0.3487   0.6166   0.6571     H
H       0.3624   0.0787   0.1547     H
H       0.3624   0.5787   0.3453     H
C       0.3996   0.4624   0.5172     C
C       0.3996   0.9624   0.9828     C
N       0.4185   0.1146   0.0462     N
N       0.4185   0.6146   0.4538     N
C       0.4471   0.0745   0.0291     C
C       0.4471   0.5745   0.4709     C
N       0.4992   0.0513   0.8748     N
N       0.4992   0.5513   0.6252     N
C       0.4994   0.4659   0.4179     C
C       0.4994   0.9659   0.0821     C
Cr         0.5      0.0      0.0    Cr
Cr         0.5      0.5      0.5    Cr
C       0.5006   0.0341   0.9179     C
C       0.5006   0.5341   0.5821     C
N       0.5008   0.4487   0.3748     N
N       0.5008   0.9487   0.1252     N
C       0.5529   0.4255   0.5291     C
C       0.5529   0.9255   0.9709     C
N       0.5815   0.3854   0.5462     N
N       0.5815   0.8854   0.9538     N
C       0.6004   0.0376   0.0172     C
C       0.6004   0.5376   0.4828     C
H       0.6376   0.4213   0.6547     H
H       0.6376   0.9213   0.8453     H
H       0.6513   0.3834   0.3429     H
H       0.6513   0.8834   0.1571     H
N       0.6539   0.0585   0.0297     N
N       0.6539   0.5585   0.4703     N
H       0.6591    0.022   0.1367     H
H       0.6591    0.522   0.3633     H
H       0.6599   0.1427   0.9525     H
H       0.6599   0.6427   0.5475     H
H       0.6695   0.4187   0.4329     H
H       0.6695   0.9187   0.0671     H
H       0.6703    0.008   0.8864     H
H       0.6703    0.508   0.6136     H
H       0.6713   0.2138   0.8838     H
H       0.6713   0.7138   0.6162     H
C       0.6824   0.4371   0.6669     C
H       0.6824   0.4805     0.27     H
C       0.6824   0.9371   0.8331     C
H       0.6824   0.9805     0.23     H
C        0.689   0.3684   0.3651     C
C        0.689   0.8684   0.1349     C
H       0.6934   0.3753   0.7216     H
H       0.6934   0.8753   0.7784     H
C       0.6995   0.3894   0.4191     C
C       0.6995   0.8894   0.0809     C
C       0.7013   0.4897   0.6393     C
C       0.7013   0.9897   0.8607     C
C       0.7023   0.1659   0.9525     C
C       0.7023   0.6659   0.5475     C
C       0.7025   0.0314    0.156     C
C       0.7025   0.5314    0.344     C
C       0.7087   0.2063   0.9098     C
C       0.7087   0.7063   0.5902     C
C       0.7135   0.4078   0.7043     C
C       0.7135   0.9078   0.7957     C
C       0.7142   0.0069    0.213     C
C       0.7142   0.5069    0.287     C
H       0.7274   0.3125    0.307     H
H       0.7274   0.8125    0.193     H
H       0.7318   0.3961   0.5307     H
H       0.7318   0.8961   0.9693     H
C       0.7331   0.3259   0.3437     C
C       0.7331   0.8259   0.1563     C
Cu     0.74313  0.09892  0.05641    Cu
Cu     0.74313  0.59892  0.44359    Cu
N       0.7485   0.0642   0.1329     N
N       0.7485   0.5642   0.3671     N
N       0.7503   0.1574   0.9924     N
N       0.7503   0.6574   0.5076     N
C       0.7574   0.3655   0.4537     C
C       0.7574   0.8655   0.0463     C
C       0.7649   0.2295   0.9101     C
C       0.7649   0.7295   0.5899     C
H       0.7724    0.153   0.0942     H
H       0.7724    0.653   0.4058     H
C       0.7737   0.0117   0.8447     C
C       0.7737   0.5117   0.6553     C
H       0.7743   0.2511   0.8779     H
H       0.7743   0.7511   0.6221     H
C       0.7762   0.3842    0.511     C
C       0.7762   0.8842    0.989     C
C       0.7779    0.028   0.2376     C
C       0.7779    0.528   0.2624     C
C        0.781   0.4309   0.7153     C
C        0.781   0.9309   0.7847     C
H       0.7814   0.0955   0.8704     H
H       0.7814   0.5955   0.6296     H
C       0.7857   0.3042   0.3788     C
C       0.7857   0.8042   0.1212     C
H       0.7879   0.0157   0.2741     H
H       0.7879   0.5157   0.2259     H
N       0.8012   0.3231   0.4315     N
N       0.8012   0.8231   0.0685     N
H       0.8043   0.3009   0.5293     H
H       0.8043   0.8009   0.9707     H
N         0.81   0.4786   0.6931     N
N         0.81   0.9786   0.8069     N
N       0.8103   0.3359   0.5402     N
H       0.8103   0.4114   0.7412     H
N       0.8103   0.8359   0.9598     N
H       0.8103   0.9114   0.7588     H
H       0.8105   0.4166   0.5096     H
H       0.8105   0.9166   0.9904     H
C       0.8114   0.0819     0.16     C
C       0.8114   0.5819     0.34     C
H       0.8136   0.2736   0.3654     H
H       0.8136   0.7736   0.1346     H
C       0.8158   0.0643   0.8636     C
C       0.8158   0.5643   0.6364     C
C       0.8161   0.1883   0.9972     C
C       0.8161   0.6883   0.5028     C
N       0.8198   0.1492   0.0925     N
N       0.8198   0.6492   0.4075     N
C       0.8209   0.2314   0.9488     C
C       0.8209   0.7314   0.5512     C
H       0.8223   0.3571   0.6204     H
H       0.8223   0.8571   0.8796     H
C        0.824   0.0622   0.2157     C
C        0.824   0.5622   0.2843     C
N       0.8307   0.0391   0.0193     N
N       0.8307   0.5391   0.4807     N
H       0.8415   0.0562   0.8986     H
H       0.8415   0.5562   0.6014     H
C       0.8544   0.3505   0.5882     C
C       0.8544   0.8505   0.9118     C
H       0.8576   0.3276   0.2528     H
H       0.8576   0.8276   0.2472     H
H       0.8594   0.4084   0.1959     H
H       0.8594   0.9084   0.3041     H
H       0.8601   0.2576   0.9457     H
H       0.8601   0.7576   0.5543     H
C       0.8625   0.1184   0.1306     C
C       0.8625   0.6184   0.3694     C
H       0.8631   0.0705   0.7874     H
H       0.8631   0.5705   0.7126     H
C        0.865    0.173   0.0513     C
C        0.865    0.673   0.4487     C
H       0.8656   0.0744   0.2357     H
H       0.8656   0.5744   0.2643     H
N       0.8674   0.0808   0.8221     N
N       0.8674   0.5808   0.6779     N
N       0.8749   0.2005   0.2614     N
N       0.8749   0.7005   0.2386     N
N       0.8767   0.0489   0.3823     N
N       0.8767   0.5489   0.1177     N
Cu     0.87734  0.29351  0.48569    Cu
Cu     0.87734  0.79351  0.01431    Cu
H       0.8821   0.3856   0.5807     H
H       0.8821   0.8856   0.9193     H
H       0.8877   0.1442   0.1565     H
H       0.8877   0.6442   0.3435     H
H        0.889   0.2076   0.0657     H
H        0.889   0.7076   0.4343     H
C       0.8896   0.0241   0.0115     C
C       0.8896   0.5241   0.4885     C
N       0.8908   0.2647   0.7979     N
N       0.8908   0.7647   0.7021     N
C       0.8957   0.4027   0.2232     C
C       0.8957   0.9027   0.2768     C
C       0.8963   0.3541   0.2558     C
C       0.8963   0.8541   0.2442     C
N       0.8977   0.3881   0.9447     N
N       0.8977   0.8881   0.5553     N
H       0.8994   0.0957    0.111     H
H       0.8994   0.5957    0.389     H
H       0.9034   0.1459    0.041     H
H       0.9034   0.6459    0.459     H
C       0.9077   0.3022   0.6014     C
C       0.9077   0.8022   0.8986     C
Cu     0.91219  0.00928  0.78731    Cu
Cu     0.91219  0.50928  0.71269    Cu
H       0.9128   0.1564   0.8459     H
H       0.9128   0.6564   0.6541     H
C       0.9172   0.1803   0.2907     C
C       0.9172   0.6803   0.2093     C
C       0.9181    0.085   0.3715     C
C       0.9181    0.585   0.1285     C
H       0.9212   0.3217   0.6835     H
H       0.9212   0.8217   0.8165     H
N       0.9247   0.2386   0.4362     N
N       0.9247   0.7386   0.0638     N
N        0.926   0.2696   0.5571     N
N        0.926   0.7696   0.9429     N
C       0.9289   0.1169   0.8422     C
C       0.9289   0.6169   0.6578     C
C       0.9315   0.2945   0.8169     C
C       0.9315   0.7945   0.6831     C
C        0.935   0.2977   0.6541     C
C        0.935   0.7977   0.8459     C
C       0.9354   0.3774   0.9077     C
C       0.9354   0.8774   0.5923     C
H       0.9451   0.1036    0.879     H
H       0.9451   0.6036    0.621     H
N       0.9457   0.4465   0.7626     N
N       0.9457   0.9465   0.7374     N
H       0.9503   0.4765   0.2113     H
H       0.9503   0.9765   0.2887     H
C       0.9508   0.4427   0.2323     C
C       0.9508   0.9427   0.2677     C
C       0.9513   0.2053    0.405     C
C       0.9513   0.7053    0.095     C
N       0.9547   0.3685   0.4745     N
N       0.9547   0.8685   0.0255     N
C       0.9548   0.3438   0.2939     C
C       0.9548   0.8438   0.2061     C
H       0.9577   0.3094   0.3138     H
H       0.9577   0.8094   0.1862     H
H       0.9588   0.3169   0.1239     H
H       0.9588   0.8169   0.3761     H
N       0.9645   0.4795     0.63     N
N       0.9645   0.9795     0.87     N
C       0.9669   0.4103   0.7925     C
C       0.9669   0.9103   0.7075     C
C       0.9729   0.4154   0.4825     C
C       0.9729   0.9154   0.0175     C
C       0.9758   0.2264   0.5644     C
C       0.9758   0.7264   0.9356     C
C       0.9784   0.4864   0.5839     C
C       0.9784   0.9864   0.9161     C
C       0.9848   0.2544   0.6598     C
C       0.9848   0.7544   0.8402     C
H       0.9888   0.2043   0.5333     H
H       0.9888   0.7043   0.9667     H
C       0.9911   0.2866   0.1173     C
C       0.9911   0.7866   0.3827     C
Cr     0.99259  0.14725  0.34799    Cr
Cr     0.99259  0.64725  0.15201    Cr
C       0.9926   0.1134   0.8005     C
C       0.9926   0.6134   0.6995     C
H       0.9938   0.2495   0.1952     H
H       0.9938   0.7495   0.3048     H
N       0.9961   0.0645   0.7691     N
N       0.9961   0.5645   0.7309     N
