data_I
_chemical_name_common  '/home/zhangsd/repos/MofS-CGCNN/ML/data/SSD/clean_cifs/JEJKEP_clean'
_cell_length_a  9.35820
_cell_length_b 10.95300
_cell_length_c 24.37000
_cell_angle_alpha 90.00000
_cell_angle_beta  90.00000
_cell_angle_gamma 90.00000
_space_group_name_H-M_alt      'P 1'


loop_
_space_group_symop_operation_xyz
  'x, y, z' 

loop_
_atom_site_label
_atom_site_fract_x
_atom_site_fract_y
_atom_site_fract_z
_atom_site_type_symbol
H        0.003   0.0904   0.7973     H
H        0.003   0.9096   0.2973     H
C       0.0323   0.2687  0.72213     C
C       0.0323   0.7313  0.22213     C
C       0.0355   0.1632  0.68982     C
C       0.0355   0.8368  0.18982     C
C       0.0414   0.1277  0.46047     C
C       0.0414   0.8723  0.96047     C
O       0.0616  0.17235  0.50837     O
O       0.0616  0.82765  0.00837     O
O       0.0769   0.1292  0.06333     O
O       0.0769   0.8708  0.56333     O
H       0.0873   0.4468   0.7194     H
H       0.0873   0.5532   0.2194     H
C       0.0885   0.3742  0.69965     C
C       0.0885   0.6258  0.19965     C
C       0.0965   0.1693  0.63871     C
C       0.0965   0.8307  0.13871     C
H       0.0995   0.0983   0.6178     H
H       0.0995   0.9017   0.1178     H
H       0.1155   0.4346   0.9285     H
H       0.1155   0.5654   0.4285     H
O       0.1461  0.42306  0.50924     O
O       0.1461  0.57694  0.00924     O
C       0.1463    0.371  0.64787     C
C       0.1463    0.629  0.14787     C
H       0.1502     0.02   0.9327     H
H       0.1502     0.98   0.4327     H
N       0.1519   0.2709  0.61714     N
N       0.1519   0.7291  0.11714     N
H       0.1619   0.0921   0.3932     H
H       0.1619   0.9079   0.8932     H
C       0.1643   0.0677  0.43143     C
C       0.1643   0.9323  0.93143     C
C       0.1645   0.4641  0.01039     C
C       0.1645   0.5359  0.51039     C
O        0.165   0.3984  0.05252     O
O        0.165   0.6016  0.55252     O
O        0.175  0.27388  0.95786     O
O        0.175  0.72612  0.45786     O
H       0.1836   0.4429   0.6335     H
H       0.1836   0.5571   0.1335     H
C       0.1877   0.4039  0.95416     C
C       0.1877   0.5961  0.45416     C
Co     0.24265  0.27013  0.53838    Co
Co     0.24265  0.72987  0.03838    Co
Co     0.25735  0.22987  0.03838    Co
Co     0.25735  0.77013  0.53838    Co
C       0.3123   0.0961  0.45416     C
C       0.3123   0.9039  0.95416     C
H       0.3164   0.0571   0.1335     H
H       0.3164   0.9429   0.6335     H
O        0.325  0.22612  0.45786     O
O        0.325  0.77388  0.95786     O
O        0.335   0.1016  0.55252     O
O        0.335   0.8984  0.05252     O
C       0.3355   0.0359  0.51039     C
C       0.3355   0.9641  0.01039     C
C       0.3357   0.4323  0.93143     C
C       0.3357   0.5677  0.43143     C
H       0.3381   0.4079   0.8932     H
H       0.3381   0.5921   0.3932     H
N       0.3481   0.2291  0.11714     N
N       0.3481   0.7709  0.61714     N
H       0.3498     0.48   0.4327     H
H       0.3498     0.52   0.9327     H
C       0.3537    0.129  0.14787     C
C       0.3537    0.871  0.64787     C
O       0.3539  0.07694  0.00924     O
O       0.3539  0.92306  0.50924     O
H       0.3845   0.0654   0.4285     H
H       0.3845   0.9346   0.9285     H
H       0.4005   0.4017   0.1178     H
H       0.4005   0.5983   0.6178     H
C       0.4035   0.3307  0.13871     C
C       0.4035   0.6693  0.63871     C
C       0.4115   0.1258  0.19965     C
C       0.4115   0.8742  0.69965     C
H       0.4127   0.0532   0.2194     H
H       0.4127   0.9468   0.7194     H
O       0.4231   0.3708  0.56333     O
O       0.4231   0.6292  0.06333     O
O       0.4384  0.32765  0.00837     O
O       0.4384  0.67235  0.50837     O
C       0.4586   0.3723  0.96047     C
C       0.4586   0.6277  0.46047     C
C       0.4645   0.3368  0.18982     C
C       0.4645   0.6632  0.68982     C
C       0.4677   0.2313  0.22213     C
C       0.4677   0.7687  0.72213     C
H        0.497   0.4096   0.2973     H
H        0.497   0.5904   0.7973     H
H        0.503   0.4096   0.2027     H
H        0.503   0.5904   0.7027     H
C       0.5323   0.2313  0.27787     C
C       0.5323   0.7687  0.77787     C
C       0.5355   0.3368  0.31018     C
C       0.5355   0.6632  0.81018     C
C       0.5414   0.3723  0.53953     C
C       0.5414   0.6277  0.03953     C
O       0.5616  0.32765  0.49163     O
O       0.5616  0.67235  0.99163     O
O       0.5769   0.3708  0.93667     O
O       0.5769   0.6292  0.43667     O
H       0.5873   0.0532   0.2806     H
H       0.5873   0.9468   0.7806     H
C       0.5885   0.1258  0.30035     C
C       0.5885   0.8742  0.80035     C
C       0.5965   0.3307  0.36129     C
C       0.5965   0.6693  0.86129     C
H       0.5995   0.4017   0.3822     H
H       0.5995   0.5983   0.8822     H
H       0.6155   0.0654   0.0715     H
H       0.6155   0.9346   0.5715     H
O       0.6461  0.07694  0.49076     O
O       0.6461  0.92306  0.99076     O
C       0.6463    0.129  0.35213     C
C       0.6463    0.871  0.85213     C
H       0.6502     0.48   0.0673     H
H       0.6502     0.52   0.5673     H
N       0.6519   0.2291  0.38286     N
N       0.6519   0.7709  0.88286     N
H       0.6619   0.4079   0.6068     H
H       0.6619   0.5921   0.1068     H
C       0.6643   0.4323  0.56857     C
C       0.6643   0.5677  0.06857     C
C       0.6645   0.0359  0.98961     C
C       0.6645   0.9641  0.48961     C
O        0.665   0.1016  0.94748     O
O        0.665   0.8984  0.44748     O
O        0.675  0.22612  0.04214     O
O        0.675  0.77388  0.54214     O
H       0.6836   0.0571   0.3665     H
H       0.6836   0.9429   0.8665     H
C       0.6877   0.0961  0.04584     C
C       0.6877   0.9039  0.54584     C
Co     0.74265  0.22987  0.46162    Co
Co     0.74265  0.77013  0.96162    Co
Co     0.75735  0.27013  0.96162    Co
Co     0.75735  0.72987  0.46162    Co
C       0.8123   0.4039  0.54584     C
C       0.8123   0.5961  0.04584     C
H       0.8164   0.4429   0.8665     H
H       0.8164   0.5571   0.3665     H
O        0.825  0.27388  0.54214     O
O        0.825  0.72612  0.04214     O
O        0.835   0.3984  0.44748     O
O        0.835   0.6016  0.94748     O
C       0.8355   0.4641  0.48961     C
C       0.8355   0.5359  0.98961     C
C       0.8357   0.0677  0.06857     C
C       0.8357   0.9323  0.56857     C
H       0.8381   0.0921   0.1068     H
H       0.8381   0.9079   0.6068     H
N       0.8481   0.2709  0.88286     N
N       0.8481   0.7291  0.38286     N
H       0.8498     0.02   0.5673     H
H       0.8498     0.98   0.0673     H
C       0.8537    0.371  0.85213     C
C       0.8537    0.629  0.35213     C
O       0.8539  0.42306  0.99076     O
O       0.8539  0.57694  0.49076     O
H       0.8845   0.4346   0.5715     H
H       0.8845   0.5654   0.0715     H
H       0.9005   0.0983   0.8822     H
H       0.9005   0.9017   0.3822     H
C       0.9035   0.1693  0.86129     C
C       0.9035   0.8307  0.36129     C
C       0.9115   0.3742  0.80035     C
C       0.9115   0.6258  0.30035     C
H       0.9127   0.4468   0.7806     H
H       0.9127   0.5532   0.2806     H
O       0.9231   0.1292  0.43667     O
O       0.9231   0.8708  0.93667     O
O       0.9384  0.17235  0.99163     O
O       0.9384  0.82765  0.49163     O
C       0.9586   0.1277  0.03953     C
C       0.9586   0.8723  0.53953     C
C       0.9645   0.1632  0.81018     C
C       0.9645   0.8368  0.31018     C
C       0.9677   0.2687  0.77787     C
C       0.9677   0.7313  0.27787     C
H        0.997   0.0904   0.7027     H
H        0.997   0.9096   0.2027     H
