data_I
_chemical_name_common  '/home/zhangsd/repos/MofS-CGCNN/ML/data/SSD/clean_cifs/JEXXAM05_clean'
_cell_length_a  7.28640
_cell_length_b  7.28640
_cell_length_c  8.05250
_cell_angle_alpha 90.00000
_cell_angle_beta  90.00000
_cell_angle_gamma 120.00000
_space_group_name_H-M_alt      'P 1'


loop_
_space_group_symop_operation_xyz
  'x, y, z' 

loop_
_atom_site_label
_atom_site_fract_x
_atom_site_fract_y
_atom_site_fract_z
_atom_site_type_symbol
H          0.0   0.4303      0.0     H
C          0.0    0.442      0.5     C
C          0.0    0.558      0.0     C
H          0.0   0.5697      0.5     H
O       0.1116   0.4205  0.60613     O
O       0.1116   0.6911  0.89387     O
O       0.3089   0.4205  0.89387     O
O       0.3089   0.8884  0.60613     O
Ni     0.33333  0.66667     0.75    Ni
O       0.4205   0.1116  0.39387     O
O       0.4205   0.3089  0.10613     O
H       0.4303      0.0      0.0     H
H       0.4303   0.4303      0.5     H
C        0.442      0.0      0.5     C
C        0.442    0.442      0.0     C
C        0.558      0.0      0.0     C
C        0.558    0.558      0.5     C
H       0.5697      0.0      0.5     H
H       0.5697   0.5697      0.0     H
O       0.5795   0.6911  0.60613     O
O       0.5795   0.8884  0.89387     O
Ni     0.66667  0.33333     0.25    Ni
O       0.6911   0.1116  0.10613     O
O       0.6911   0.5795  0.39387     O
O       0.8884   0.3089  0.39387     O
O       0.8884   0.5795  0.10613     O
