data_I
_chemical_name_common  '/home/zhangsd/repos/MofS-CGCNN/ML/data/SSD/clean_cifs/JEXXAM06_clean'
_cell_length_a  7.26100
_cell_length_b  7.26100
_cell_length_c  8.08110
_cell_angle_alpha 90.00000
_cell_angle_beta  90.00000
_cell_angle_gamma 120.00000
_space_group_name_H-M_alt      'P 1'


loop_
_space_group_symop_operation_xyz
  'x, y, z' 

loop_
_atom_site_label
_atom_site_fract_x
_atom_site_fract_y
_atom_site_fract_z
_atom_site_type_symbol
H          0.0   0.4283      0.0     H
C          0.0   0.4436      0.5     C
C          0.0   0.5564      0.0     C
H          0.0   0.5717      0.5     H
O       0.1114   0.4199  0.60668     O
O       0.1114   0.6915  0.89332     O
O       0.3085   0.4199  0.89332     O
O       0.3085   0.8886  0.60668     O
Ni     0.33333  0.66667     0.75    Ni
O       0.4199   0.1114  0.39332     O
O       0.4199   0.3085  0.10668     O
H       0.4283      0.0      0.0     H
H       0.4283   0.4283      0.5     H
C       0.4436      0.0      0.5     C
C       0.4436   0.4436      0.0     C
C       0.5564      0.0      0.0     C
C       0.5564   0.5564      0.5     C
H       0.5717      0.0      0.5     H
H       0.5717   0.5717      0.0     H
O       0.5801   0.6915  0.60668     O
O       0.5801   0.8886  0.89332     O
Ni     0.66667  0.33333     0.25    Ni
O       0.6915   0.1114  0.10668     O
O       0.6915   0.5801  0.39332     O
O       0.8886   0.3085  0.39332     O
O       0.8886   0.5801  0.10668     O
