data_I
_chemical_name_common  '/home/zhangsd/repos/MofS-CGCNN/ML/data/SSD/clean_cifs/JIWKUW_clean'
_cell_length_a 16.87500
_cell_length_b 17.31030
_cell_length_c 20.24410
_cell_angle_alpha 99.18200
_cell_angle_beta  97.80900
_cell_angle_gamma 108.54300
_space_group_name_H-M_alt      'P 1'


loop_
_space_group_symop_operation_xyz
  'x, y, z' 

loop_
_atom_site_label
_atom_site_fract_x
_atom_site_fract_y
_atom_site_fract_z
_atom_site_type_symbol
H       0.0055   0.2359   0.3098     H
C       0.0111   0.1356   0.3503     C
O       0.0169   0.9415   0.2185     O
C       0.0186   0.0114   0.3868     C
O       0.0219   0.3735   0.6315     O
C        0.022   0.3611   0.1332     C
O       0.0226   0.6345   0.2339     O
C       0.0229   0.1476   0.7041     C
H       0.0276   0.7594   0.8037     H
H       0.0303   0.2061   0.7242     H
C       0.0323   0.4453   0.1752     C
O       0.0336   0.5346   0.8293     O
H       0.0339   0.3674   0.0874     H
H       0.0348   0.7896   0.9302     H
H       0.0412   0.9206   0.4318     H
Na      0.0419   0.5729   0.4528    Na
Na      0.0446   0.7196  0.14715    Na
C       0.0449   0.1058   0.7609     C
H       0.0458   0.6783   0.7701     H
C       0.0467   0.2064    0.315     C
H       0.0516   0.1823   0.2686     H
C        0.053   0.0785    0.356     C
O       0.0563   0.5918   0.0941     O
C       0.0582   0.9978   0.5913     C
H       0.0633   0.1488   0.6728     H
H       0.0639   0.3394   0.1554     H
N        0.065   0.6991   0.8742     N
C       0.0658   0.8765   0.6275     C
N       0.0659   0.8952   0.3359     N
C       0.0665   0.9539   0.3995     C
C        0.067   0.7278   0.8083     C
O       0.0817   0.7762   0.0504     O
H       0.0822   0.0436   0.5712     H
C       0.0825   0.7678   0.9326     C
H       0.0825   0.7838   0.3202     H
H        0.085   0.8203   0.3985     H
C       0.0931   0.7364   0.9981     C
H       0.0935   0.2799   0.4427     H
C       0.0943   0.4184   0.6622     C
H       0.0945   0.3559   0.4063     H
H       0.0948   0.8383   0.6329     H
C       0.1005   0.9418   0.5983     C
C       0.1037   0.8353   0.3565     C
O       0.1047   0.5067    0.532     O
O       0.1051   0.4888   0.2087     O
O       0.1127   0.6721   0.9944     O
H       0.1129   0.3389   0.2836     H
O       0.1163   0.4934   0.6947     O
H       0.1181   0.8816   0.7902     H
O         0.12   0.1244   0.7862     O
O       0.1245   0.5026   0.9474     O
C       0.1255   0.3178    0.416     C
H       0.1264   0.9877   0.4215     H
O       0.1266   0.0878   0.3328     O
N       0.1311   0.2682   0.3508     N
H       0.1352   0.8137   0.9319     H
H       0.1441    0.322   0.6554     H
O       0.1445   0.8499   0.2106     O
H       0.1484   0.3836    0.779     H
O       0.1543   0.4207   0.0142     O
C       0.1547   0.7822   0.8024     C
Na      0.1595   0.6276   0.2061    Na
C        0.161   0.3248   0.3056     C
O       0.1628   0.0449   0.1733     O
Tb     0.16413  0.98674  0.27038    Tb
C       0.1652   0.8627   0.7911     C
Tb     0.16639  0.62106  0.90066    Tb
C       0.1669   0.3831   0.6588     C
C       0.1684   0.4898   0.9978     C
H       0.1719   0.9261   0.5253     H
O       0.1816   0.0417   0.0664     O
O       0.1836   0.1769   0.4697     O
C        0.184   0.9522    0.574     C
O       0.1852   0.1985   0.5812     O
O       0.1882   0.3008   0.1927     O
H       0.1902   0.3931   0.6174     H
C       0.1948   0.0236   0.1228     C
H       0.1964   0.3193   0.7604     H
C       0.1973   0.2842   0.2513     C
C       0.1992   0.8687   0.3696     C
C       0.2045   0.3793   0.7741     C
H       0.2054   0.3771   0.3326     H
O       0.2058   0.7564   0.1899     O
C        0.208    0.829    0.202     C
H       0.2086   0.9959   0.7306     H
H       0.2102   0.9111   0.1098     H
O       0.2105   0.6727    0.807     O
O       0.2143   0.6398   0.6569     O
C        0.215   0.3684   0.4574     C
H       0.2167   0.5909   0.0797     H
H       0.2168   0.9255      0.6     H
H       0.2171   0.0117   0.5809     H
C       0.2199   0.7518      0.8     C
C       0.2218   0.1977   0.5314     C
O       0.2243   0.4317   0.5025     O
O       0.2309   0.7463   0.6053     O
O       0.2348   0.2366    0.268     O
N       0.2348   0.4218   0.7189     N
O       0.2352   0.9346   0.3509     O
O       0.2378   0.5431   0.8486     O
O       0.2379   0.8269   0.3954     O
C       0.2395    0.566   0.0426     C
C       0.2413   0.9152   0.7814     C
C       0.2462   0.9698   0.1307     C
Tb     0.24773  0.20764  0.37859    Tb
H       0.2491   0.0355   0.8098     H
C       0.2531   0.9995   0.7688     C
Tb     0.25902  0.57857  0.74329    Tb
C       0.2601   0.7081    0.643     C
C       0.2648   0.4152    0.842     C
H       0.2655   0.7182   0.0791     H
O        0.268   0.7554    0.945     O
O       0.2763   0.3442    0.444     O
N       0.2763   0.6292   0.0053     N
C       0.2773   0.4961   0.8766     C
N        0.282   0.9759   0.2028     N
H       0.2851    0.548    0.064     H
O       0.2865   0.0981   0.3321     O
H       0.2935   0.9857   0.1058     H
C       0.2937   0.8978   0.2097     C
H       0.2968   0.3132   0.8493     H
H       0.2985   0.0855   0.4657     H
C       0.2996   0.8045   0.7925     C
H       0.3016   0.3533   0.6799     H
C       0.3053   0.7151   0.0479     C
C       0.3056   0.3683   0.8728     C
C       0.3074   0.8839   0.7826     C
H       0.3093   0.0229   0.7574     H
C       0.3096   0.7785   0.0056     C
C       0.3135   0.4118   0.7033     C
C       0.3178   0.2275   0.5455     C
O       0.3233   0.5312   0.6554     O
H        0.324   0.8817   0.1743     H
H       0.3291   0.9052    0.255     H
C       0.3327   0.5295   0.9409     C
H       0.3376   0.1996   0.5801     H
H       0.3402   0.2882   0.5652     H
H       0.3489   0.8978    0.606     H
C        0.349   0.4695   0.6583     C
C       0.3498   0.6155   0.9766     C
O       0.3499   0.8539   0.0334     O
H       0.3516   0.0996   0.2165     H
C       0.3529   0.7411   0.6729     C
N       0.3534   0.2113   0.4845     N
H       0.3557   0.4245   0.7462     H
C       0.3574   0.1262   0.4752     C
Na      0.3574  0.54294  0.54545    Na
C       0.3586   0.3988   0.9367     C
H       0.3609   0.9185   0.7763     H
H       0.3614   0.3017   0.9837     H
H       0.3624   0.7277   0.0761     H
C       0.3625   0.0895   0.3483     C
C       0.3631    0.049    0.225     C
H       0.3653   0.6528   0.9445     H
C       0.3723   0.4782   0.9686     C
H       0.3733   0.8028   0.6821     H
N       0.3735   0.7142   0.7371     N
C       0.3766   0.7779   0.7982     C
H       0.3813   0.7545   0.8394     H
H       0.3834    0.946   0.5487     H
H       0.3837   0.7218   0.6392     H
H       0.3877   0.1204   0.5185     H
O       0.3899   0.2807   0.3743     O
O       0.3942    0.597    0.804     O
C       0.3946   0.9441   0.5971     C
H        0.397   0.9967   0.6252     H
H       0.3997   0.6317   0.0144     H
C       0.4012   0.1044   0.4187     C
C       0.4024   0.0636   0.2982     C
C       0.4031   0.3455   0.9684     C
O       0.4042   0.4568    0.626     O
H       0.4043   0.0401   0.1968     H
H       0.4104   0.5003   0.0117     H
H       0.4284   0.8277    0.804     H
H       0.4285   0.3198   0.9343     H
C       0.4379   0.2753   0.4894     C
H       0.4429   0.3263   0.5223     H
H        0.448   0.3806   0.0075     H
C       0.4535   0.2976   0.4229     C
C       0.4567   0.7023   0.7453     C
C       0.4623   0.6439   0.7923     C
H       0.4656   0.6793      0.7     H
O       0.4665   0.3564    0.184     O
O       0.4719   0.6625   0.5811     O
C       0.4789   0.0943   0.4343     C
C       0.4795   0.9313   0.6149     C
C       0.4804   0.0528   0.3173     C
H       0.4828   0.2544   0.5077     H
H       0.4931   0.9661   0.7174     H
H       0.4947   0.8946    0.519     H
H       0.4973    0.243   0.2361     H
H       0.5027    0.757   0.7639     H
H       0.5053   0.1054    0.481     H
H       0.5069   0.0339   0.2826     H
H       0.5172   0.7456   0.4923     H
C       0.5196   0.9472   0.6827     C
C       0.5205   0.0687   0.3851     C
C       0.5211   0.9057   0.5657     C
O       0.5281   0.3375   0.4189     O
O       0.5335   0.6436    0.816     O
H       0.5344   0.3207      0.3     H
C       0.5377   0.3561   0.2077     C
C       0.5433   0.2977   0.2547     C
C       0.5465   0.7024   0.5771     C
H        0.552   0.6194   0.9925     H
H       0.5571   0.6737   0.4777     H
C       0.5621   0.7247   0.5106     C
H       0.5715   0.6802   0.0657     H
H       0.5716   0.1723    0.196     H
H       0.5896   0.4997   0.9883     H
H       0.5957   0.9599   0.8032     H
O       0.5958   0.5432    0.374     O
C       0.5969   0.6545   0.0316     C
C       0.5976   0.9364   0.7018     C
C       0.5988   0.8956   0.5813     C
H       0.6003   0.3683   0.9856     H
H        0.603   0.0033   0.3748     H
C       0.6054   0.0559   0.4029     C
O       0.6058    0.403    0.196     O
O       0.6101   0.7193   0.6257     O
H       0.6123   0.8796   0.4815     H
H       0.6163   0.2782   0.3608     H
H       0.6166    0.054   0.4513     H
H       0.6187   0.2455   0.1606     H
C       0.6234   0.2221   0.2018     C
N       0.6265   0.2858   0.2629     N
H       0.6267   0.1972   0.3179     H
C       0.6277   0.5218   0.0314     C
H       0.6347   0.3472   0.0555     H
C       0.6369    0.951    0.775     C
C       0.6375   0.9105   0.6517     C
H       0.6376   0.2723   0.9239     H
H       0.6386   0.6983   0.0163     H
H       0.6391   0.0815   0.2237     H
C       0.6414   0.6012   0.0633     C
Na      0.6426  0.45706  0.45455    Na
C       0.6426   0.8738   0.5248     C
H       0.6443   0.5755   0.2538     H
N       0.6466   0.7887   0.5155     N
C       0.6471   0.2589   0.3271     C
H       0.6484   0.9004   0.7835     H
O       0.6501   0.1461   0.9666     O
C       0.6502   0.3845   0.0234     C
C        0.651   0.5305   0.3417     C
H       0.6511   0.1022    0.394     H
H       0.6598   0.7118   0.4348     H
H       0.6624   0.8004   0.4199     H
C       0.6673   0.4705   0.0591     C
H       0.6709   0.0948    0.745     H
H        0.676   0.1183   0.8257     H
O       0.6767   0.4688   0.3446     O
C       0.6822   0.7725   0.4545     C
C       0.6865   0.5882   0.2967     C
C       0.6904   0.2215   0.9944     C
H       0.6907   0.9771   0.2426     H
C       0.6926   0.1161   0.2174     C
C       0.6944   0.6317   0.1272     C
C       0.6947   0.2849   0.9521     C
H       0.6984   0.6467   0.3201     H
C       0.7004   0.1955   0.2075     C
H       0.7015   0.9145   0.5343     H
H       0.7032   0.6868   0.1507     H
C       0.7063   0.1022   0.7903     C
H       0.7065   0.0143   0.8942     H
O       0.7135   0.9019   0.6679     O
H       0.7149    0.452    0.936     H
N        0.718   0.0241   0.7972     N
C       0.7227   0.5039   0.1234     C
N       0.7237   0.3708   0.9947     N
O       0.7237   0.6558    0.556     O
O        0.732   0.2446    0.055     O
H       0.7345   0.2818   0.9209     H
C       0.7352   0.5848    0.158     C
C       0.7399   0.2919    0.357     C
Tb     0.74098  0.42143  0.25671    Tb
C       0.7469   0.0005   0.2312     C
H       0.7509   0.9645   0.1902     H
Tb     0.75227  0.79236  0.62141    Tb
C       0.7538   0.0302   0.8693     C
C       0.7587   0.0848   0.2186     C
C       0.7605    0.434   0.9574     C
O       0.7621   0.1731   0.6046     O
O       0.7622   0.4569   0.1514     O
O       0.7648   0.0654   0.6491     O
N       0.7652   0.5782   0.2811     N
O       0.7652   0.7634    0.732     O
O       0.7691   0.2537   0.3947     O
O       0.7757   0.5683   0.4975     O
C       0.7782   0.8023   0.4686     C
C       0.7801   0.2482      0.2     C
H       0.7829   0.9883   0.4191     H
H       0.7832   0.0745      0.4     H
H       0.7833   0.4091   0.9203     H
C        0.785   0.6316   0.5426     C
O       0.7857   0.3602   0.3431     O
O       0.7895   0.3273    0.193     O
H       0.7898   0.0889   0.8902     H
H       0.7914   0.0041   0.2694     H
C        0.792    0.171    0.798     C
O       0.7942   0.2436   0.8101     O
H       0.7946   0.6229   0.6674     H
C       0.7955   0.6207   0.2259     C
C       0.8008   0.1313   0.6304     C
C       0.8027   0.7158   0.7487     C
H       0.8036   0.6807   0.2396     H
C       0.8052   0.9764   0.8772     C
H       0.8098   0.6069   0.3826     H
O       0.8118   0.6992   0.8073     O
O       0.8148   0.8015   0.4188     O
C        0.816   0.0478    0.426     C
O       0.8164   0.8231   0.5303     O
O       0.8184   0.9583   0.9336     O
H       0.8281   0.0739   0.4747     H
C       0.8316   0.5102   0.0022     C
C       0.8331   0.6169   0.3412     C
Tb     0.83361  0.37894  0.09934    Tb
C       0.8348   0.1373   0.2089     C
Tb     0.83587  0.01326  0.72962    Tb
O       0.8372   0.9551   0.8267     O
C        0.839   0.6752   0.6944     C
Na      0.8405   0.3724   0.7939    Na
C       0.8453   0.2178   0.1976     C
O       0.8457   0.5793   0.9858     O
H       0.8516   0.6164    0.221     H
O       0.8555   0.1501   0.7894     O
H       0.8559    0.678   0.3446     H
H       0.8648   0.1863   0.0681     H
N       0.8689   0.7318   0.6492     N
O       0.8734   0.9122   0.6672     O
H       0.8736   0.0123   0.5785     H
C       0.8745   0.6822    0.584     C
O       0.8755   0.4974   0.0526     O
O         0.88   0.8756   0.2138     O
H       0.8819   0.1184   0.2098     H
O       0.8837   0.5066   0.3053     O
H       0.8871   0.6611   0.7164     H
O       0.8873   0.3279   0.0056     O
O       0.8949   0.5112   0.7913     O
O       0.8953   0.4933    0.468     O
C       0.8963   0.1647   0.6435     C
C       0.8995   0.0582   0.4017     C
H       0.9052   0.1617   0.3671     H
H       0.9055   0.6441   0.5937     H
C       0.9057   0.5816   0.3378     C
H       0.9065   0.7201   0.5573     H
C       0.9069   0.2636   0.0019     C
H        0.915   0.1797   0.6015     H
H       0.9175   0.2162   0.6798     H
C       0.9175   0.2322   0.0674     C
H       0.9178   0.9564   0.4288     H
O       0.9183   0.2238   0.9496     O
C        0.933   0.2722   0.1917     C
C       0.9335   0.0461   0.6005     C
N       0.9341   0.1048   0.6641     N
C       0.9342   0.1235   0.3725     C
N        0.935   0.3009   0.1258     N
H       0.9361   0.6606   0.8446     H
H       0.9367   0.8512   0.3272     H
C       0.9418   0.0022   0.4087     C
O       0.9437   0.4082   0.9059     O
C        0.947   0.9215    0.644     C
H       0.9484   0.8177   0.7314     H
C       0.9533   0.7936    0.685     C
H       0.9542   0.3217   0.2299     H
C       0.9551   0.8942   0.2391     C
Na      0.9554   0.2804  0.85285    Na
Na      0.9581   0.4271   0.5472    Na
H       0.9588   0.0794   0.5682     H
H       0.9652   0.2104   0.0698     H
H       0.9661   0.6326   0.9126     H
O       0.9664   0.4654   0.1707     O
C       0.9677   0.5547   0.8248     C
H       0.9697   0.7939   0.2758     H
H       0.9724   0.2406   0.1963     H
C       0.9771   0.8524   0.2959     C
O       0.9774   0.3655   0.7661     O
C        0.978   0.6389   0.8668     C
O       0.9781   0.6265   0.3685     O
C       0.9814   0.9886   0.6132     C
O       0.9831   0.0585   0.7815     O
C       0.9889   0.8644   0.6497     C
H       0.9945   0.7641   0.6902     H
