data_I
_chemical_name_common  '/home/zhangsd/repos/MofS-CGCNN/ML/data/SSD/clean_cifs/JIZWEW_clean'
_cell_length_a  6.61030
_cell_length_b 17.89840
_cell_length_c 11.09890
_cell_angle_alpha 90.00000
_cell_angle_beta  91.24610
_cell_angle_gamma 90.00000
_space_group_name_H-M_alt      'P 1'


loop_
_space_group_symop_operation_xyz
  'x, y, z' 

loop_
_atom_site_label
_atom_site_fract_x
_atom_site_fract_y
_atom_site_fract_z
_atom_site_type_symbol
C      0.00522  0.06649  0.48306     C
C      0.00909  0.63377  0.59867     C
O       0.0126    0.721   0.8449     O
C      0.01624  0.32925  0.41261     C
C      0.02489   0.4037   0.4757     C
O       0.1152   0.7985    0.656     O
C      0.15402   0.0103  0.43243     C
O        0.166   0.3083   0.3557     O
C      0.16799  0.45824  0.41621     C
O        0.176   0.1492   0.3793     O
C      0.17832   0.9413    0.511     C
O       0.1818   0.6505   0.6368     O
C      0.19568  0.52875  0.49219     C
Al      0.2297  0.22389   0.2543    Al
Al      0.2457  0.72322   0.7543    Al
C      0.29662  0.51674  0.98024     C
C      0.31114  0.45637  0.07572     C
O       0.3185   0.6397   0.8425     O
C      0.32103  0.94358  0.95644     C
O       0.3286   0.2965   0.1415     O
C      0.33283  0.00499  0.05082     C
O       0.3637  0.79573   0.8605     O
O       0.3645   0.1452   0.1683     O
C      0.47988   0.4013  0.04959     C
C      0.48399  0.34025  0.14249     C
C      0.48809  0.62283  0.88474     C
C      0.49455  0.55897  0.97298     C
O       0.4971   0.7324   0.6793     O
O       0.5029   0.2324   0.3207     O
C      0.50545  0.05897  0.02702     C
C      0.51191  0.12283  0.11526     C
C      0.51601  0.84025  0.85751     C
C      0.52012   0.9013  0.95041     C
O       0.6355   0.6452   0.8317     O
O       0.6363  0.29573   0.1395     O
C      0.66717  0.50499  0.94918     C
O       0.6714   0.7965   0.8585     O
C      0.67897  0.44358  0.04356     C
O       0.6815   0.1397   0.1575     O
C      0.68886  0.95637  0.92428     C
C      0.70338  0.01674  0.01976     C
Al      0.7543  0.22322   0.2457    Al
Al      0.7703  0.72389   0.7457    Al
C      0.80432  0.02875  0.50781     C
O       0.8182   0.1505   0.3632     O
C      0.82168   0.4413    0.489     C
O        0.824   0.6492   0.6207     O
C      0.83201  0.95824  0.58379     C
O        0.834   0.8083   0.6443     O
C      0.84598   0.5103  0.56757     C
O       0.8848   0.2985    0.344     O
C      0.97511   0.9037   0.5243     C
C      0.98376  0.82925  0.58739     C
O       0.9874    0.221   0.1551     O
C      0.99091  0.13377  0.40133     C
C      0.99478  0.56649  0.51694     C
