data_I
_chemical_name_common  '/home/zhangsd/repos/MofS-CGCNN/ML/data/SSD/clean_cifs/JIZWOG_clean'
_cell_length_a 13.22460
_cell_length_b 17.89230
_cell_length_c 11.08360
_cell_angle_alpha 90.00000
_cell_angle_beta  89.80100
_cell_angle_gamma 90.00000
_space_group_name_H-M_alt      'P 1'


loop_
_space_group_symop_operation_xyz
  'x, y, z' 

loop_
_atom_site_label
_atom_site_fract_x
_atom_site_fract_y
_atom_site_fract_z
_atom_site_type_symbol
C      0.00553  0.57167  0.50606     C
O       0.0067    0.722   0.8334     O
C      0.01041  0.63439  0.59662     C
C      0.01567  0.34285  0.36494     C
C      0.01932  0.41135  0.44369     C
O       0.0559   0.7963   0.6495     O
O       0.0573   0.1835   0.3812     O
C      0.07584  0.01503  0.45887     C
C      0.08312  0.95108  0.54879     C
O        0.096   0.6609   0.6277     O
O          0.1   0.3331   0.3262     O
C      0.10064  0.46684  0.40521     C
C      0.10823  0.53197   0.4935     C
Al      0.1162   0.2372   0.2416    Al
Al       0.131   0.7338   0.7544    Al
C      0.14473  0.51255  0.97751     C
C       0.1519  0.93229  0.02421     C
C      0.15557  0.44896  0.06778     C
O       0.1572   0.6474   0.8616     O
O       0.1639   0.1618   0.1365     O
O        0.164   0.8108   0.8666     O
C      0.16401  0.99873    0.109     C
O        0.176   0.2772    0.097     O
C      0.23408  0.39138  0.02789     C
C      0.24167  0.05369  0.06078     C
C      0.24177  0.32891  0.11832     C
O       0.2418   0.2547   0.3115     O
C      0.24297  0.61899  0.88348     C
C      0.24575  0.82762  0.92199     C
C      0.24678  0.12458  0.13319     C
C      0.24759   0.5504   0.9615     C
C      0.25383  0.89276  0.00731     C
O       0.2559    0.739   0.6812     O
C      0.32464  0.49364  0.91755     C
O       0.3273   0.7946   0.8876     O
O       0.3295   0.6486   0.8597     O
O       0.3304   0.1619   0.1432     O
O       0.3307   0.3052   0.1409     O
C      0.33296  0.94865  0.96308     C
C      0.33633  0.42983  0.00755     C
C       0.3442   0.0149  0.04815     C
Al      0.3722    0.234   0.2649    Al
Al      0.3746   0.7273   0.7609    Al
C      0.38327   0.0322  0.50445     C
C      0.39042  0.96738  0.59336     C
O       0.3935    0.162   0.3809     O
O       0.4061   0.7979    0.647     O
C      0.42419  0.45475  0.44514     C
C      0.43095  0.51841  0.53566     C
O       0.4316   0.3175   0.3605     O
O       0.4394    0.663   0.6416     O
C      0.47452  0.91326  0.55847     C
C       0.4781  0.84497  0.63771     C
C      0.48066  0.13614  0.40475     C
C      0.48496  0.07367  0.49581     C
O       0.4931   0.2325   0.1894     O
O       0.5069   0.7325   0.8106     O
C      0.51504  0.57367  0.50419     C
C      0.51934  0.63614  0.59525     C
C       0.5219  0.34497  0.36229     C
C      0.52548  0.41326  0.44153     C
O       0.5606    0.163   0.3584     O
O       0.5684   0.8175   0.6395     O
C      0.56905  0.01841  0.46434     C
C      0.57581  0.95475  0.55486     C
O       0.5939   0.2979    0.353     O
O       0.6065    0.662   0.6191     O
C      0.60958  0.46738  0.40664     C
C      0.61673   0.5322  0.49555     C
Al      0.6254   0.2273   0.2391    Al
Al      0.6278    0.734   0.7351    Al
C       0.6558   0.5149  0.95185     C
C      0.66367  0.92983  0.99245     C
C      0.66704  0.44865  0.03692     C
O       0.6693   0.8052   0.8591     O
O       0.6696   0.6619   0.8568     O
O       0.6705   0.1486   0.1403     O
O       0.6727   0.2946   0.1124     O
C      0.67536  0.99364  0.08245     C
O       0.7441    0.239   0.3188     O
C      0.74617  0.39276  0.99269     C
C      0.75241   0.0504   0.0385     C
C      0.75322  0.62458  0.86681     C
C      0.75425  0.32762  0.07801     C
C      0.75703  0.11899  0.11652     C
O       0.7582   0.7547   0.6885     O
C      0.75823  0.82891  0.88168     C
C      0.75833  0.55369  0.93922     C
C      0.76592  0.89138  0.97211     C
O        0.824   0.7772    0.903     O
C      0.83599  0.49873    0.891     C
O        0.836   0.3108   0.1334     O
O       0.8361   0.6618   0.8635     O
O       0.8428   0.1474   0.1384     O
C      0.84443  0.94896  0.93222     C
C       0.8481  0.43229  0.97579     C
C      0.85527  0.01255  0.02249     C
Al       0.869   0.2338   0.2456    Al
Al      0.8838   0.7372   0.7584    Al
C      0.89177  0.03197   0.5065     C
C      0.89936  0.96684  0.59479     C
O          0.9   0.8331   0.6738     O
O        0.904   0.1609   0.3723     O
C      0.91688  0.45108  0.45121     C
C      0.92416  0.51503  0.54113     C
O       0.9427   0.6835   0.6188     O
O       0.9441   0.2963   0.3505     O
C      0.98068  0.91135  0.55631     C
C      0.98433  0.84285  0.63506     C
C      0.98959  0.13439  0.40338     C
O       0.9933    0.222   0.1666     O
C      0.99447  0.07167  0.49394     C
