data_I
_chemical_name_common  '/home/zhangsd/repos/MofS-CGCNN/ML/data/SSD/clean_cifs/KARNID_clean'
_cell_length_a 30.64110
_cell_length_b 30.64110
_cell_length_c 22.96140
_cell_angle_alpha 90.00000
_cell_angle_beta  90.00000
_cell_angle_gamma 90.00000
_space_group_name_H-M_alt      'P 1'


loop_
_space_group_symop_operation_xyz
  'x, y, z' 

loop_
_atom_site_label
_atom_site_fract_x
_atom_site_fract_y
_atom_site_fract_z
_atom_site_type_symbol
H          0.0   0.1464   0.3179     H
H          0.0   0.1464   0.6821     H
C          0.0   0.1655   0.3504     C
C          0.0   0.1655   0.6496     C
C          0.0   0.2218   0.4466     C
C          0.0   0.2218   0.5534     C
C          0.0   0.2524      0.5     C
Cu         0.0  0.25826      0.0    Cu
Cu         0.0  0.34514      0.0    Cu
Cu         0.0  0.65486      0.0    Cu
Cu         0.0  0.74174      0.0    Cu
C          0.0   0.7476      0.5     C
C          0.0   0.7782   0.4466     C
C          0.0   0.7782   0.5534     C
C          0.0   0.8345   0.3504     C
C          0.0   0.8345   0.6496     C
H          0.0   0.8536   0.3179     H
H          0.0   0.8536   0.6821     H
O       0.0376   0.2774      0.5     O
O       0.0376   0.7226      0.5     O
C      0.03926  0.20798   0.4226     C
C      0.03926  0.20798   0.5774     C
C      0.03926  0.79202   0.4226     C
C      0.03926  0.79202   0.5774     C
C      0.03933  0.17961   0.3743     C
C      0.03933  0.17961   0.6257     C
C      0.03933  0.82039   0.3743     C
C      0.03933  0.82039   0.6257     C
O      0.04398  0.33794  0.06069     O
O      0.04398  0.33794  0.93931     O
O      0.04398  0.66206  0.06069     O
O      0.04398  0.66206  0.93931     O
O      0.04402  0.26526  0.06077     O
O      0.04402  0.26526  0.93923     O
O      0.04402  0.73474  0.06077     O
O      0.04402  0.73474  0.93923     O
C      0.05355  0.30143  0.08103     C
C      0.05355  0.30143  0.91897     C
C      0.05355  0.69857  0.08103     C
C      0.05355  0.69857  0.91897     C
H       0.0661   0.2177   0.4388     H
H       0.0661   0.2177   0.5612     H
H       0.0661   0.7823   0.4388     H
H       0.0661   0.7823   0.5612     H
H       0.0769   0.3668     0.15     H
H       0.0769   0.3668     0.85     H
H       0.0769   0.6332     0.15     H
H       0.0769   0.6332     0.85     H
O       0.0789  0.14287   0.3022     O
O       0.0789  0.14287   0.6978     O
O       0.0789  0.85713   0.3022     O
O       0.0789  0.85713   0.6978     O
C      0.08161  0.16673   0.3461     C
C      0.08161  0.16673   0.6539     C
C      0.08161  0.83327   0.3461     C
C      0.08161  0.83327   0.6539     C
C      0.08193  0.30107    0.136     C
C      0.08193  0.30107    0.864     C
C      0.08193  0.69893    0.136     C
C      0.08193  0.69893    0.864     C
C      0.08858   0.3404    0.165     C
C      0.08858   0.3404    0.835     C
C      0.08858   0.6596    0.165     C
C      0.08858   0.6596    0.835     C
O      0.09007  0.40993     0.25     O
O      0.09007  0.40993     0.75     O
O      0.09007  0.59007     0.25     O
O      0.09007  0.59007     0.75     O
H       0.0902   0.2352   0.1394     H
H       0.0902   0.2352   0.8606     H
H       0.0902   0.7648   0.1394     H
H       0.0902   0.7648   0.8606     H
C      0.09658  0.26187   0.1587     C
C      0.09658  0.26187   0.8413     C
C      0.09658  0.73813   0.1587     C
C      0.09658  0.73813   0.8413     C
C      0.11284  0.34016   0.2167     C
C      0.11284  0.34016   0.7833     C
C      0.11284  0.65984   0.2167     C
C      0.11284  0.65984   0.7833     C
O      0.11585   0.1803  0.36924     O
O      0.11585   0.1803  0.63076     O
O      0.11585   0.8197  0.36924     O
O      0.11585   0.8197  0.63076     O
C       0.1181   0.3819     0.25     C
C       0.1181   0.3819     0.75     C
C       0.1181   0.6181     0.25     C
C       0.1181   0.6181     0.75     C
C      0.12057  0.26177   0.2098     C
C      0.12057  0.26177   0.7902     C
C      0.12057  0.73823   0.2098     C
C      0.12057  0.73823   0.7902     C
O      0.12136  0.18534  0.21352     O
O      0.12136  0.18534  0.78648     O
O      0.12136  0.81466  0.21352     O
O      0.12136  0.81466  0.78648     O
Cu     0.12843  0.12843  0.25204    Cu
Cu     0.12843  0.12843  0.74796    Cu
Cu     0.12843  0.87157  0.25204    Cu
Cu     0.12843  0.87157  0.74796    Cu
C      0.12913  0.30148   0.2385     C
C      0.12913  0.30148   0.7615     C
C      0.12913  0.69852   0.2385     C
C      0.12913  0.69852   0.7615     C
H       0.1332   0.4231     0.35     H
H       0.1332   0.4231     0.65     H
H       0.1332   0.5769     0.35     H
H       0.1332   0.5769     0.65     H
C       0.1342  0.22014   0.2384     C
C       0.1342  0.22014   0.7616     C
C       0.1342  0.77986   0.2384     C
C       0.1342  0.77986   0.7616     C
O      0.14287   0.0789   0.3022     O
O      0.14287   0.0789   0.6978     O
O      0.14287   0.9211   0.3022     O
O      0.14287   0.9211   0.6978     O
H       0.1462   0.3016   0.2731     H
H       0.1462   0.3016   0.7269     H
H       0.1462   0.6984   0.2731     H
H       0.1462   0.6984   0.7269     H
H       0.1464      0.0   0.3179     H
H       0.1464      0.0   0.6821     H
Cu     0.15486      0.5      0.5    Cu
O      0.15789  0.22249  0.28243     O
O      0.15789  0.22249  0.71757     O
O      0.15789  0.77751  0.28243     O
O      0.15789  0.77751  0.71757     O
C       0.1596  0.41142    0.335     C
C       0.1596  0.41142    0.665     C
C       0.1596  0.58858    0.335     C
C       0.1596  0.58858    0.665     C
C      0.15984  0.38716   0.2833     C
C      0.15984  0.38716   0.7167     C
C      0.15984  0.61284   0.2833     C
C      0.15984  0.61284   0.7167     C
O      0.16206  0.45602  0.43931     O
O      0.16206  0.45602  0.56069     O
O      0.16206  0.54398  0.43931     O
O      0.16206  0.54398  0.56069     O
C       0.1655      0.0   0.3504     C
C       0.1655      0.0   0.6496     C
C      0.16673  0.08161   0.3461     C
C      0.16673  0.08161   0.6539     C
C      0.16673  0.91839   0.3461     C
C      0.16673  0.91839   0.6539     C
Cu     0.17274  0.17274  0.33196    Cu
Cu     0.17274  0.17274  0.66804    Cu
Cu     0.17274  0.82726  0.33196    Cu
Cu     0.17274  0.82726  0.66804    Cu
C      0.17961  0.03933   0.3743     C
C      0.17961  0.03933   0.6257     C
C      0.17961  0.96067   0.3743     C
C      0.17961  0.96067   0.6257     C
O       0.1803  0.11585  0.36924     O
O       0.1803  0.11585  0.63076     O
O       0.1803  0.88415  0.36924     O
O       0.1803  0.88415  0.63076     O
O      0.18534  0.12136  0.21352     O
O      0.18534  0.12136  0.78648     O
O      0.18534  0.87864  0.21352     O
O      0.18534  0.87864  0.78648     O
H       0.1984   0.3538   0.2269     H
H       0.1984   0.3538   0.7731     H
H       0.1984   0.6462   0.2269     H
H       0.1984   0.6462   0.7731     H
C      0.19852  0.37087   0.2615     C
C      0.19852  0.37087   0.7385     C
C      0.19852  0.62913   0.2615     C
C      0.19852  0.62913   0.7385     C
C      0.19857  0.44645  0.41897     C
C      0.19857  0.44645  0.58103     C
C      0.19857  0.55355  0.41897     C
C      0.19857  0.55355  0.58103     C
C      0.19893  0.41807    0.364     C
C      0.19893  0.41807    0.636     C
C      0.19893  0.58193    0.364     C
C      0.19893  0.58193    0.636     C
C      0.20798  0.03926   0.4226     C
C      0.20798  0.03926   0.5774     C
C      0.20798  0.96074   0.4226     C
C      0.20798  0.96074   0.5774     C
H       0.2177   0.0661   0.4388     H
H       0.2177   0.0661   0.5612     H
H       0.2177   0.9339   0.4388     H
H       0.2177   0.9339   0.5612     H
C      0.22014   0.1342   0.2384     C
C      0.22014   0.1342   0.7616     C
C      0.22014   0.8658   0.2384     C
C      0.22014   0.8658   0.7616     C
C       0.2218      0.0   0.4466     C
C       0.2218      0.0   0.5534     C
O      0.22249  0.15789  0.28243     O
O      0.22249  0.15789  0.71757     O
O      0.22249  0.84211  0.28243     O
O      0.22249  0.84211  0.71757     O
O       0.2226   0.4624      0.0     O
O       0.2226   0.5376      0.0     O
O      0.23474  0.45598  0.43923     O
O      0.23474  0.45598  0.56077     O
O      0.23474  0.54402  0.43923     O
O      0.23474  0.54402  0.56077     O
H       0.2352   0.0902   0.1394     H
H       0.2352   0.0902   0.8606     H
H       0.2352   0.9098   0.1394     H
H       0.2352   0.9098   0.8606     H
C      0.23813  0.40342   0.3413     C
C      0.23813  0.40342   0.6587     C
C      0.23813  0.59658   0.3413     C
C      0.23813  0.59658   0.6587     C
C      0.23823  0.37943   0.2902     C
C      0.23823  0.37943   0.7098     C
C      0.23823  0.62057   0.2902     C
C      0.23823  0.62057   0.7098     C
Cu     0.24174      0.5      0.5    Cu
C       0.2476      0.5      0.0     C
C       0.2524      0.0      0.5     C
Cu     0.25826      0.0      0.0    Cu
C      0.26177  0.12057   0.2098     C
C      0.26177  0.12057   0.7902     C
C      0.26177  0.87943   0.2098     C
C      0.26177  0.87943   0.7902     C
C      0.26187  0.09658   0.1587     C
C      0.26187  0.09658   0.8413     C
C      0.26187  0.90342   0.1587     C
C      0.26187  0.90342   0.8413     C
H       0.2648   0.4098   0.3606     H
H       0.2648   0.4098   0.6394     H
H       0.2648   0.5902   0.3606     H
H       0.2648   0.5902   0.6394     H
O      0.26526  0.04402  0.06077     O
O      0.26526  0.04402  0.93923     O
O      0.26526  0.95598  0.06077     O
O      0.26526  0.95598  0.93923     O
O       0.2774   0.0376      0.5     O
O       0.2774   0.9624      0.5     O
O      0.27751  0.34211  0.21757     O
O      0.27751  0.34211  0.78243     O
O      0.27751  0.65789  0.21757     O
O      0.27751  0.65789  0.78243     O
C       0.2782      0.5   0.0534     C
C       0.2782      0.5   0.9466     C
C      0.27986   0.3658   0.2616     C
C      0.27986   0.3658   0.7384     C
C      0.27986   0.6342   0.2616     C
C      0.27986   0.6342   0.7384     C
H       0.2823   0.4339   0.0612     H
H       0.2823   0.4339   0.9388     H
H       0.2823   0.5661   0.0612     H
H       0.2823   0.5661   0.9388     H
C      0.29202  0.46074   0.0774     C
C      0.29202  0.46074   0.9226     C
C      0.29202  0.53926   0.0774     C
C      0.29202  0.53926   0.9226     C
C      0.30107  0.08193    0.136     C
C      0.30107  0.08193    0.864     C
C      0.30107  0.91807    0.136     C
C      0.30107  0.91807    0.864     C
C      0.30143  0.05355  0.08103     C
C      0.30143  0.05355  0.91897     C
C      0.30143  0.94645  0.08103     C
C      0.30143  0.94645  0.91897     C
C      0.30148  0.12913   0.2385     C
C      0.30148  0.12913   0.7615     C
C      0.30148  0.87087   0.2385     C
C      0.30148  0.87087   0.7615     C
H       0.3016   0.1462   0.2731     H
H       0.3016   0.1462   0.7269     H
H       0.3016   0.8538   0.2731     H
H       0.3016   0.8538   0.7269     H
O      0.31466  0.37864  0.28648     O
O      0.31466  0.37864  0.71352     O
O      0.31466  0.62136  0.28648     O
O      0.31466  0.62136  0.71352     O
O       0.3197  0.38415  0.13076     O
O       0.3197  0.38415  0.86924     O
O       0.3197  0.61585  0.13076     O
O       0.3197  0.61585  0.86924     O
C      0.32039  0.46067   0.1257     C
C      0.32039  0.46067   0.8743     C
C      0.32039  0.53933   0.1257     C
C      0.32039  0.53933   0.8743     C
Cu     0.32726  0.32726  0.16804    Cu
Cu     0.32726  0.32726  0.83196    Cu
Cu     0.32726  0.67274  0.16804    Cu
Cu     0.32726  0.67274  0.83196    Cu
C      0.33327  0.41839   0.1539     C
C      0.33327  0.41839   0.8461     C
C      0.33327  0.58161   0.1539     C
C      0.33327  0.58161   0.8461     C
C       0.3345      0.5   0.1496     C
C       0.3345      0.5   0.8504     C
O      0.33794  0.04398  0.06069     O
O      0.33794  0.04398  0.93931     O
O      0.33794  0.95602  0.06069     O
O      0.33794  0.95602  0.93931     O
C      0.34016  0.11284   0.2167     C
C      0.34016  0.11284   0.7833     C
C      0.34016  0.88716   0.2167     C
C      0.34016  0.88716   0.7833     C
C       0.3404  0.08858    0.165     C
C       0.3404  0.08858    0.835     C
C       0.3404  0.91142    0.165     C
C       0.3404  0.91142    0.835     C
O      0.34211  0.27751  0.21757     O
O      0.34211  0.27751  0.78243     O
O      0.34211  0.72249  0.21757     O
O      0.34211  0.72249  0.78243     O
Cu     0.34514      0.0      0.0    Cu
H       0.3536      0.5   0.1821     H
H       0.3536      0.5   0.8179     H
H       0.3538   0.1984   0.2269     H
H       0.3538   0.1984   0.7731     H
H       0.3538   0.8016   0.2269     H
H       0.3538   0.8016   0.7731     H
O      0.35713   0.4211   0.1978     O
O      0.35713   0.4211   0.8022     O
O      0.35713   0.5789   0.1978     O
O      0.35713   0.5789   0.8022     O
C       0.3658  0.27986   0.2616     C
C       0.3658  0.27986   0.7384     C
C       0.3658  0.72014   0.2616     C
C       0.3658  0.72014   0.7384     C
H       0.3668   0.0769     0.15     H
H       0.3668   0.0769     0.85     H
H       0.3668   0.9231     0.15     H
H       0.3668   0.9231     0.85     H
C      0.37087  0.19852   0.2615     C
C      0.37087  0.19852   0.7385     C
C      0.37087  0.80148   0.2615     C
C      0.37087  0.80148   0.7385     C
Cu     0.37157  0.37157  0.24796    Cu
Cu     0.37157  0.37157  0.75204    Cu
Cu     0.37157  0.62843  0.24796    Cu
Cu     0.37157  0.62843  0.75204    Cu
O      0.37864  0.31466  0.28648     O
O      0.37864  0.31466  0.71352     O
O      0.37864  0.68534  0.28648     O
O      0.37864  0.68534  0.71352     O
C      0.37943  0.23823   0.2902     C
C      0.37943  0.23823   0.7098     C
C      0.37943  0.76177   0.2902     C
C      0.37943  0.76177   0.7098     C
C       0.3819   0.1181     0.25     C
C       0.3819   0.1181     0.75     C
C       0.3819   0.8819     0.25     C
C       0.3819   0.8819     0.75     C
O      0.38415   0.3197  0.13076     O
O      0.38415   0.3197  0.86924     O
O      0.38415   0.6803  0.13076     O
O      0.38415   0.6803  0.86924     O
C      0.38716  0.15984   0.2833     C
C      0.38716  0.15984   0.7167     C
C      0.38716  0.84016   0.2833     C
C      0.38716  0.84016   0.7167     C
C      0.40342  0.23813   0.3413     C
C      0.40342  0.23813   0.6587     C
C      0.40342  0.76187   0.3413     C
C      0.40342  0.76187   0.6587     C
H       0.4098   0.2648   0.3606     H
H       0.4098   0.2648   0.6394     H
H       0.4098   0.7352   0.3606     H
H       0.4098   0.7352   0.6394     H
O      0.40993  0.09007     0.25     O
O      0.40993  0.09007     0.75     O
O      0.40993  0.90993     0.25     O
O      0.40993  0.90993     0.75     O
C      0.41142   0.1596    0.335     C
C      0.41142   0.1596    0.665     C
C      0.41142   0.8404    0.335     C
C      0.41142   0.8404    0.665     C
C      0.41807  0.19893    0.364     C
C      0.41807  0.19893    0.636     C
C      0.41807  0.80107    0.364     C
C      0.41807  0.80107    0.636     C
C      0.41839  0.33327   0.1539     C
C      0.41839  0.33327   0.8461     C
C      0.41839  0.66673   0.1539     C
C      0.41839  0.66673   0.8461     C
O       0.4211  0.35713   0.1978     O
O       0.4211  0.35713   0.8022     O
O       0.4211  0.64287   0.1978     O
O       0.4211  0.64287   0.8022     O
H       0.4231   0.1332     0.35     H
H       0.4231   0.1332     0.65     H
H       0.4231   0.8668     0.35     H
H       0.4231   0.8668     0.65     H
H       0.4339   0.2823   0.0612     H
H       0.4339   0.2823   0.9388     H
H       0.4339   0.7177   0.0612     H
H       0.4339   0.7177   0.9388     H
C      0.44645  0.19857  0.41897     C
C      0.44645  0.19857  0.58103     C
C      0.44645  0.80143  0.41897     C
C      0.44645  0.80143  0.58103     C
O      0.45598  0.23474  0.43923     O
O      0.45598  0.23474  0.56077     O
O      0.45598  0.76526  0.43923     O
O      0.45598  0.76526  0.56077     O
O      0.45602  0.16206  0.43931     O
O      0.45602  0.16206  0.56069     O
O      0.45602  0.83794  0.43931     O
O      0.45602  0.83794  0.56069     O
C      0.46067  0.32039   0.1257     C
C      0.46067  0.32039   0.8743     C
C      0.46067  0.67961   0.1257     C
C      0.46067  0.67961   0.8743     C
C      0.46074  0.29202   0.0774     C
C      0.46074  0.29202   0.9226     C
C      0.46074  0.70798   0.0774     C
C      0.46074  0.70798   0.9226     C
O       0.4624   0.2226      0.0     O
O       0.4624   0.7774      0.0     O
Cu         0.5  0.15486      0.5    Cu
Cu         0.5  0.24174      0.5    Cu
C          0.5   0.2476      0.0     C
C          0.5   0.2782   0.0534     C
C          0.5   0.2782   0.9466     C
C          0.5   0.3345   0.1496     C
C          0.5   0.3345   0.8504     C
H          0.5   0.3536   0.1821     H
H          0.5   0.3536   0.8179     H
H          0.5   0.6464   0.1821     H
H          0.5   0.6464   0.8179     H
C          0.5   0.6655   0.1496     C
C          0.5   0.6655   0.8504     C
C          0.5   0.7218   0.0534     C
C          0.5   0.7218   0.9466     C
C          0.5   0.7524      0.0     C
Cu         0.5  0.75826      0.5    Cu
Cu         0.5  0.84514      0.5    Cu
O       0.5376   0.2226      0.0     O
O       0.5376   0.7774      0.0     O
C      0.53926  0.29202   0.0774     C
C      0.53926  0.29202   0.9226     C
C      0.53926  0.70798   0.0774     C
C      0.53926  0.70798   0.9226     C
C      0.53933  0.32039   0.1257     C
C      0.53933  0.32039   0.8743     C
C      0.53933  0.67961   0.1257     C
C      0.53933  0.67961   0.8743     C
O      0.54398  0.16206  0.43931     O
O      0.54398  0.16206  0.56069     O
O      0.54398  0.83794  0.43931     O
O      0.54398  0.83794  0.56069     O
O      0.54402  0.23474  0.43923     O
O      0.54402  0.23474  0.56077     O
O      0.54402  0.76526  0.43923     O
O      0.54402  0.76526  0.56077     O
C      0.55355  0.19857  0.41897     C
C      0.55355  0.19857  0.58103     C
C      0.55355  0.80143  0.41897     C
C      0.55355  0.80143  0.58103     C
H       0.5661   0.2823   0.0612     H
H       0.5661   0.2823   0.9388     H
H       0.5661   0.7177   0.0612     H
H       0.5661   0.7177   0.9388     H
H       0.5769   0.1332     0.35     H
H       0.5769   0.1332     0.65     H
H       0.5769   0.8668     0.35     H
H       0.5769   0.8668     0.65     H
O       0.5789  0.35713   0.1978     O
O       0.5789  0.35713   0.8022     O
O       0.5789  0.64287   0.1978     O
O       0.5789  0.64287   0.8022     O
C      0.58161  0.33327   0.1539     C
C      0.58161  0.33327   0.8461     C
C      0.58161  0.66673   0.1539     C
C      0.58161  0.66673   0.8461     C
C      0.58193  0.19893    0.364     C
C      0.58193  0.19893    0.636     C
C      0.58193  0.80107    0.364     C
C      0.58193  0.80107    0.636     C
C      0.58858   0.1596    0.335     C
C      0.58858   0.1596    0.665     C
C      0.58858   0.8404    0.335     C
C      0.58858   0.8404    0.665     C
O      0.59007  0.09007     0.25     O
O      0.59007  0.09007     0.75     O
O      0.59007  0.90993     0.25     O
O      0.59007  0.90993     0.75     O
H       0.5902   0.2648   0.3606     H
H       0.5902   0.2648   0.6394     H
H       0.5902   0.7352   0.3606     H
H       0.5902   0.7352   0.6394     H
C      0.59658  0.23813   0.3413     C
C      0.59658  0.23813   0.6587     C
C      0.59658  0.76187   0.3413     C
C      0.59658  0.76187   0.6587     C
C      0.61284  0.15984   0.2833     C
C      0.61284  0.15984   0.7167     C
C      0.61284  0.84016   0.2833     C
C      0.61284  0.84016   0.7167     C
O      0.61585   0.3197  0.13076     O
O      0.61585   0.3197  0.86924     O
O      0.61585   0.6803  0.13076     O
O      0.61585   0.6803  0.86924     O
C       0.6181   0.1181     0.25     C
C       0.6181   0.1181     0.75     C
C       0.6181   0.8819     0.25     C
C       0.6181   0.8819     0.75     C
C      0.62057  0.23823   0.2902     C
C      0.62057  0.23823   0.7098     C
C      0.62057  0.76177   0.2902     C
C      0.62057  0.76177   0.7098     C
O      0.62136  0.31466  0.28648     O
O      0.62136  0.31466  0.71352     O
O      0.62136  0.68534  0.28648     O
O      0.62136  0.68534  0.71352     O
Cu     0.62843  0.37157  0.24796    Cu
Cu     0.62843  0.37157  0.75204    Cu
Cu     0.62843  0.62843  0.24796    Cu
Cu     0.62843  0.62843  0.75204    Cu
C      0.62913  0.19852   0.2615     C
C      0.62913  0.19852   0.7385     C
C      0.62913  0.80148   0.2615     C
C      0.62913  0.80148   0.7385     C
H       0.6332   0.0769     0.15     H
H       0.6332   0.0769     0.85     H
H       0.6332   0.9231     0.15     H
H       0.6332   0.9231     0.85     H
C       0.6342  0.27986   0.2616     C
C       0.6342  0.27986   0.7384     C
C       0.6342  0.72014   0.2616     C
C       0.6342  0.72014   0.7384     C
O      0.64287   0.4211   0.1978     O
O      0.64287   0.4211   0.8022     O
O      0.64287   0.5789   0.1978     O
O      0.64287   0.5789   0.8022     O
H       0.6462   0.1984   0.2269     H
H       0.6462   0.1984   0.7731     H
H       0.6462   0.8016   0.2269     H
H       0.6462   0.8016   0.7731     H
H       0.6464      0.5   0.1821     H
H       0.6464      0.5   0.8179     H
Cu     0.65486      0.0      0.0    Cu
O      0.65789  0.27751  0.21757     O
O      0.65789  0.27751  0.78243     O
O      0.65789  0.72249  0.21757     O
O      0.65789  0.72249  0.78243     O
C       0.6596  0.08858    0.165     C
C       0.6596  0.08858    0.835     C
C       0.6596  0.91142    0.165     C
C       0.6596  0.91142    0.835     C
C      0.65984  0.11284   0.2167     C
C      0.65984  0.11284   0.7833     C
C      0.65984  0.88716   0.2167     C
C      0.65984  0.88716   0.7833     C
O      0.66206  0.04398  0.06069     O
O      0.66206  0.04398  0.93931     O
O      0.66206  0.95602  0.06069     O
O      0.66206  0.95602  0.93931     O
C       0.6655      0.5   0.1496     C
C       0.6655      0.5   0.8504     C
C      0.66673  0.41839   0.1539     C
C      0.66673  0.41839   0.8461     C
C      0.66673  0.58161   0.1539     C
C      0.66673  0.58161   0.8461     C
Cu     0.67274  0.32726  0.16804    Cu
Cu     0.67274  0.32726  0.83196    Cu
Cu     0.67274  0.67274  0.16804    Cu
Cu     0.67274  0.67274  0.83196    Cu
C      0.67961  0.46067   0.1257     C
C      0.67961  0.46067   0.8743     C
C      0.67961  0.53933   0.1257     C
C      0.67961  0.53933   0.8743     C
O       0.6803  0.38415  0.13076     O
O       0.6803  0.38415  0.86924     O
O       0.6803  0.61585  0.13076     O
O       0.6803  0.61585  0.86924     O
O      0.68534  0.37864  0.28648     O
O      0.68534  0.37864  0.71352     O
O      0.68534  0.62136  0.28648     O
O      0.68534  0.62136  0.71352     O
H       0.6984   0.1462   0.2731     H
H       0.6984   0.1462   0.7269     H
H       0.6984   0.8538   0.2731     H
H       0.6984   0.8538   0.7269     H
C      0.69852  0.12913   0.2385     C
C      0.69852  0.12913   0.7615     C
C      0.69852  0.87087   0.2385     C
C      0.69852  0.87087   0.7615     C
C      0.69857  0.05355  0.08103     C
C      0.69857  0.05355  0.91897     C
C      0.69857  0.94645  0.08103     C
C      0.69857  0.94645  0.91897     C
C      0.69893  0.08193    0.136     C
C      0.69893  0.08193    0.864     C
C      0.69893  0.91807    0.136     C
C      0.69893  0.91807    0.864     C
C      0.70798  0.46074   0.0774     C
C      0.70798  0.46074   0.9226     C
C      0.70798  0.53926   0.0774     C
C      0.70798  0.53926   0.9226     C
H       0.7177   0.4339   0.0612     H
H       0.7177   0.4339   0.9388     H
H       0.7177   0.5661   0.0612     H
H       0.7177   0.5661   0.9388     H
C      0.72014   0.3658   0.2616     C
C      0.72014   0.3658   0.7384     C
C      0.72014   0.6342   0.2616     C
C      0.72014   0.6342   0.7384     C
C       0.7218      0.5   0.0534     C
C       0.7218      0.5   0.9466     C
O      0.72249  0.34211  0.21757     O
O      0.72249  0.34211  0.78243     O
O      0.72249  0.65789  0.21757     O
O      0.72249  0.65789  0.78243     O
O       0.7226   0.0376      0.5     O
O       0.7226   0.9624      0.5     O
O      0.73474  0.04402  0.06077     O
O      0.73474  0.04402  0.93923     O
O      0.73474  0.95598  0.06077     O
O      0.73474  0.95598  0.93923     O
H       0.7352   0.4098   0.3606     H
H       0.7352   0.4098   0.6394     H
H       0.7352   0.5902   0.3606     H
H       0.7352   0.5902   0.6394     H
C      0.73813  0.09658   0.1587     C
C      0.73813  0.09658   0.8413     C
C      0.73813  0.90342   0.1587     C
C      0.73813  0.90342   0.8413     C
C      0.73823  0.12057   0.2098     C
C      0.73823  0.12057   0.7902     C
C      0.73823  0.87943   0.2098     C
C      0.73823  0.87943   0.7902     C
Cu     0.74174      0.0      0.0    Cu
C       0.7476      0.0      0.5     C
C       0.7524      0.5      0.0     C
Cu     0.75826      0.5      0.5    Cu
C      0.76177  0.37943   0.2902     C
C      0.76177  0.37943   0.7098     C
C      0.76177  0.62057   0.2902     C
C      0.76177  0.62057   0.7098     C
C      0.76187  0.40342   0.3413     C
C      0.76187  0.40342   0.6587     C
C      0.76187  0.59658   0.3413     C
C      0.76187  0.59658   0.6587     C
H       0.7648   0.0902   0.1394     H
H       0.7648   0.0902   0.8606     H
H       0.7648   0.9098   0.1394     H
H       0.7648   0.9098   0.8606     H
O      0.76526  0.45598  0.43923     O
O      0.76526  0.45598  0.56077     O
O      0.76526  0.54402  0.43923     O
O      0.76526  0.54402  0.56077     O
O       0.7774   0.4624      0.0     O
O       0.7774   0.5376      0.0     O
O      0.77751  0.15789  0.28243     O
O      0.77751  0.15789  0.71757     O
O      0.77751  0.84211  0.28243     O
O      0.77751  0.84211  0.71757     O
C       0.7782      0.0   0.4466     C
C       0.7782      0.0   0.5534     C
C      0.77986   0.1342   0.2384     C
C      0.77986   0.1342   0.7616     C
C      0.77986   0.8658   0.2384     C
C      0.77986   0.8658   0.7616     C
H       0.7823   0.0661   0.4388     H
H       0.7823   0.0661   0.5612     H
H       0.7823   0.9339   0.4388     H
H       0.7823   0.9339   0.5612     H
C      0.79202  0.03926   0.4226     C
C      0.79202  0.03926   0.5774     C
C      0.79202  0.96074   0.4226     C
C      0.79202  0.96074   0.5774     C
C      0.80107  0.41807    0.364     C
C      0.80107  0.41807    0.636     C
C      0.80107  0.58193    0.364     C
C      0.80107  0.58193    0.636     C
C      0.80143  0.44645  0.41897     C
C      0.80143  0.44645  0.58103     C
C      0.80143  0.55355  0.41897     C
C      0.80143  0.55355  0.58103     C
C      0.80148  0.37087   0.2615     C
C      0.80148  0.37087   0.7385     C
C      0.80148  0.62913   0.2615     C
C      0.80148  0.62913   0.7385     C
H       0.8016   0.3538   0.2269     H
H       0.8016   0.3538   0.7731     H
H       0.8016   0.6462   0.2269     H
H       0.8016   0.6462   0.7731     H
O      0.81466  0.12136  0.21352     O
O      0.81466  0.12136  0.78648     O
O      0.81466  0.87864  0.21352     O
O      0.81466  0.87864  0.78648     O
O       0.8197  0.11585  0.36924     O
O       0.8197  0.11585  0.63076     O
O       0.8197  0.88415  0.36924     O
O       0.8197  0.88415  0.63076     O
C      0.82039  0.03933   0.3743     C
C      0.82039  0.03933   0.6257     C
C      0.82039  0.96067   0.3743     C
C      0.82039  0.96067   0.6257     C
Cu     0.82726  0.17274  0.33196    Cu
Cu     0.82726  0.17274  0.66804    Cu
Cu     0.82726  0.82726  0.33196    Cu
Cu     0.82726  0.82726  0.66804    Cu
C      0.83327  0.08161   0.3461     C
C      0.83327  0.08161   0.6539     C
C      0.83327  0.91839   0.3461     C
C      0.83327  0.91839   0.6539     C
C       0.8345      0.0   0.3504     C
C       0.8345      0.0   0.6496     C
O      0.83794  0.45602  0.43931     O
O      0.83794  0.45602  0.56069     O
O      0.83794  0.54398  0.43931     O
O      0.83794  0.54398  0.56069     O
C      0.84016  0.38716   0.2833     C
C      0.84016  0.38716   0.7167     C
C      0.84016  0.61284   0.2833     C
C      0.84016  0.61284   0.7167     C
C       0.8404  0.41142    0.335     C
C       0.8404  0.41142    0.665     C
C       0.8404  0.58858    0.335     C
C       0.8404  0.58858    0.665     C
O      0.84211  0.22249  0.28243     O
O      0.84211  0.22249  0.71757     O
O      0.84211  0.77751  0.28243     O
O      0.84211  0.77751  0.71757     O
Cu     0.84514      0.5      0.5    Cu
H       0.8536      0.0   0.3179     H
H       0.8536      0.0   0.6821     H
H       0.8538   0.3016   0.2731     H
H       0.8538   0.3016   0.7269     H
H       0.8538   0.6984   0.2731     H
H       0.8538   0.6984   0.7269     H
O      0.85713   0.0789   0.3022     O
O      0.85713   0.0789   0.6978     O
O      0.85713   0.9211   0.3022     O
O      0.85713   0.9211   0.6978     O
C       0.8658  0.22014   0.2384     C
C       0.8658  0.22014   0.7616     C
C       0.8658  0.77986   0.2384     C
C       0.8658  0.77986   0.7616     C
H       0.8668   0.4231     0.35     H
H       0.8668   0.4231     0.65     H
H       0.8668   0.5769     0.35     H
H       0.8668   0.5769     0.65     H
C      0.87087  0.30148   0.2385     C
C      0.87087  0.30148   0.7615     C
C      0.87087  0.69852   0.2385     C
C      0.87087  0.69852   0.7615     C
Cu     0.87157  0.12843  0.25204    Cu
Cu     0.87157  0.12843  0.74796    Cu
Cu     0.87157  0.87157  0.25204    Cu
Cu     0.87157  0.87157  0.74796    Cu
O      0.87864  0.18534  0.21352     O
O      0.87864  0.18534  0.78648     O
O      0.87864  0.81466  0.21352     O
O      0.87864  0.81466  0.78648     O
C      0.87943  0.26177   0.2098     C
C      0.87943  0.26177   0.7902     C
C      0.87943  0.73823   0.2098     C
C      0.87943  0.73823   0.7902     C
C       0.8819   0.3819     0.25     C
C       0.8819   0.3819     0.75     C
C       0.8819   0.6181     0.25     C
C       0.8819   0.6181     0.75     C
O      0.88415   0.1803  0.36924     O
O      0.88415   0.1803  0.63076     O
O      0.88415   0.8197  0.36924     O
O      0.88415   0.8197  0.63076     O
C      0.88716  0.34016   0.2167     C
C      0.88716  0.34016   0.7833     C
C      0.88716  0.65984   0.2167     C
C      0.88716  0.65984   0.7833     C
C      0.90342  0.26187   0.1587     C
C      0.90342  0.26187   0.8413     C
C      0.90342  0.73813   0.1587     C
C      0.90342  0.73813   0.8413     C
H       0.9098   0.2352   0.1394     H
H       0.9098   0.2352   0.8606     H
H       0.9098   0.7648   0.1394     H
H       0.9098   0.7648   0.8606     H
O      0.90993  0.40993     0.25     O
O      0.90993  0.40993     0.75     O
O      0.90993  0.59007     0.25     O
O      0.90993  0.59007     0.75     O
C      0.91142   0.3404    0.165     C
C      0.91142   0.3404    0.835     C
C      0.91142   0.6596    0.165     C
C      0.91142   0.6596    0.835     C
C      0.91807  0.30107    0.136     C
C      0.91807  0.30107    0.864     C
C      0.91807  0.69893    0.136     C
C      0.91807  0.69893    0.864     C
C      0.91839  0.16673   0.3461     C
C      0.91839  0.16673   0.6539     C
C      0.91839  0.83327   0.3461     C
C      0.91839  0.83327   0.6539     C
O       0.9211  0.14287   0.3022     O
O       0.9211  0.14287   0.6978     O
O       0.9211  0.85713   0.3022     O
O       0.9211  0.85713   0.6978     O
H       0.9231   0.3668     0.15     H
H       0.9231   0.3668     0.85     H
H       0.9231   0.6332     0.15     H
H       0.9231   0.6332     0.85     H
H       0.9339   0.2177   0.4388     H
H       0.9339   0.2177   0.5612     H
H       0.9339   0.7823   0.4388     H
H       0.9339   0.7823   0.5612     H
C      0.94645  0.30143  0.08103     C
C      0.94645  0.30143  0.91897     C
C      0.94645  0.69857  0.08103     C
C      0.94645  0.69857  0.91897     C
O      0.95598  0.26526  0.06077     O
O      0.95598  0.26526  0.93923     O
O      0.95598  0.73474  0.06077     O
O      0.95598  0.73474  0.93923     O
O      0.95602  0.33794  0.06069     O
O      0.95602  0.33794  0.93931     O
O      0.95602  0.66206  0.06069     O
O      0.95602  0.66206  0.93931     O
C      0.96067  0.17961   0.3743     C
C      0.96067  0.17961   0.6257     C
C      0.96067  0.82039   0.3743     C
C      0.96067  0.82039   0.6257     C
C      0.96074  0.20798   0.4226     C
C      0.96074  0.20798   0.5774     C
C      0.96074  0.79202   0.4226     C
C      0.96074  0.79202   0.5774     C
O       0.9624   0.2774      0.5     O
O       0.9624   0.7226      0.5     O
