data_I
_chemical_name_common  '/home/zhangsd/repos/MofS-CGCNN/ML/data/SSD/clean_cifs/KARNAU_clean'
_cell_length_a 29.26980
_cell_length_b 29.26980
_cell_length_c 29.26980
_cell_angle_alpha 109.47100
_cell_angle_beta  109.47100
_cell_angle_gamma 109.47100
_space_group_name_H-M_alt      'P 1'


loop_
_space_group_symop_operation_xyz
  'x, y, z' 

loop_
_atom_site_label
_atom_site_fract_x
_atom_site_fract_y
_atom_site_fract_z
_atom_site_type_symbol
O          0.0  0.71176      0.0     O
H       0.0041   0.2445   0.1338     H
Ni     0.00814  0.73292  0.07546    Ni
C      0.01137  0.91426  0.61167     C
C      0.01143  0.90902  0.74201     C
C       0.0127  0.18116  0.20754     C
H       0.0154   0.6893   0.1569     H
C      0.01562  0.88542  0.56248     C
C      0.01649  0.87587  0.76996     C
C      0.01772  0.72373  0.17731     C
H       0.0186   0.7564   0.3992     H
H       0.0188   0.7314   0.3146     H
N       0.0188  0.75962  0.15582     N
H       0.0193   0.7137   0.2434     H
C      0.02002   0.7382  0.22866     C
C      0.02035  0.84809   0.4644     C
C      0.02112  0.78095  0.38443     C
C      0.02122  0.76608  0.33414     C
C      0.02131  0.23499  0.16008     C
C      0.02216  0.80996  0.18566     C
H       0.0229   0.8345    0.171     H
C      0.02339  0.78854  0.25851     C
C      0.02446  0.82443  0.23701     C
C      0.02463  0.83173  0.41306     C
C      0.02484    0.802   0.3125     C
C      0.02638  0.81884  0.83154     C
H       0.0268   0.8588   0.2574     H
C      0.02824  0.86763  0.39141     C
C      0.02834  0.85277  0.34113     C
C      0.03043  0.49329   0.8556     C
H       0.0306   0.9023   0.4109     H
H       0.0308   0.8773   0.3263     H
C      0.03209   0.7932  0.86537     C
C       0.0328   0.5447  0.87662     C
O      0.03527   0.6438  0.92981     O
O      0.03812  0.74739  0.93361     O
O      0.04676  0.10104   0.7021     O
O      0.05373  0.10853  0.80766     O
O      0.05428  0.95324  0.65534     O
O       0.0548  0.94627  0.75393     O
H       0.0633   0.1628   0.6619     H
H       0.0635   0.4918   0.8603     H
O      0.06639  0.81378  0.10451     O
C      0.06641  0.90835  0.56402     C
Ni     0.06732  0.72478  0.99186    Ni
H       0.0675   0.5783   0.8956     H
H       0.0681   0.8027   0.8916     H
C      0.06877  0.88969  0.51498     C
O      0.07019  0.71399  0.10546     O
C      0.07116  0.88981  0.81029     C
C      0.07217   0.2068  0.23889     C
C      0.07491  0.86123  0.83992     C
Ni     0.07546  0.00814  0.73292    Ni
C      0.07952  0.26087  0.18971     C
H       0.0818   0.1859   0.8983     H
C      0.08574  0.09711  0.69741     C
H       0.0889   0.1973   0.2654     H
C      0.09098  0.10241  0.83299     C
C      0.09165  0.15806  0.65567     C
H       0.0946   0.1981   0.6107     H
C      0.09711  0.69741  0.08574     C
H       0.0977   0.1283   0.5086     H
H       0.0995   0.9367   0.5986     H
O      0.10104   0.7021  0.04676     O
H       0.1017   0.2876   0.1835     H
C      0.10241  0.83299  0.09098     C
H       0.1035   0.9054   0.5161     H
H       0.1041   0.9182   0.8165     H
H       0.1044   0.6827   0.1719     H
O      0.10451  0.06639  0.81378     O
O      0.10546  0.07019  0.71399     O
C      0.10591  0.24653  0.23004     C
H       0.1084   0.9111   0.1765     H
O      0.10853  0.80766  0.05373     O
C      0.11019  0.18135  0.92048     C
C      0.11031  0.17908  0.62529     C
H       0.1107   0.8703   0.8662     H
C      0.11458   0.1302  0.67706     C
H       0.1227   0.1535    0.449     H
C      0.12338  0.66808  0.15618     C
C      0.12413  0.14062  0.89409     C
H       0.1283   0.5086   0.0977     H
H       0.1297   0.2404   0.9959     H
C       0.1302  0.67706  0.11458     C
C      0.13237  0.16061  0.52378     C
H       0.1338   0.0041   0.2445     H
C      0.13463  0.92783  0.16672     C
N      0.13702  0.74082   0.9812     N
C      0.13877  0.21368  0.97869     C
H       0.1397   0.6315   0.2032     H
C      0.14062  0.89409  0.12413     C
H       0.1412    0.168   0.3986     H
H       0.1415   0.6739   0.9846     H
C       0.1444  0.63769  0.17483     C
C      0.14723  0.17557  0.48836     C
H       0.1481   0.8116   0.9771     H
C      0.15191  0.17226  0.61631     C
H       0.1535    0.449   0.1227     H
N      0.15582   0.0188  0.75962     N
C      0.15618  0.12338  0.66808     C
H       0.1569   0.0154   0.6893     H
C      0.15806  0.65567  0.09165     C
C      0.15959  0.70601  0.98228     C
C      0.16008  0.02131  0.23499     C
C      0.16061  0.52378  0.13237     C
H       0.1628   0.6619   0.0633     H
C       0.1635   0.7878  0.97784     C
H       0.1655   0.1884   0.3365     H
C      0.16672  0.13463  0.92783     C
C      0.16701  0.26942  0.25799     C
H        0.168   0.3986   0.1412     H
C      0.16827   0.1929  0.58133     C
C      0.16846   0.9873  0.19484     C
H        0.171   0.0229   0.8345     H
H       0.1719   0.1044   0.6827     H
C      0.17226  0.61631  0.15191     C
C      0.17483   0.1444  0.63769     C
C      0.17557  0.20003  0.41258     C
C      0.17557  0.48836  0.14723     C
H       0.1765   0.1084   0.9111     H
C      0.17731  0.01772  0.72373     C
C      0.17908  0.62529  0.11031     C
C      0.18116  0.20754   0.0127     C
C      0.18135  0.92048  0.11019     C
H       0.1835   0.1017   0.2876     H
C      0.18566  0.02216  0.80996     C
H       0.1859   0.8983   0.0818     H
O      0.18622  0.25261  0.29073     O
H       0.1884   0.3365   0.1655     H
C      0.18971  0.07952  0.26087     C
C      0.19004   0.2122   0.3757     C
O      0.19234  0.30087  0.24607     O
C       0.1929  0.58133  0.16827     C
C      0.19484  0.16846   0.9873     C
H       0.1973   0.2654   0.0889     H
C        0.198  0.22284   0.5105     C
H       0.1981   0.6107   0.0946     H
C      0.20003  0.41258  0.17557     C
H       0.2032   0.1397   0.6315     H
C       0.2068  0.23889  0.07217     C
C      0.20754   0.0127  0.18116     C
C      0.20864  0.71818  0.97998     C
C      0.21146  0.23485  0.46997     C
C       0.2122   0.3757  0.19004     C
C      0.21255  0.79997  0.97554     C
C      0.21368  0.97869  0.13877     C
C      0.21905  0.24017  0.60348     C
C      0.22284   0.5105    0.198     C
H       0.2241   0.6944   0.9807     H
C      0.22866  0.02002   0.7382     C
C      0.23004  0.10591  0.24653     C
H       0.2306    0.832   0.9732     H
C      0.23392  0.25514  0.56806     C
C      0.23485  0.46997  0.21146     C
C      0.23499  0.16008  0.02131     C
C      0.23512  0.76515  0.97661     C
C      0.23701  0.02446  0.82443     C
C      0.23889  0.07217   0.2068     C
C      0.24017  0.60348  0.21905     C
N      0.24038  0.25918   0.3962     N
H       0.2404   0.9959   0.1297     H
H       0.2434   0.0193   0.7137     H
H       0.2436   0.2622   0.6428     H
H       0.2445   0.1338   0.0041     H
O      0.24607  0.19234  0.30087     O
C      0.24653  0.23004  0.10591     C
O      0.25261  0.29073  0.18622     O
C      0.25514  0.56806  0.23392     C
H       0.2574   0.0268   0.8588     H
C      0.25799  0.16701  0.26942     C
C      0.25851  0.02339  0.78854     C
N      0.25918   0.3962  0.24038     N
C      0.26087  0.18971  0.07952     C
C       0.2618  0.28182  0.49046     C
H       0.2622   0.6428   0.2436     H
H       0.2654   0.0889   0.1973     H
Ni     0.26708  0.27522  0.34254    Ni
H       0.2686   0.2874   0.5832     H
C      0.26942  0.25799  0.16701     C
Ni     0.27522  0.34254  0.26708    Ni
C      0.27627  0.29399  0.45358     C
C      0.28182  0.49046   0.2618     C
O      0.28601   0.3562  0.39147     O
H       0.2863   0.3056   0.5297     H
H       0.2874   0.5832   0.2686     H
H       0.2876   0.1835   0.1017     H
C      0.28766  0.77716  0.97516     C
O      0.28824  0.28824  0.28824     O
O      0.29073  0.18622  0.25261     O
C      0.29399  0.45358  0.27627     C
H       0.2955   0.8465   0.9692     H
H       0.2958   0.7126   0.9812     H
O       0.2979  0.39894  0.34466     O
O      0.30087  0.24607  0.19234     O
C      0.30259   0.3997  0.38833     C
H       0.3056   0.5297   0.2863     H
H       0.3107   0.3261   0.4676     H
C       0.3125  0.02484    0.802     C
C      0.31279  0.82443  0.97166     C
C      0.31292  0.74486  0.97878     C
H       0.3146   0.0188   0.7314     H
H       0.3173   0.4217   0.4892     H
C      0.32294  0.45314  0.43752     C
H       0.3261   0.4676   0.3107     H
H       0.3263   0.0308   0.8773     H
C      0.33192   0.4553   0.4881     C
C      0.33414  0.02122  0.76608     C
H       0.3365   0.1655   0.1884     H
H       0.3381   0.5009   0.4014     H
C      0.34113  0.02834  0.85277     C
Ni     0.34254  0.26708  0.27522    Ni
C      0.34433  0.50239  0.43598     C
O      0.34466   0.2979  0.39894     O
O       0.3562  0.39147  0.28601     O
H       0.3572   0.6194   0.6008     H
C      0.36231  0.50671  0.53714     C
C      0.36317  0.83939  0.97176     C
C      0.36331  0.75983  0.97888     C
H       0.3685   0.5082   0.5717     H
C      0.37471  0.55379  0.48502     C
C       0.3757  0.19004   0.2122     C
H       0.3803   0.8717   0.9694     H
H       0.3806   0.7378   0.9814     H
C      0.38369  0.55595   0.5356     C
C      0.38443  0.02112  0.78095     C
C      0.38833  0.30259   0.3997     C
C      0.38843   0.8071  0.97537     C
H       0.3893   0.5874   0.4839     H
C      0.39141  0.02824  0.86763     C
O      0.39147  0.28601   0.3562     O
N       0.3962  0.24038  0.25918     N
C      0.39652  0.63669  0.61557     C
H       0.3986   0.1412    0.168     H
O      0.39894  0.34466   0.2979     O
H       0.3992   0.0186   0.7564     H
C       0.3997  0.38833  0.30259     C
H       0.4014   0.3381   0.5009     H
H       0.4109   0.0306   0.9023     H
C      0.41258  0.17557  0.20003     C
H       0.4126   0.8019   0.8965     H
C      0.41306  0.02463  0.83173     C
H       0.4168   0.7042   0.6854     H
C      0.41867  0.61157  0.58694     C
H       0.4217   0.4892   0.3173     H
H       0.4283   0.9365   0.7968     H
C      0.43194  0.68708  0.66586     C
C      0.43598  0.34433  0.50239     C
C      0.43752  0.32294  0.45314     C
C      0.44405  0.82774  0.97965     C
C      0.44621  0.82092  0.93123     C
H        0.449   0.1227   0.1535     H
C      0.45314  0.43752  0.32294     C
C      0.45358  0.27627  0.29399     C
C       0.4553   0.4881  0.33192     C
C      0.46286  0.96957  0.82517     C
C       0.4644  0.02035  0.84809     C
H       0.4676   0.3107   0.3261     H
C      0.46997  0.21146  0.23485     C
H       0.4703   0.7759   0.7566     H
C      0.47622  0.63683  0.60859     C
H       0.4839   0.3893   0.5874     H
C      0.48502  0.37471  0.55379     C
C       0.4881  0.33192   0.4553     C
C      0.48836  0.14723  0.17557     C
H       0.4892   0.3173   0.4217     H
C       0.4895  0.71234   0.6875     C
C      0.49046   0.2618  0.28182     C
H       0.4914   0.6197   0.5891     H
H       0.4918   0.8603   0.0635     H
C      0.49329   0.8556  0.03043     C
C      0.49761  0.84194  0.93359     C
H       0.4991   0.8372   0.9005     H
H       0.5009   0.4014   0.3381     H
C      0.50239  0.43598  0.34433     C
C      0.50671  0.53714  0.36231     C
H       0.5082   0.5717   0.3685     H
H       0.5086   0.0977   0.1283     H
C      0.50954  0.79136  0.77134     C
C       0.5105    0.198  0.22284     C
H       0.5108   0.9325   0.8281     H
C      0.51164  0.68721  0.65887     C
C       0.5119   0.9672  0.84382     C
C      0.51498  0.06877  0.88969     C
H       0.5161   0.1035   0.9054     H
C      0.52378  0.13237  0.16061     C
H       0.5297   0.2863   0.3056     H
C      0.53003  0.76488  0.74149     C
H       0.5324   0.8585   0.8431     H
C       0.5356  0.38369  0.55595     C
C      0.53714  0.36231  0.50671     C
C       0.5447  0.87662   0.0328     C
C      0.54642  0.84041  0.82269     C
C      0.54686   0.8698  0.98438     C
H        0.551   0.7045   0.6737     H
C      0.55379  0.48502  0.37471     C
C      0.55595   0.5356  0.38369     C
C      0.56248  0.01562  0.88542     C
C      0.56402  0.06641  0.90835     C
C      0.56806  0.23392  0.25514     C
H       0.5717   0.3685   0.5082     H
H       0.5783   0.8956   0.0675     H
C      0.58133  0.16827   0.1929     C
H       0.5832   0.2686   0.2874     H
C      0.58694  0.41867  0.61157     C
H       0.5874   0.4839   0.3893     H
C      0.58742  0.78745  0.76299     C
H       0.5891   0.4914   0.6197     H
H       0.5986   0.0995   0.9367     H
C       0.6003  0.90289  0.98863     C
H       0.6008   0.3572   0.6194     H
O      0.60106  0.89896  0.94572     O
H       0.6014   0.7694   0.7426     H
C      0.60348  0.21905  0.24017     C
N       0.6038  0.86298  0.84418     N
O      0.60853  0.96473  0.89454     O
C      0.60859  0.47622  0.63683     C
H       0.6107   0.0946   0.1981     H
C      0.61157  0.58694  0.41867     C
C      0.61167  0.01137  0.91426     C
C      0.61557  0.39652  0.63669     C
C      0.61631  0.15191  0.17226     C
H       0.6194   0.6008   0.3572     H
H       0.6197   0.5891   0.4914     H
C       0.6243   0.8365  0.81434     C
C      0.62529  0.11031  0.17908     C
H       0.6315   0.2032   0.1397     H
C      0.63669  0.61557  0.39652     C
C      0.63683  0.60859  0.47622     C
C      0.63769  0.17483   0.1444     C
H       0.6428   0.2436   0.2622     H
O       0.6438  0.92981  0.03527     O
O      0.65534  0.05428  0.95324     O
C      0.65567  0.09165  0.15806     C
Ni     0.65746  0.93268  0.92454    Ni
C      0.65887  0.51164  0.68721     C
H       0.6619   0.0633   0.1628     H
H       0.6635   0.8519    0.829     H
C      0.66586  0.43194  0.68708     C
C      0.66808  0.15618  0.12338     C
H       0.6737    0.551   0.7045     H
H       0.6739   0.9846   0.1415     H
C      0.67706  0.11458   0.1302     C
H       0.6827   0.1719   0.1044     H
H       0.6854   0.4168   0.7042     H
C      0.68708  0.66586  0.43194     C
C      0.68721  0.65887  0.51164     C
C       0.6875   0.4895  0.71234     C
H       0.6893   0.1569   0.0154     H
H       0.6944   0.9807   0.2241     H
C      0.69741  0.08574  0.09711     C
O      0.69913  0.89147   0.9452     O
O       0.7021  0.04676  0.10104     O
H       0.7042   0.6854   0.4168     H
H       0.7045   0.6737    0.551     H
C      0.70601  0.98228  0.15959     C
O      0.70927  0.96188  0.89549     O
O      0.71176      1.0      0.0     O
C      0.71234   0.6875   0.4895     C
H       0.7124   0.8141   0.8959     H
H       0.7126   0.9812   0.2958     H
H       0.7137   0.2434   0.0193     H
O      0.71399  0.10546  0.07019     O
C      0.71818  0.97998  0.20864     C
C      0.72373  0.17731  0.01772     C
Ni     0.72478  0.99186  0.06732    Ni
C      0.73058  0.89759  0.98857     C
H       0.7314   0.3146   0.0188     H
Ni     0.73292  0.07546  0.00814    Ni
H       0.7346   0.9319   0.8235     H
H       0.7378   0.9814   0.3806     H
C       0.7382  0.22866  0.02002     C
C      0.73913  0.81865  0.92884     C
N      0.74082   0.9812  0.13702     N
C      0.74149  0.53003  0.76488     C
C      0.74201  0.01143  0.90902     C
H       0.7426   0.6014   0.7694     H
C      0.74486  0.97878  0.31292     C
O      0.74739  0.93361  0.03812     O
C      0.75347  0.85938  0.98351     C
O      0.75393   0.0548  0.94627     O
H       0.7555   0.7596   0.8893     H
H       0.7564   0.3992   0.0186     H
H       0.7566   0.4703   0.7759     H
H       0.7596   0.8893   0.7555     H
N      0.75962  0.15582   0.0188     N
C      0.75983  0.97888  0.36331     C
C      0.76111  0.96791  0.83328     C
C      0.76299  0.58742  0.78745     C
C      0.76488  0.74149  0.53003     C
C      0.76501  0.78632  0.92509     C
C      0.76515  0.97661  0.23512     C
C      0.76608  0.33414  0.02122     C
H       0.7694   0.7426   0.6014     H
C      0.76996  0.01649  0.87587     C
C      0.77134  0.50954  0.79136     C
H       0.7759   0.7566   0.4703     H
C      0.77716  0.97516  0.28766     C
C      0.78095  0.38443  0.02112     C
C      0.78632  0.92509  0.76501     C
C      0.78745  0.76299  0.58742     C
C       0.7878  0.97784   0.1635     C
C      0.78854  0.25851  0.02339     C
C      0.79136  0.77134  0.50954     C
C      0.79246  0.97362  0.80516     C
C       0.7932  0.86537  0.03209     C
H       0.7968   0.4283   0.9365     H
C      0.79997  0.97554  0.21255     C
H       0.8019   0.8965   0.4126     H
C        0.802   0.3125  0.02484     C
H       0.8027   0.8916   0.0681     H
C      0.80516  0.79246  0.97362     C
C       0.8071  0.97537  0.38843     C
O      0.80766  0.05373  0.10853     O
C      0.80996  0.18566  0.02216     C
C      0.81029  0.07116  0.88981     C
H       0.8116   0.9771   0.1481     H
O      0.81378  0.10451  0.06639     O
H       0.8141   0.8959   0.7124     H
C      0.81434   0.6243   0.8365     C
H       0.8165   0.1041   0.9182     H
C      0.81865  0.92884  0.73913     C
C      0.81884  0.83154  0.02638     C
C      0.82092  0.93123  0.44621     C
C      0.82269  0.54642  0.84041     C
H       0.8235   0.7346   0.9319     H
C      0.82443  0.23701  0.02446     C
C      0.82443  0.97166  0.31279     C
C      0.82517  0.46286  0.96957     C
C      0.82774  0.97965  0.44405     C
H       0.8281   0.5108   0.9325     H
H        0.829   0.6635   0.8519     H
C      0.83154  0.02638  0.81884     C
C      0.83173  0.41306  0.02463     C
H        0.832   0.9732   0.2306     H
C      0.83299  0.09098  0.10241     C
C      0.83328  0.76111  0.96791     C
H       0.8345    0.171   0.0229     H
C       0.8365  0.81434   0.6243     C
H       0.8372   0.9005   0.4991     H
C      0.83939  0.97176  0.36317     C
C      0.83992  0.07491  0.86123     C
C      0.84041  0.82269  0.54642     C
C      0.84194  0.93359  0.49761     C
H       0.8431   0.5324   0.8585     H
C      0.84382   0.5119   0.9672     C
N      0.84418   0.6038  0.86298     N
H       0.8465   0.9692   0.2955     H
C      0.84809   0.4644  0.02035     C
H       0.8519    0.829   0.6635     H
C      0.85277  0.34113  0.02834     C
C       0.8556  0.03043  0.49329     C
H       0.8585   0.8431   0.5324     H
H       0.8588   0.2574   0.0268     H
C      0.85938  0.98351  0.75347     C
H       0.8603   0.0635   0.4918     H
C      0.86123  0.83992  0.07491     C
N      0.86298  0.84418   0.6038     N
C      0.86537  0.03209   0.7932     C
H       0.8662   0.1107   0.8703     H
C      0.86763  0.39141  0.02824     C
C       0.8698  0.98438  0.54686     C
H       0.8703   0.8662   0.1107     H
H       0.8717   0.9694   0.3803     H
C      0.87587  0.76996  0.01649     C
C      0.87662   0.0328   0.5447     C
H       0.8773   0.3263   0.0308     H
C      0.88542  0.56248  0.01562     C
H       0.8893   0.7555   0.7596     H
C      0.88969  0.51498  0.06877     C
C      0.88981  0.81029  0.07116     C
O      0.89147   0.9452  0.69913     O
H       0.8916   0.0681   0.8027     H
C      0.89409  0.12413  0.14062     C
O      0.89454  0.60853  0.96473     O
O      0.89549  0.70927  0.96188     O
H       0.8956   0.0675   0.5783     H
H       0.8959   0.7124   0.8141     H
H       0.8965   0.4126   0.8019     H
C      0.89759  0.98857  0.73058     C
H       0.8983   0.0818   0.1859     H
O      0.89896  0.94572  0.60106     O
H       0.9005   0.4991   0.8372     H
H       0.9023   0.4109   0.0306     H
C      0.90289  0.98863   0.6003     C
H       0.9054   0.5161   0.1035     H
C      0.90835  0.56402  0.06641     C
C      0.90902  0.74201  0.01143     C
H       0.9111   0.1765   0.1084     H
C      0.91426  0.61167  0.01137     C
H       0.9182   0.8165   0.1041     H
C      0.92048  0.11019  0.18135     C
Ni     0.92454  0.65746  0.93268    Ni
C      0.92509  0.76501  0.78632     C
C      0.92783  0.16672  0.13463     C
C      0.92884  0.73913  0.81865     C
O      0.92981  0.03527   0.6438     O
C      0.93123  0.44621  0.82092     C
H       0.9319   0.8235   0.7346     H
H       0.9325   0.8281   0.5108     H
Ni     0.93268  0.92454  0.65746    Ni
C      0.93359  0.49761  0.84194     C
O      0.93361  0.03812  0.74739     O
H       0.9365   0.7968   0.4283     H
H       0.9367   0.5986   0.0995     H
O       0.9452  0.69913  0.89147     O
O      0.94572  0.60106  0.89896     O
O      0.94627  0.75393   0.0548     O
O      0.95324  0.65534  0.05428     O
O      0.96188  0.89549  0.70927     O
O      0.96473  0.89454  0.60853     O
C       0.9672  0.84382   0.5119     C
C      0.96791  0.83328  0.76111     C
H       0.9692   0.2955   0.8465     H
H       0.9694   0.3803   0.8717     H
C      0.96957  0.82517  0.46286     C
C      0.97166  0.31279  0.82443     C
C      0.97176  0.36317  0.83939     C
H       0.9732   0.2306    0.832     H
C      0.97362  0.80516  0.79246     C
C      0.97516  0.28766  0.77716     C
C      0.97537  0.38843   0.8071     C
C      0.97554  0.21255  0.79997     C
C      0.97661  0.23512  0.76515     C
H       0.9771   0.1481   0.8116     H
C      0.97784   0.1635   0.7878     C
C      0.97869  0.13877  0.21368     C
C      0.97878  0.31292  0.74486     C
C      0.97888  0.36331  0.75983     C
C      0.97965  0.44405  0.82774     C
C      0.97998  0.20864  0.71818     C
H       0.9807   0.2241   0.6944     H
N       0.9812  0.13702  0.74082     N
H       0.9812   0.2958   0.7126     H
H       0.9814   0.3806   0.7378     H
C      0.98228  0.15959  0.70601     C
C      0.98351  0.75347  0.85938     C
C      0.98438  0.54686   0.8698     C
H       0.9846   0.1415   0.6739     H
C       0.9873  0.19484  0.16846     C
C      0.98857  0.73058  0.89759     C
C      0.98863   0.6003  0.90289     C
Ni     0.99186  0.06732  0.72478    Ni
H       0.9959   0.1297   0.2404     H
O          1.0     -0.0  0.71176     O
