data_I
_chemical_name_common  '/home/zhangsd/repos/MofS-CGCNN/ML/data/SSD/clean_cifs/KASRED_clean'
_cell_length_a 11.49170
_cell_length_b 18.52400
_cell_length_c 25.72700
_cell_angle_alpha 90.00000
_cell_angle_beta  96.28000
_cell_angle_gamma 90.00000
_space_group_name_H-M_alt      'P 1'


loop_
_space_group_symop_operation_xyz
  'x, y, z' 

loop_
_atom_site_label
_atom_site_fract_x
_atom_site_fract_y
_atom_site_fract_z
_atom_site_type_symbol
Cd     0.02417  0.74958  0.44172    Cd
Cd     0.02417  0.75042  0.94172    Cd
Cd      0.0383  0.06267  0.55366    Cd
Cd      0.0383  0.43733  0.05366    Cd
O       0.0611  0.16018   0.6144     O
O       0.0611  0.33982   0.1144     O
O       0.1047  0.54629  0.01959     O
O       0.1047  0.95371  0.51959     O
H       0.1107   0.2491   0.1879     H
H       0.1107   0.2509   0.6879     H
O        0.114   0.2305  0.50529     O
O        0.114   0.2695  0.00529     O
O       0.1238  0.64754  0.97681     O
O       0.1238  0.85246  0.47681     O
O       0.1265   0.7327  0.37582     O
O       0.1265   0.7673  0.87582     O
O       0.1334  0.11228   0.4912     O
O       0.1334  0.38772   0.9912     O
C       0.1507   0.6078  0.01634     C
C       0.1507   0.8922  0.51634     C
C       0.1517   0.1303  0.63677     C
C       0.1517   0.3697  0.13677     C
C       0.1527   0.1784  0.48242     C
C       0.1527   0.3216  0.98242     C
H       0.1684    0.729   0.7872     H
H       0.1684    0.771   0.2872     H
C       0.1818   0.2293  0.70266     C
C       0.1818   0.2707  0.20266     C
O       0.1859  0.07078  0.62143     O
O       0.1859  0.42922  0.12143     O
H       0.1917      0.2   0.9326     H
H       0.1917      0.3   0.4326     H
H       0.2159   0.5488   0.1085     H
H       0.2159   0.9512   0.6085     H
H       0.2185   0.1955   0.2591     H
H       0.2185   0.3045   0.7591     H
C       0.2192   0.1661  0.68228     C
C       0.2192   0.3339  0.18228     C
C       0.2253   0.7087   0.3796     C
C       0.2253   0.7913   0.8796     C
C       0.2285   0.1935  0.43974     C
C       0.2285   0.3065  0.93974     C
C       0.2329   0.2386  0.91859     C
C       0.2329   0.2614  0.41859     C
C       0.2358    0.634   0.0602     C
C       0.2358    0.866   0.5602     C
C       0.2409   0.7465  0.28698     C
C       0.2409   0.7535  0.78698     C
C        0.247   0.2382   0.2444     C
C        0.247   0.2618   0.7444     C
C       0.2541   0.5939  0.10597     C
C       0.2541   0.9061  0.60597     C
H       0.2631   0.7288   0.7119     H
H       0.2631   0.7712   0.2119     H
O       0.2758   0.6869   0.4205     O
O       0.2758   0.8131   0.9205     O
H       0.2818   0.7274   0.0257     H
H       0.2818   0.7726   0.5257     H
C       0.2886   0.7105  0.33126     C
C       0.2886   0.7895  0.83126     C
H       0.2906   0.0905   0.4346     H
H       0.2906   0.4095   0.9346     H
C       0.2921   0.1375  0.41984     C
C       0.2921   0.3625  0.91984     C
C       0.2941   0.6995  0.05682     C
C       0.2941   0.8005  0.55682     C
C       0.2973    0.226  0.87692     C
C       0.2973    0.274  0.37692     C
C       0.2981   0.7471  0.24227     C
C       0.2981   0.7529  0.74227     C
H       0.2983    0.179   0.8621     H
H       0.2983    0.321   0.3621     H
C       0.3227   0.1361   0.7041     C
C       0.3227   0.3639   0.2041     C
C       0.3282   0.6197    0.148     C
C       0.3282   0.8803    0.648     C
H       0.3388   0.5922   0.1794     H
H       0.3388   0.9078   0.6794     H
H       0.3488   0.0918   0.6908     H
H       0.3488   0.4082   0.1908     H
C       0.3532   0.2332  0.76528     C
C       0.3532   0.2668  0.26528     C
C       0.3573   0.1505  0.37875     C
C       0.3573   0.3495  0.87875     C
C       0.3604   0.2187  0.35652     C
C       0.3604   0.2813  0.85652     C
C       0.3704   0.7242  0.09886     C
C       0.3704   0.7758  0.59886     C
C        0.387   0.6845  0.14526     C
C        0.387   0.8155  0.64526     C
C        0.389   0.1693    0.745     C
C        0.389   0.3307    0.245     C
C       0.3954   0.6769   0.3301     C
C       0.3954   0.8231   0.8301     C
H       0.4007   0.1123   0.3655     H
H       0.4007   0.3877   0.8655     H
C       0.4051   0.7132  0.24092     C
C       0.4051   0.7868  0.74092     C
H       0.4114   0.7317    0.596     H
H       0.4114   0.7683    0.096     H
C       0.4245   0.2313  0.31008     C
C       0.4245   0.2687  0.81008     C
H       0.4298   0.6525   0.3605     H
H       0.4298   0.8475   0.8605     H
C       0.4541   0.6778  0.28546     C
C       0.4541   0.8222  0.78546     C
H       0.4604   0.1478   0.7595     H
H       0.4604   0.3522   0.2595     H
C       0.4634   0.7113  0.19187     C
C       0.4634   0.7887  0.69187     C
H       0.4726   0.1541   0.2144     H
H       0.4726   0.3459   0.7144     H
H       0.5274   0.6541   0.2856     H
H       0.5274   0.8459   0.7856     H
C       0.5366   0.2113  0.30813     C
C       0.5366   0.2887  0.80813     C
H       0.5396   0.6478   0.7405     H
H       0.5396   0.8522   0.2405     H
C       0.5459   0.1778  0.21454     C
C       0.5459   0.3222  0.71454     C
H       0.5702   0.1525   0.1395     H
H       0.5702   0.3475   0.6395     H
C       0.5755   0.7313  0.18992     C
C       0.5755   0.7687  0.68992     C
H       0.5886   0.2317    0.904     H
H       0.5886   0.2683    0.404     H
C       0.5949   0.2132  0.25908     C
C       0.5949   0.2868  0.75908     C
H       0.5993   0.6123   0.1345     H
H       0.5993   0.8877   0.6345     H
C       0.6046   0.1769   0.1699     C
C       0.6046   0.3231   0.6699     C
C        0.611   0.6693    0.755     C
C        0.611   0.8307    0.255     C
C        0.613   0.1845  0.35474     C
C        0.613   0.3155  0.85474     C
C       0.6296   0.2242  0.40114     C
C       0.6296   0.2758  0.90114     C
C       0.6396   0.7187  0.14348     C
C       0.6396   0.7813  0.64348     C
C       0.6427   0.6505  0.12125     C
C       0.6427   0.8495  0.62125     C
C       0.6468   0.7332  0.73472     C
C       0.6468   0.7668  0.23472     C
H       0.6512   0.5918   0.8092     H
H       0.6512   0.9082   0.3092     H
H       0.6612   0.0922   0.3206     H
H       0.6612   0.4078   0.8206     H
C       0.6718   0.1197    0.352     C
C       0.6718   0.3803    0.852     C
C       0.6773   0.6361   0.7959     C
C       0.6773   0.8639   0.2959     C
H       0.7017    0.679   0.6379     H
H       0.7017    0.821   0.1379     H
C       0.7019   0.2471  0.25773     C
C       0.7019   0.2529  0.75773     C
C       0.7027    0.726  0.62308     C
C       0.7027    0.774  0.12308     C
C       0.7059   0.1995  0.44318     C
C       0.7059   0.3005  0.94318     C
C       0.7079   0.6375  0.08016     C
C       0.7079   0.8625  0.58016     C
H       0.7094   0.5905   0.0654     H
H       0.7094   0.9095   0.5654     H
C       0.7114   0.2105  0.16874     C
C       0.7114   0.2895  0.66874     C
H       0.7182   0.2274   0.4743     H
H       0.7182   0.2726   0.9743     H
O       0.7242   0.1869   0.0795     O
O       0.7242   0.3131   0.5795     O
H       0.7369   0.2288   0.7881     H
H       0.7369   0.2712   0.2881     H
C       0.7459   0.0939  0.39403     C
C       0.7459   0.4061  0.89403     C
C        0.753   0.7382   0.2556     C
C        0.753   0.7618   0.7556     C
C       0.7591   0.2465  0.21302     C
C       0.7591   0.2535  0.71302     C
C       0.7642    0.134   0.4398     C
C       0.7642    0.366   0.9398     C
C       0.7671   0.7386  0.58141     C
C       0.7671   0.7614  0.08141     C
C       0.7715   0.6935  0.06026     C
C       0.7715   0.8065  0.56026     C
C       0.7747   0.2087   0.1204     C
C       0.7747   0.2913   0.6204     C
C       0.7808   0.6661  0.81772     C
C       0.7808   0.8339  0.31772     C
H       0.7815   0.6955   0.2409     H
H       0.7815   0.8045   0.7409     H
H       0.7841   0.0488   0.3915     H
H       0.7841   0.4512   0.8915     H
H       0.8083      0.7   0.5674     H
H       0.8083      0.8   0.0674     H
O       0.8141  0.57078  0.87857     O
O       0.8141  0.92922  0.37857     O
C       0.8182   0.7293  0.79734     C
C       0.8182   0.7707  0.29734     C
H       0.8316    0.229   0.7128     H
H       0.8316    0.271   0.2128     H
C       0.8473   0.6784  0.01758     C
C       0.8473   0.8216  0.51758     C
C       0.8483   0.6303  0.86323     C
C       0.8483   0.8697  0.36323     C
C       0.8493   0.1078  0.48366     C
C       0.8493   0.3922  0.98366     C
O       0.8666  0.61228   0.0088     O
O       0.8666  0.88772   0.5088     O
O       0.8735   0.2327  0.12418     O
O       0.8735   0.2673  0.62418     O
O       0.8762  0.14754  0.52319     O
O       0.8762  0.35246  0.02319     O
O        0.886   0.7305  0.99471     O
O        0.886   0.7695  0.49471     O
H       0.8893   0.7491   0.3121     H
H       0.8893   0.7509   0.8121     H
O       0.8953  0.04629  0.48041     O
O       0.8953  0.45371  0.98041     O
O       0.9389  0.66018   0.8856     O
O       0.9389  0.83982   0.3856     O
Cd      0.9617  0.56267  0.94634    Cd
Cd      0.9617  0.93733  0.44634    Cd
Cd     0.97583  0.24958  0.05828    Cd
Cd     0.97583  0.25042  0.55828    Cd
