data_I
_chemical_name_common  '/home/zhangsd/repos/MofS-CGCNN/ML/data/SSD/clean_cifs/KAVGAQ_clean'
_cell_length_a 11.49320
_cell_length_b 11.61320
_cell_length_c 11.81820
_cell_angle_alpha 65.27500
_cell_angle_beta  81.17400
_cell_angle_gamma 72.75200
_space_group_name_H-M_alt      'P 1'


loop_
_space_group_symop_operation_xyz
  'x, y, z' 

loop_
_atom_site_label
_atom_site_fract_x
_atom_site_fract_y
_atom_site_fract_z
_atom_site_type_symbol
Co         0.0      0.0      0.0    Co
Co         0.0      0.0      0.5    Co
Co         0.0      0.5      0.5    Co
N       0.0057   0.6698    0.348     N
N       0.0104   0.8457   0.1712     N
C       0.0185   0.1126   0.7315     C
C       0.0216    0.222   0.6219     C
C       0.0236   0.7166   0.2252     C
C       0.0381   0.9708   0.7648     C
O       0.0418   0.9247   0.6862     O
H        0.044   0.6623   0.1795     H
O       0.0455   0.3623   0.4153     O
O       0.0483   0.8983    0.881     O
C       0.0513   0.2445   0.4891     C
O       0.0814    0.151   0.4542     O
H       0.1583   0.1822   0.9801     H
H       0.1649   0.7244   0.6318     H
N       0.1742    0.875   0.4724     N
N       0.1898   0.9975   0.0106     N
N        0.199   0.4543   0.5215     N
H       0.2046   0.3688   0.7046     H
C       0.2181   0.7574   0.5633     C
H       0.2201   0.9987   0.3085     H
C       0.2215   0.1042   0.9918     C
H       0.2347   0.5319   0.3412     H
C       0.2499   0.9173   0.3754     C
C       0.2534   0.3822   0.6299     C
H       0.2597   0.8093   0.0457     H
C       0.2712   0.4768   0.4193     C
C         0.28   0.8884   0.0294     C
C       0.3364   0.6815   0.5626     C
C       0.3398   0.1106   0.9879     C
H       0.3564   0.1907   0.9751     H
H       0.3627   0.5987   0.6292     H
C       0.3703   0.8476   0.3678     C
C       0.3783   0.3254    0.639     C
C       0.3964   0.4247   0.4201     C
C       0.4025   0.8854   0.0262     C
H       0.4128   0.2746   0.7186     H
C       0.4158   0.7271   0.4644     C
H       0.4212   0.8818   0.2975     H
C       0.4353   0.9985    0.003     C
H       0.4437   0.4447   0.3443     H
C       0.4523   0.3428   0.5326     C
H       0.4635   0.8055   0.0399     H
H       0.5365   0.1945   0.9601     H
C       0.5477   0.6572   0.4674     C
H       0.5563   0.5553   0.6557     H
C       0.5647   0.0015    0.997     C
H       0.5788   0.1182   0.7025     H
C       0.5842   0.2729   0.5356     C
H       0.5872   0.7254   0.2814     H
C       0.5975   0.1146   0.9738     C
C       0.6036   0.5753   0.5799     C
C       0.6217   0.6746    0.361     C
C       0.6297   0.1524   0.6322     C
H       0.6373   0.4013   0.3708     H
H       0.6436   0.8093   0.0249     H
C       0.6602   0.8894   0.0121     C
C       0.6636   0.3185   0.4374     C
C         0.72   0.1116   0.9706     C
C       0.7288   0.5232   0.5807     C
H       0.7403   0.1907   0.9543     H
C       0.7466   0.6178   0.3701     C
C       0.7501   0.0827   0.6246     C
H       0.7653   0.4681   0.6588     H
C       0.7785   0.8958   0.0082     C
H       0.7799   0.0013   0.6915     H
C       0.7819   0.2426   0.4367     C
H       0.7954   0.6312   0.2954     H
N        0.801   0.5457   0.4785     N
N       0.8102   0.0025   0.9894     N
N       0.8258    0.125   0.5276     N
H       0.8351   0.2756   0.3682     H
H       0.8417   0.8178   0.0199     H
O       0.9186    0.849   0.5458     O
C       0.9487   0.7555   0.5109     C
O       0.9517   0.1017    0.119     O
O       0.9545   0.6377   0.5847     O
H        0.956   0.3377   0.8205     H
O       0.9582   0.0753   0.3138     O
C       0.9619   0.0292   0.2352     C
C       0.9764   0.2834   0.7748     C
C       0.9784    0.778   0.3781     C
C       0.9815   0.8874   0.2685     C
N       0.9896   0.1543   0.8288     N
N       0.9943   0.3302    0.652     N
