data_I
_chemical_name_common  '/home/zhangsd/repos/MofS-CGCNN/ML/data/SSD/clean_cifs/KEDNOY_clean'
_cell_length_a 14.05630
_cell_length_b 14.05630
_cell_length_c 14.05630
_cell_angle_alpha 90.00000
_cell_angle_beta  90.00000
_cell_angle_gamma 90.00000
_space_group_name_H-M_alt      'P 1'


loop_
_space_group_symop_operation_xyz
  'x, y, z' 

loop_
_atom_site_label
_atom_site_fract_x
_atom_site_fract_y
_atom_site_fract_z
_atom_site_type_symbol
C       0.0051   0.7626   0.0255     C
C       0.0255   0.0051   0.7626     C
C       0.0263   0.7006   0.7339     C
H       0.0305   0.7681   0.7168     H
N      0.03684  0.45266   0.7366     N
C      0.04071  0.76973   0.1957     C
N      0.04734   0.2634  0.53684     N
H       0.0525   0.6912   0.7978     H
H       0.0625   0.6627   0.6881     H
C       0.0632   0.2678   0.2813     C
C       0.0731   0.7636  0.10069     C
C      0.07564   0.1701  0.76741     C
H        0.078   0.2099   0.2453     H
H       0.0796   0.3237    0.243     H
O      0.09716  0.77724  0.26548     O
H       0.1001   0.2685   0.3404     H
C      0.10069   0.0731   0.7636     C
Ag      0.1259   0.3741   0.6259    Ag
O      0.13753  0.23595  0.77206     O
H       0.1596   0.8999   0.7685     H
H       0.1627   0.8119   0.9375     H
C       0.1701  0.76741  0.07564     C
H       0.1763    0.757   0.5796     H
H       0.1881   0.4375   0.3373     H
H       0.1912   0.7022   0.9475     H
C       0.1957  0.04071  0.76973     C
C       0.2006   0.7661   0.9737     C
H       0.2022   0.5525   0.8088     H
H       0.2099   0.2453    0.078     H
H       0.2168   0.4695   0.2319     H
C       0.2187   0.9368   0.7678     C
O      0.22276  0.76548  0.40284     O
O      0.22794  0.63753  0.26405     O
Al     0.22936  0.77064  0.27064    Al
C      0.23027   0.6957  0.45929     C
H       0.2315   0.6596   0.6001     H
H       0.2319   0.2168   0.4695     H
C       0.2322   0.7187   0.5632     C
C      0.23259  0.57564   0.3299     C
C       0.2339   0.4737   0.2994     C
O      0.23452  0.90284  0.27724     O
O      0.23595  0.77206  0.13753     O
C       0.2364  0.60069   0.4269     C
N       0.2366  0.46316  0.54734     N
C       0.2374   0.5255   0.4949     C
H        0.243   0.0796   0.3237     H
H       0.2453    0.078   0.2099     H
H       0.2547    0.922   0.7099     H
H        0.257   0.9204   0.8237     H
C       0.2626   0.4745   0.9949     C
N       0.2634  0.53684  0.04734     N
C       0.2636  0.39931   0.9269     C
O      0.26405  0.22794  0.63753     O
O      0.26548  0.09716  0.77724     O
C       0.2661   0.5263   0.7994     C
C      0.26741  0.42436   0.8299     C
C       0.2678   0.2813   0.0632     C
H       0.2681   0.7832   0.9695     H
H       0.2685   0.3404   0.1001     H
C      0.26973   0.3043  0.95929     C
Al     0.27064  0.22936  0.77064    Al
O      0.27206  0.36247  0.76405     O
O      0.27724  0.23452  0.90284     O
C       0.2813   0.0632   0.2678     C
H       0.2832   0.5305   0.7319     H
H       0.2901   0.7547    0.578     H
H       0.2978   0.4475   0.3088     H
C       0.2994   0.2339   0.4737     C
C       0.3043  0.95929  0.26973     C
H       0.3088   0.2978   0.4475     H
H       0.3119   0.5625   0.8373     H
H       0.3237    0.243   0.0796     H
C       0.3299  0.23259  0.57564     C
H       0.3373   0.1881   0.4375     H
H       0.3404   0.1001   0.2685     H
O      0.36247  0.76405  0.27206     O
Ag      0.3741   0.6259   0.1259    Ag
C      0.39931   0.9269   0.2636     C
H       0.3999   0.7315   0.8404     H
O      0.40284  0.22276  0.76548     O
H       0.4204   0.6763    0.743     H
H        0.422   0.7901   0.7453     H
C      0.42436   0.8299  0.26741     C
C       0.4269   0.2364  0.60069     C
C       0.4368   0.7322   0.7813     C
H       0.4375   0.3373   0.1881     H
H       0.4475   0.3088   0.2978     H
N      0.45266   0.7366  0.03684     N
C      0.45929  0.23027   0.6957     C
N      0.46316  0.54734   0.2366     N
H       0.4695   0.2319   0.2168     H
C       0.4737   0.2994   0.2339     C
C       0.4745   0.9949   0.2626     C
C       0.4949   0.2374   0.5255     C
C       0.5051   0.7374   0.9745     C
C       0.5255   0.4949   0.2374     C
C       0.5263   0.7994   0.2661     C
H       0.5305   0.7319   0.2832     H
N      0.53684  0.04734   0.2634     N
C      0.54071  0.73027   0.8043     C
N      0.54734   0.2366  0.46316     N
H       0.5525   0.8088   0.2022     H
H       0.5625   0.8373   0.3119     H
C       0.5632   0.2322   0.7187     C
C       0.5731   0.7364  0.89931     C
C      0.57564   0.3299  0.23259     C
H        0.578   0.2901   0.7547     H
H       0.5796   0.1763    0.757     H
O      0.59716  0.72276  0.73452     O
H       0.6001   0.2315   0.6596     H
C      0.60069   0.4269   0.2364     C
Ag      0.6259   0.1259   0.3741    Ag
O      0.63753  0.26405  0.22794     O
H       0.6596   0.6001   0.2315     H
H       0.6627   0.6881   0.0625     H
C       0.6701  0.73259  0.92436     C
H       0.6763    0.743   0.4204     H
H       0.6881   0.0625   0.6627     H
H       0.6912   0.7978   0.0525     H
C       0.6957  0.45929  0.23027     C
C       0.7006   0.7339   0.0263     C
H       0.7022   0.9475   0.1912     H
H       0.7099   0.2547    0.922     H
H       0.7168   0.0305   0.7681     H
C       0.7187   0.5632   0.2322     C
O      0.72276  0.73452  0.59716     O
O      0.72794  0.86247  0.73595     O
Al     0.72936  0.72936  0.72936    Al
C      0.73027   0.8043  0.54071     C
H       0.7315   0.8404   0.3999     H
H       0.7319   0.2832   0.5305     H
C       0.7322   0.7813   0.4368     C
C      0.73259  0.92436   0.6701     C
C       0.7339   0.0263   0.7006     C
O      0.73452  0.59716  0.72276     O
O      0.73595  0.72794  0.86247     O
C       0.7364  0.89931   0.5731     C
N       0.7366  0.03684  0.45266     N
C       0.7374   0.9745   0.5051     C
H        0.743   0.4204   0.6763     H
H       0.7453    0.422   0.7901     H
H       0.7547    0.578   0.2901     H
H        0.757   0.5796   0.1763     H
C       0.7626   0.0255   0.0051     C
N       0.7634  0.96316  0.95266     N
C       0.7636  0.10069   0.0731     C
O      0.76405  0.27206  0.36247     O
O      0.76548  0.40284  0.22276     O
C       0.7661   0.9737   0.2006     C
C      0.76741  0.07564   0.1701     C
C       0.7678   0.2187   0.9368     C
H       0.7681   0.7168   0.0305     H
H       0.7685   0.1596   0.8999     H
C      0.76973   0.1957  0.04071     C
Al     0.77064  0.27064  0.22936    Al
O      0.77206  0.13753  0.23595     O
O      0.77724  0.26548  0.09716     O
C       0.7813   0.4368   0.7322     C
H       0.7832   0.9695   0.2681     H
H       0.7901   0.7453    0.422     H
H       0.7978   0.0525   0.6912     H
C       0.7994   0.2661   0.5263     C
C       0.8043  0.54071  0.73027     C
H       0.8088   0.2022   0.5525     H
H       0.8119   0.9375   0.1627     H
H       0.8237    0.257   0.9204     H
C       0.8299  0.26741  0.42436     C
H       0.8373   0.3119   0.5625     H
H       0.8404   0.3999   0.7315     H
O      0.86247  0.73595  0.72794     O
Ag      0.8741   0.8741   0.8741    Ag
C      0.89931   0.5731   0.7364     C
H       0.8999   0.7685   0.1596     H
O      0.90284  0.27724  0.23452     O
H       0.9204   0.8237    0.257     H
H        0.922   0.7099   0.2547     H
C      0.92436   0.6701  0.73259     C
C       0.9269   0.2636  0.39931     C
C       0.9368   0.7678   0.2187     C
H       0.9375   0.1627   0.8119     H
H       0.9475   0.1912   0.7022     H
N      0.95266   0.7634  0.96316     N
C      0.95929  0.26973   0.3043     C
N      0.96316  0.95266   0.7634     N
H       0.9695   0.2681   0.7832     H
C       0.9737   0.2006   0.7661     C
C       0.9745   0.5051   0.7374     C
C       0.9949   0.2626   0.4745     C
