data_I
_chemical_name_common  '/home/zhangsd/repos/MofS-CGCNN/ML/data/SSD/clean_cifs/KEGYAX_clean'
_cell_length_a  6.36320
_cell_length_b  9.49060
_cell_length_c 15.10020
_cell_angle_alpha 96.57500
_cell_angle_beta  93.09400
_cell_angle_gamma 100.22100
_space_group_name_H-M_alt      'P 1'


loop_
_space_group_symop_operation_xyz
  'x, y, z' 

loop_
_atom_site_label
_atom_site_fract_x
_atom_site_fract_y
_atom_site_fract_z
_atom_site_type_symbol
H       0.0005   0.1367   0.3809     H
C       0.0139   0.2688   0.5881     C
H       0.0143   0.1897   0.2421     H
C       0.0144   0.1352   0.6349     C
C       0.0617   0.7571    0.207     C
O       0.0695   0.6246    0.225     O
C       0.0722   0.1039   0.2534     C
C        0.082   0.1667    0.736     C
H        0.114    0.115      0.1     H
C       0.1166   0.0254   0.7702     C
O       0.1215   0.7393   0.4764     O
H       0.1326   0.0942   0.6099     H
C       0.1341   0.1228   0.3547     C
Ag     0.13808  0.58685  0.57397    Ag
O       0.1505   0.8093   0.1468     O
O       0.1607    0.375   0.6134     O
O       0.1661   0.9478    0.914     O
H        0.178    0.601    0.201     H
C        0.181   0.9854   0.3913     C
H       0.1858   0.0066   0.4565     H
C       0.2162   0.0473   0.8655     C
H       0.2224   0.2306   0.7422     H
H       0.2302   0.9968   0.7347     H
O       0.2454   0.1182   0.1144     O
O       0.2493   0.3763   0.3601     O
C       0.2688   0.1077   0.2004     C
C       0.2877   0.2632   0.3889     C
O       0.3535   0.1598     0.89     O
Ag     0.37523   0.8602  0.01251    Ag
C       0.3935   0.9368   0.3716     C
O       0.4058   0.8207   0.3327     O
O       0.4302   0.9744   0.5927     O
O       0.4348   0.2621   0.4479     O
Ag      0.4451  0.59046  0.41613    Ag
O       0.4452   0.1151   0.2362     O
H        0.451     0.89    0.577     H
H        0.549     0.11    0.423     H
O       0.5548   0.8849   0.7638     O
Ag      0.5549  0.40954  0.58387    Ag
O       0.5652   0.7379   0.5521     O
O       0.5698   0.0256   0.4073     O
O       0.5942   0.1793   0.6673     O
C       0.6065   0.0632   0.6284     C
Ag     0.62477   0.1398  0.98749    Ag
O       0.6465   0.8402     0.11     O
C       0.7123   0.7368   0.6111     C
C       0.7312   0.8923   0.7996     C
O       0.7507   0.6237   0.6399     O
O       0.7546   0.8818   0.8856     O
H       0.7698   0.0032   0.2653     H
H       0.7776   0.7694   0.2578     H
C       0.7838   0.9527   0.1345     C
H       0.8142   0.9934   0.5435     H
C        0.819   0.0146   0.6087     C
H        0.822    0.399    0.799     H
O       0.8339   0.0522    0.086     O
O       0.8393    0.625   0.3866     O
O       0.8495   0.1907   0.8532     O
Ag     0.86192  0.41315  0.42603    Ag
C       0.8659   0.8772   0.6453     C
H       0.8674   0.9058   0.3901     H
O       0.8785   0.2607   0.5236     O
C       0.8834   0.9746   0.2298     C
H        0.886    0.885      0.9     H
C        0.918   0.8333    0.264     C
C       0.9278   0.8961   0.7466     C
O       0.9305   0.3754    0.775     O
C       0.9383   0.2429    0.793     C
C       0.9856   0.8648   0.3651     C
H       0.9857   0.8103   0.7579     H
C       0.9861   0.7312   0.4119     C
H       0.9995   0.8633   0.6191     H
