data_I
_chemical_name_common  '/home/zhangsd/repos/MofS-CGCNN/ML/data/SSD/clean_cifs/KEHFUA_clean'
_cell_length_a 21.85670
_cell_length_b 11.55250
_cell_length_c 21.46040
_cell_angle_alpha 90.00000
_cell_angle_beta  117.61100
_cell_angle_gamma 90.00000
_space_group_name_H-M_alt      'P 1'


loop_
_space_group_symop_operation_xyz
  'x, y, z' 

loop_
_atom_site_label
_atom_site_fract_x
_atom_site_fract_y
_atom_site_fract_z
_atom_site_type_symbol
C       0.0081   0.1762   0.3487     C
C       0.0081   0.3238   0.8487     C
H       0.0113   0.1662   0.2194     H
H       0.0113   0.3338   0.7194     H
H       0.0242   0.1443    0.855     H
H       0.0242   0.3557    0.355     H
H        0.025   0.5029   0.8523     H
H        0.025   0.9971   0.3523     H
C      0.02636   0.6729  0.10304     C
C      0.02636   0.8271  0.60304     C
N      0.02645  0.17222  0.47098     N
N      0.02645  0.32778  0.97098     N
C      0.03266   0.6733  0.28314     C
C      0.03266   0.8267  0.78314     C
H       0.0407   0.1538   0.9797     H
H       0.0407   0.3462   0.4797     H
H       0.0432   0.5015   0.9787     H
H       0.0432   0.9985   0.4787     H
N       0.0444  0.67786  0.22592     N
N       0.0444  0.82214  0.72592     N
C      0.05307   0.2136  0.86444     C
C      0.05307   0.2864  0.36444     C
C      0.05363   0.0669  0.36298     C
C      0.05363   0.4331  0.86298     C
H       0.0551   0.6033   0.1131     H
H       0.0551   0.8967   0.6131     H
H       0.0562   0.7407   0.1121     H
H       0.0562   0.7593   0.6121     H
C      0.06975   0.2226   0.9883     C
C      0.06975   0.2774   0.4883     C
C       0.0712   0.0686  0.48721     C
C       0.0712   0.4314  0.98721     C
H       0.0759   0.2113   0.8345     H
H       0.0759   0.2887   0.3345     H
H       0.0766   0.0674   0.3331     H
H       0.0766   0.4326   0.8331     H
N      0.09019   0.6801  0.34177     N
N      0.09019   0.8199  0.84177     N
H       0.1037   0.2237   0.0382     H
H       0.1037   0.2763   0.5382     H
H       0.1057   0.0697   0.5369     H
H       0.1057   0.4303   0.0369     H
C      0.10754   0.0674  0.44065     C
C      0.10754   0.4326  0.94065     C
C      0.10755   0.2169  0.94266     C
C      0.10755   0.2831  0.44266     C
C      0.11368   0.6885  0.25369     C
C      0.11368   0.8115  0.75369     C
H       0.1379   0.6942   0.2272     H
H       0.1379   0.8058   0.7272     H
N      0.14259  0.68971  0.32263     N
N      0.14259  0.81029  0.82263     N
N      0.15058  0.53911  0.95606     N
N      0.15058  0.96089  0.45606     N
N      0.15093  0.11079  0.96027     N
N      0.15093  0.38921  0.46027     N
C      0.15429   0.1752  0.45762     C
C      0.15429   0.3248  0.95762     C
H       0.1549   0.6073   0.0462     H
H       0.1549   0.8927   0.5462     H
H       0.1631   0.0549   0.0561     H
H       0.1631   0.4451   0.5561     H
C      0.16756   0.6153  0.01013     C
C      0.16756   0.8847  0.51013     C
H       0.1718   0.0888    0.877     H
H       0.1718   0.4112    0.377     H
C      0.17267   0.0422  0.01828     C
C      0.17267   0.4578  0.51828     C
H       0.1762   0.5503   0.8756     H
H       0.1762   0.9497   0.3756     H
H       0.1777   0.1764   0.4282     H
H       0.1777   0.3236   0.9282     H
C      0.17775   0.0606  0.92052     C
C      0.17775   0.4394  0.42052     C
C      0.17911   0.5838  0.91679     C
C      0.17911   0.9162  0.41679     C
H       0.1894   0.1741   0.5071     H
H       0.1894   0.3259   0.0071     H
N      0.20374  0.70053  0.00471     N
N      0.20374  0.79947  0.50471     N
N      0.20888   0.5439  0.51325     N
N      0.20888   0.9561  0.01325     N
N      0.21128  0.68071   0.9451     N
N      0.21128  0.81929   0.4451     N
N      0.21301  0.53294  0.45197     N
N      0.21301  0.96706  0.95197     N
Cu     0.24323  0.69875  0.39753    Cu
Cu     0.24323  0.80125  0.89753    Cu
N      0.24677   0.5636  0.27962     N
N      0.24677   0.9364  0.77962     N
Cu     0.25507   0.6737   0.5806    Cu
Cu     0.25507   0.8263   0.0806    Cu
H       0.2678    0.062   0.7287     H
H       0.2678    0.438   0.2287     H
N      0.27328  0.57805  0.35149     N
N      0.27328  0.92195  0.85149     N
C      0.27617   0.0304  0.77235     C
C      0.27617   0.4696  0.27235     C
H       0.2863    0.541   0.7285     H
H       0.2863    0.959   0.2285     H
H       0.2914   0.2276   0.2628     H
H       0.2914   0.2724   0.7628     H
H       0.2981   0.2216    0.383     H
H       0.2981   0.2784    0.883     H
N      0.31238  0.55281   0.6511     N
N      0.31238  0.94719   0.1511     N
C      0.31495   0.5151  0.70956     C
C      0.31495   0.9849  0.20956     C
C      0.31715   0.0049  0.88386     C
C      0.31715   0.4951  0.38386     C
H       0.3192    0.045    0.335     H
H       0.3192    0.455    0.835     H
N      0.32019  0.07689  0.83558     N
N      0.32019  0.42311  0.33558     N
N      0.33784   0.7063  0.48247     N
N      0.33784   0.7937  0.98247     N
N      0.34052  0.70857  0.54848     N
N      0.34052  0.79143  0.04848     N
C      0.34073    0.246  0.28464     C
C      0.34073    0.254  0.78464     C
H       0.3426   0.0133   0.9329     H
H       0.3426   0.4867   0.4329     H
C      0.34738   0.2405  0.40444     C
C      0.34738   0.2595  0.90444     C
H       0.3498   0.2087   0.7512     H
H       0.3498   0.2913   0.2512     H
H       0.3593   0.2158   0.9477     H
H       0.3593   0.2842   0.4477     H
N      0.36167   0.0056  0.14051     N
N      0.36167   0.4944  0.64051     N
C        0.362   0.1848  0.85307     C
C        0.362   0.3152  0.35307     C
N      0.36462  0.06625  0.23905     N
N      0.36462  0.43375  0.73905     N
C      0.36852   0.0637  0.35641     C
C      0.36852   0.4363  0.85641     C
C      0.38378    0.134   0.3045     C
C      0.38378    0.366   0.8045     C
N      0.38853  0.13222  0.42148     N
N      0.38853  0.36778  0.92148     N
C       0.3918   0.0762   0.1939     C
C       0.3918   0.4238   0.6939     C
H       0.3945    0.509   0.8678     H
H       0.3945    0.991   0.3678     H
C      0.40056   0.7266  0.49123     C
C      0.40056   0.7734  0.99123     C
C      0.40446   0.7312  0.59394     C
C      0.40446   0.7688  0.09394     C
H       0.4132    0.729   0.4549     H
H       0.4132    0.771   0.9549     H
H       0.4208   0.7381   0.6427     H
H       0.4208   0.7619   0.1427     H
H       0.4277   0.1272   0.2002     H
H       0.4277   0.3728   0.7002     H
C      0.43916   0.1537  0.88785     C
C      0.43916   0.3463  0.38785     C
N      0.44435  0.74352  0.56048     N
N      0.44435  0.75648  0.06048     N
H       0.4494    0.107   0.8557     H
H       0.4494    0.393   0.3557     H
H       0.4517   0.1089   0.9309     H
H       0.4517   0.3911   0.4309     H
C      0.46091   0.1627  0.33755     C
C      0.46091   0.3373  0.83755     C
C      0.46286   0.1592  0.45544     C
C      0.46286   0.3408  0.95544     C
H       0.4706   0.2085   0.3047     H
H       0.4706   0.2915   0.8047     H
H       0.4754   0.2024    0.499     H
H       0.4754   0.2976    0.999     H
C      0.48039   0.2321  0.40544     C
C      0.48039   0.2679  0.90544     C
H       0.4881   0.0913   0.3484     H
H       0.4881   0.4087   0.8484     H
H       0.4896   0.0872   0.4675     H
H       0.4896   0.4128   0.9675     H
H       0.5104   0.5872   0.0325     H
H       0.5104   0.9128   0.5325     H
H       0.5119   0.5913   0.1516     H
H       0.5119   0.9087   0.6516     H
C      0.51961   0.7321  0.09456     C
C      0.51961   0.7679  0.59456     C
H       0.5246   0.7024    0.001     H
H       0.5246   0.7976    0.501     H
H       0.5294   0.7085   0.1953     H
H       0.5294   0.7915   0.6953     H
C      0.53714   0.6592  0.04456     C
C      0.53714   0.8408  0.54456     C
C      0.53909   0.6627  0.16245     C
C      0.53909   0.8373  0.66245     C
H       0.5483   0.6089   0.5691     H
H       0.5483   0.8911   0.0691     H
H       0.5506    0.607   0.6443     H
H       0.5506    0.893   0.1443     H
N      0.55565  0.24352  0.93952     N
N      0.55565  0.25648  0.43952     N
C      0.56084   0.6537  0.61215     C
C      0.56084   0.8463  0.11215     C
H       0.5723   0.6272   0.2998     H
H       0.5723   0.8728   0.7998     H
H       0.5792   0.2381   0.8573     H
H       0.5792   0.2619   0.3573     H
H       0.5868    0.229   0.0451     H
H       0.5868    0.271   0.5451     H
C      0.59554   0.2312  0.90606     C
C      0.59554   0.2688  0.40606     C
C      0.59944   0.2266  0.00877     C
C      0.59944   0.2734  0.50877     C
H       0.6055    0.009   0.6322     H
H       0.6055    0.491   0.1322     H
C       0.6082   0.5762   0.3061     C
C       0.6082   0.9238   0.8061     C
N      0.61147  0.63222  0.07852     N
N      0.61147  0.86778  0.57852     N
C      0.61622    0.634   0.1955     C
C      0.61622    0.866   0.6955     C
C      0.63148   0.5637  0.14359     C
C      0.63148   0.9363  0.64359     C
N      0.63538  0.56625  0.26095     N
N      0.63538  0.93375  0.76095     N
C        0.638   0.6848  0.64693     C
C        0.638   0.8152  0.14693     C
N      0.63833   0.5056  0.35949     N
N      0.63833   0.9944  0.85949     N
H       0.6407   0.7158   0.5523     H
H       0.6407   0.7842   0.0523     H
H       0.6502   0.7087   0.7488     H
H       0.6502   0.7913   0.2488     H
C      0.65262   0.7405  0.09556     C
C      0.65262   0.7595  0.59556     C
H       0.6574   0.5133   0.5671     H
H       0.6574   0.9867   0.0671     H
C      0.65927    0.746  0.21536     C
C      0.65927    0.754  0.71536     C
N      0.65948  0.20857  0.95152     N
N      0.65948  0.29143  0.45152     N
N      0.66216   0.2063  0.01753     N
N      0.66216   0.2937  0.51753     N
N      0.67981  0.57689  0.66442     N
N      0.67981  0.92311  0.16442     N
H       0.6808    0.545    0.165     H
H       0.6808    0.955    0.665     H
C      0.68285   0.5049  0.61614     C
C      0.68285   0.9951  0.11614     C
C      0.68505   0.0151  0.79044     C
C      0.68505   0.4849  0.29044     C
N      0.68762  0.05281   0.8489     N
N      0.68762  0.44719   0.3489     N
H       0.7019   0.7216    0.117     H
H       0.7019   0.7784    0.617     H
H       0.7086   0.7276   0.2372     H
H       0.7086   0.7724   0.7372     H
H       0.7137    0.041   0.7715     H
H       0.7137    0.459   0.2715     H
C      0.72383   0.5304  0.72765     C
C      0.72383   0.9696  0.22765     C
N      0.72672  0.07805  0.14851     N
N      0.72672  0.42195  0.64851     N
H       0.7322    0.562   0.7713     H
H       0.7322    0.938   0.2713     H
Cu     0.74493   0.1737   0.9194    Cu
Cu     0.74493   0.3263   0.4194    Cu
N      0.75323   0.0636  0.22038     N
N      0.75323   0.4364  0.72038     N
Cu     0.75677  0.19875  0.10247    Cu
Cu     0.75677  0.30125  0.60247    Cu
N      0.78699  0.03294  0.04803     N
N      0.78699  0.46706  0.54803     N
N      0.78872  0.18071   0.5549     N
N      0.78872  0.31929   0.0549     N
N      0.79112   0.0439  0.98675     N
N      0.79112   0.4561  0.48675     N
N      0.79626  0.20053  0.49529     N
N      0.79626  0.29947  0.99529     N
H       0.8106   0.6741   0.9929     H
H       0.8106   0.8259   0.4929     H
C      0.82089   0.0838  0.58321     C
C      0.82089   0.4162  0.08321     C
C      0.82225   0.5606  0.57948     C
C      0.82225   0.9394  0.07948     C
H       0.8223   0.6764   0.0718     H
H       0.8223   0.8236   0.5718     H
H       0.8238   0.0503   0.6244     H
H       0.8238   0.4497   0.1244     H
C      0.82733   0.5422  0.48172     C
C      0.82733   0.9578  0.98172     C
H       0.8282   0.5888    0.623     H
H       0.8282   0.9112    0.123     H
C      0.83244   0.1153  0.48987     C
C      0.83244   0.3847  0.98987     C
H       0.8369   0.5549   0.4439     H
H       0.8369   0.9451   0.9439     H
H       0.8451   0.1073   0.4538     H
H       0.8451   0.3927   0.9538     H
C      0.84571   0.6752  0.04238     C
C      0.84571   0.8248  0.54238     C
N      0.84907  0.61079  0.53973     N
N      0.84907  0.88921  0.03973     N
N      0.84942  0.03911  0.54394     N
N      0.84942  0.46089  0.04394     N
N      0.85741  0.18971  0.17737     N
N      0.85741  0.31029  0.67737     N
H       0.8621   0.1942   0.2728     H
H       0.8621   0.3058   0.7728     H
C      0.88632   0.1885  0.24631     C
C      0.88632   0.3115  0.74631     C
C      0.89245   0.7169  0.55734     C
C      0.89245   0.7831  0.05734     C
C      0.89246   0.5674  0.05935     C
C      0.89246   0.9326  0.55935     C
H       0.8943   0.5697   0.9631     H
H       0.8943   0.9303   0.4631     H
H       0.8963   0.7237   0.4618     H
H       0.8963   0.7763   0.9618     H
N      0.90981   0.1801  0.15823     N
N      0.90981   0.3199  0.65823     N
H       0.9234   0.5674   0.1669     H
H       0.9234   0.9326   0.6669     H
H       0.9241   0.7113   0.6655     H
H       0.9241   0.7887   0.1655     H
C       0.9288   0.5686  0.01279     C
C       0.9288   0.9314  0.51279     C
C      0.93025   0.7226   0.5117     C
C      0.93025   0.7774   0.0117     C
H       0.9438   0.2407   0.3879     H
H       0.9438   0.2593   0.8879     H
H       0.9449   0.1033   0.3869     H
H       0.9449   0.3967   0.8869     H
C      0.94637   0.5669  0.13702     C
C      0.94637   0.9331  0.63702     C
C      0.94693   0.7136  0.63556     C
C      0.94693   0.7864  0.13556     C
N       0.9556  0.17786  0.27408     N
N       0.9556  0.32214  0.77408     N
H       0.9568   0.0015   0.5213     H
H       0.9568   0.4985   0.0213     H
H       0.9593   0.6538   0.5203     H
H       0.9593   0.8462   0.0203     H
C      0.96734   0.1733  0.21686     C
C      0.96734   0.3267  0.71686     C
N      0.97355  0.67222  0.02902     N
N      0.97355  0.82778  0.52902     N
C      0.97364   0.1729  0.39696     C
C      0.97364   0.3271  0.89696     C
H        0.975   0.0029   0.6477     H
H        0.975   0.4971   0.1477     H
H       0.9758   0.6443    0.645     H
H       0.9758   0.8557    0.145     H
H       0.9887   0.6662   0.2806     H
H       0.9887   0.8338   0.7806     H
C       0.9919   0.6762   0.1513     C
C       0.9919   0.8238   0.6513     C
