data_I
_chemical_name_common  '/home/zhangsd/repos/MofS-CGCNN/ML/data/SSD/clean_cifs/KIFWUT_clean'
_cell_length_a 10.44100
_cell_length_b 17.57110
_cell_length_c 17.57110
_cell_angle_alpha 115.28200
_cell_angle_beta  96.33010
_cell_angle_gamma 83.66990
_space_group_name_H-M_alt      'P 1'


loop_
_space_group_symop_operation_xyz
  'x, y, z' 

loop_
_atom_site_label
_atom_site_fract_x
_atom_site_fract_y
_atom_site_fract_z
_atom_site_type_symbol
H       0.0009   0.7598    0.277     H
C        0.006  0.74405  0.83775     C
C       0.0071   0.7399   0.5435     C
Co     0.01133  0.95535  0.78781    Co
H       0.0164   0.9603   0.6193     H
H       0.0177   0.2031   0.1615     H
O       0.0234  0.15354   0.3194     O
C        0.037  0.77828  0.63672     C
C        0.043  0.33069  0.62991     C
C       0.0475  0.36994  0.13526     C
H       0.0543   0.6016   0.0818     H
C       0.0568   0.6356   0.4052     C
C       0.0667  0.59003  0.83237     C
C       0.0669   0.2638   0.7624     C
O       0.0672  0.37497  0.71647     O
H       0.0761   0.1833   0.8169     H
C         0.08  0.29174  0.13466     C
C       0.0814  0.67054  0.49146     C
C        0.083  0.22406  0.49554     C
H       0.0899   0.7305   0.0633     H
H       0.0904   0.5357   0.8277     H
N       0.0914  0.47898  0.09922     N
C       0.0965   0.9816    0.642     C
C       0.1077    0.259   0.5828     C
H       0.1081   0.5894   0.3712     H
C       0.1135  0.22932  0.81788     C
C       0.1194  0.33197  0.76483     C
N       0.1195  0.70758  0.81044     N
O       0.1257  0.73966  0.66388     O
H       0.1295   0.1745   0.4629     H
C       0.1315  0.40987  0.10253     C
O       0.1319  0.98296  0.26008     O
H       0.1327   0.0008   0.5418     H
C       0.1375  0.58026  0.06574     C
N       0.1391  0.98728  0.71946     N
C       0.1464  0.63033  0.80687     C
H       0.1493   0.6471   0.5153     H
H       0.1588   0.2632    0.116     H
H        0.162   0.9153   0.3565     H
C       0.1658  0.00585  0.59495     C
O       0.1661  0.93367  0.98235     O
H       0.1688   0.2326   0.6078     H
C         0.17  0.70674  0.04286     C
O       0.1714  0.89624  0.83308     O
N       0.1817  0.51128  0.06872     N
H       0.2124   0.3846   0.0848     H
O       0.2126  0.17314  0.94516     O
H       0.2138   0.8031   0.0211     H
C       0.2145  0.62718  0.03782     C
C       0.2167  0.26378  0.87562     C
C       0.2217  0.36704  0.82076     C
H       0.2241   0.6019   0.7857     H
C       0.2305  0.87658  0.33282     C
C       0.2308  0.93858  0.22922     C
H       0.2417   0.8211   0.4131     H
C       0.2452  0.75008  0.01732     C
Co        0.25  0.76521  0.76521    Co
S         0.25  0.91571  0.91571     S
C       0.2548  0.01732  0.75008     C
H       0.2583   0.4131   0.8211     H
C       0.2692  0.22922  0.93858     C
C       0.2695  0.33282  0.87658     C
H       0.2759   0.7857   0.6019     H
C       0.2783  0.82076  0.36704     C
C       0.2833  0.87562  0.26378     C
C       0.2855  0.03782  0.62718     C
H       0.2862   0.0211   0.8031     H
O       0.2874  0.94516  0.17314     O
H       0.2876   0.0848   0.3846     H
N       0.3183  0.06872  0.51128     N
O       0.3286  0.83308  0.89624     O
C         0.33  0.04286  0.70674     C
H       0.3312   0.6078   0.2326     H
O       0.3339  0.98235  0.93367     O
C       0.3342  0.59495  0.00585     C
H        0.338   0.3565   0.9153     H
H       0.3412    0.116   0.2632     H
H       0.3507   0.5153   0.6471     H
C       0.3536  0.80687  0.63033     C
N       0.3609  0.71946  0.98728     N
C       0.3625  0.06574  0.58026     C
H       0.3673   0.5418   0.0008     H
O       0.3681  0.26008  0.98296     O
C       0.3685  0.10253  0.40987     C
H       0.3705   0.4629   0.1745     H
O       0.3743  0.66388  0.73966     O
N       0.3805  0.81044  0.70758     N
C       0.3806  0.76483  0.33197     C
C       0.3865  0.81788  0.22932     C
H       0.3919   0.3712   0.5894     H
C       0.3923   0.5828    0.259     C
C       0.4035    0.642   0.9816     C
N       0.4086  0.09922  0.47898     N
H       0.4096   0.8277   0.5357     H
H       0.4101   0.0633   0.7305     H
C        0.417  0.49554  0.22406     C
C       0.4186  0.49146  0.67054     C
C         0.42  0.13466  0.29174     C
H       0.4239   0.8169   0.1833     H
O       0.4328  0.71647  0.37497     O
C       0.4331   0.7624   0.2638     C
C       0.4333  0.83237  0.59003     C
C       0.4432   0.4052   0.6356     C
H       0.4457   0.0818   0.6016     H
C       0.4525  0.13526  0.36994     C
C        0.457  0.62991  0.33069     C
C        0.463  0.63672  0.77828     C
O       0.4766   0.3194  0.15354     O
H       0.4823   0.1615   0.2031     H
H       0.4836   0.6193   0.9603     H
Co     0.48867  0.78781  0.95535    Co
C       0.4929   0.5435   0.7399     C
C        0.494  0.83775  0.74405     C
H       0.4991    0.277   0.7598     H
H       0.5009    0.723   0.2402     H
C        0.506  0.16225  0.25595     C
C       0.5071   0.4565   0.2601     C
Co     0.51133  0.21219  0.04465    Co
H       0.5164   0.3807   0.0397     H
H       0.5177   0.8385   0.7969     H
O       0.5234   0.6806  0.84646     O
C        0.537  0.36328  0.22172     C
C        0.543  0.37009  0.66931     C
C       0.5475  0.86474  0.63006     C
H       0.5543   0.9182   0.3984     H
C       0.5568   0.5948   0.3644     C
C       0.5667  0.16763  0.40997     C
C       0.5669   0.2376   0.7362     C
O       0.5672  0.28353  0.62503     O
H       0.5761   0.1831   0.8167     H
C         0.58  0.86534  0.70826     C
C       0.5814  0.50854  0.32946     C
C        0.583  0.50446  0.77594     C
H       0.5899   0.9367   0.2695     H
H       0.5904   0.1723   0.4643     H
N       0.5914  0.90078  0.52102     N
C       0.5965    0.358   0.0184     C
C       0.6077   0.4172    0.741     C
H       0.6081   0.6288   0.4106     H
C       0.6135  0.18212  0.77068     C
C       0.6194  0.23517  0.66803     C
N       0.6195  0.18956  0.29242     N
O       0.6257  0.33612  0.26034     O
H       0.6295   0.5371   0.8255     H
C       0.6315  0.89747  0.59013     C
O       0.6319  0.73992  0.01704     O
H       0.6327   0.4582   0.9992     H
C       0.6375  0.93426  0.41974     C
N       0.6391  0.28054  0.01272     N
C       0.6464  0.19313  0.36967     C
H       0.6493   0.4847   0.3529     H
H       0.6588    0.884   0.7368     H
H        0.662   0.6435   0.0847     H
C       0.6658  0.40505  0.99415     C
O       0.6661  0.01765  0.06633     O
H       0.6688   0.3922   0.7674     H
C         0.67  0.95714  0.29326     C
O       0.6714  0.16692  0.10376     O
N       0.6817  0.93128  0.48872     N
H       0.7124   0.9152   0.6154     H
O       0.7126  0.05484  0.82686     O
H       0.7138   0.9789   0.1969     H
C       0.7145  0.96218  0.37282     C
C       0.7167  0.12438  0.73622     C
C       0.7217  0.17924  0.63296     C
H       0.7241   0.2143   0.3981     H
C       0.7305  0.66718  0.12342     C
C       0.7308  0.77078  0.06142     C
H       0.7417   0.5869   0.1789     H
C       0.7452  0.98268  0.24992     C
S         0.75  0.08429  0.08429     S
Co        0.75  0.23479  0.23479    Co
C       0.7548  0.24992  0.98268     C
H       0.7583   0.1789   0.5869     H
C       0.7692  0.06142  0.77078     C
C       0.7695  0.12342  0.66718     C
H       0.7759   0.3981   0.2143     H
C       0.7783  0.63296  0.17924     C
C       0.7833  0.73622  0.12438     C
C       0.7855  0.37282  0.96218     C
H       0.7862   0.1969   0.9789     H
O       0.7874  0.82686  0.05484     O
H       0.7876   0.6154   0.9152     H
N       0.8183  0.48872  0.93128     N
O       0.8286  0.10376  0.16692     O
C         0.83  0.29326  0.95714     C
H       0.8312   0.7674   0.3922     H
O       0.8339  0.06633  0.01765     O
C       0.8342  0.99415  0.40505     C
H        0.838   0.0847   0.6435     H
H       0.8412   0.7368    0.884     H
H       0.8507   0.3529   0.4847     H
C       0.8536  0.36967  0.19313     C
N       0.8609  0.01272  0.28054     N
C       0.8625  0.41974  0.93426     C
H       0.8673   0.9992   0.4582     H
O       0.8681  0.01704  0.73992     O
C       0.8685  0.59013  0.89747     C
H       0.8705   0.8255   0.5371     H
O       0.8743  0.26034  0.33612     O
N       0.8805  0.29242  0.18956     N
C       0.8806  0.66803  0.23517     C
C       0.8865  0.77068  0.18212     C
H       0.8919   0.4106   0.6288     H
C       0.8923    0.741   0.4172     C
C       0.9035   0.0184    0.358     C
N       0.9086  0.52102  0.90078     N
H       0.9096   0.4643   0.1723     H
H       0.9101   0.2695   0.9367     H
C        0.917  0.77594  0.50446     C
C       0.9186  0.32946  0.50854     C
C         0.92  0.70826  0.86534     C
H       0.9239   0.8167   0.1831     H
O       0.9328  0.62503  0.28353     O
C       0.9331   0.7362   0.2376     C
C       0.9333  0.40997  0.16763     C
C       0.9432   0.3644   0.5948     C
H       0.9457   0.3984   0.9182     H
C       0.9525  0.63006  0.86474     C
C        0.957  0.66931  0.37009     C
C        0.963  0.22172  0.36328     C
O       0.9766  0.84646   0.6806     O
H       0.9823   0.7969   0.8385     H
H       0.9836   0.0397   0.3807     H
Co     0.98867  0.04465  0.21219    Co
C       0.9929   0.2601   0.4565     C
C        0.994  0.25595  0.16225     C
H       0.9991   0.2402    0.723     H
