data_I
_chemical_name_common  '/home/zhangsd/repos/MofS-CGCNN/ML/data/SSD/clean_cifs/KIKDIT_clean'
_cell_length_a 19.52200
_cell_length_b 19.52200
_cell_length_c 33.79100
_cell_angle_alpha 90.00000
_cell_angle_beta  90.00000
_cell_angle_gamma 90.00000
_space_group_name_H-M_alt      'P 1'


loop_
_space_group_symop_operation_xyz
  'x, y, z' 

loop_
_atom_site_label
_atom_site_fract_x
_atom_site_fract_y
_atom_site_fract_z
_atom_site_type_symbol
C       0.0002   0.8445   0.3859     C
C       0.0002   0.8445   0.6141     C
C        0.002    0.774    0.382     C
C        0.002    0.774    0.618     C
H       0.0068   0.6409   0.2761     H
H       0.0068   0.6409   0.7239     H
N        0.009   0.3309  0.29384     N
N        0.009   0.3309  0.70616     N
H       0.0097   0.3415   0.4429     H
H       0.0097   0.3415   0.5571     H
H       0.0116   0.1185   0.3305     H
H       0.0116   0.1185   0.6695     H
C       0.0134   0.3862   0.1057     C
C       0.0134   0.3862   0.8943     C
C       0.0154   0.2643   0.3455     C
C       0.0154   0.2643   0.6545     C
C       0.0155   0.1005   0.3571     C
C       0.0155   0.1005   0.6429     C
H       0.0167   0.9369   0.3606     H
H       0.0167   0.9369   0.6394     H
H       0.0186   0.1387   0.0358     H
H       0.0186   0.1387   0.9642     H
C        0.019   0.2008   0.0825     C
C        0.019   0.2008   0.9175     C
H       0.0192   0.3654   0.0799     H
H       0.0192   0.3654   0.9201     H
N         0.02   0.8579  0.42292     N
N         0.02   0.8579  0.57708     N
H       0.0233   0.8992   0.4324     H
H       0.0233   0.8992   0.5676     H
C       0.0238   0.7491   0.4189     C
C       0.0238   0.7491   0.5811     C
C        0.028   0.6931   0.3234     C
C        0.028   0.6931   0.6766     C
C       0.0331   0.6757   0.4323     C
C       0.0331   0.6757   0.5677     C
H       0.0343   0.4313   0.1058     H
H       0.0343   0.4313   0.8942     H
N       0.0347   0.8005  0.44454     N
N       0.0347   0.8005  0.55546     N
H        0.035   0.6095   0.1116     H
H        0.035   0.6095   0.8884     H
N       0.0442   0.1633  0.05135     N
N       0.0442   0.1633  0.94865     N
H        0.047   0.6477   0.4099     H
H        0.047   0.6477   0.5901     H
C       0.0472    0.342   0.1367     C
C       0.0472    0.342   0.8633     C
H       0.0479    0.404   0.1823     H
H       0.0479    0.404   0.8177     H
C       0.0548   0.7994   0.0927     C
C       0.0548   0.7994   0.9073     C
H         0.06   0.8022   0.1212     H
H         0.06   0.8022   0.8788     H
N       0.0601    0.364  0.17351     N
N       0.0601    0.364  0.82649     N
H       0.0617    0.084   0.3615     H
H       0.0617    0.084   0.6385     H
H       0.0631   0.0167   0.1394     H
H       0.0631   0.0167   0.8606     H
H       0.0682   0.6738   0.4526     H
H       0.0682   0.6738   0.5474     H
N       0.0743   0.3072  0.29407     N
N       0.0743   0.3072  0.70593     N
C       0.0752   0.2765   0.1341     C
C       0.0752   0.2765   0.8659     C
C        0.076   0.2306   0.0991     C
C        0.076   0.2306   0.9009     C
H        0.076   0.7576   0.0831     H
H        0.076   0.7576   0.9169     H
H       0.0768   0.8387   0.0805     H
H       0.0768   0.8387   0.9195     H
H       0.0769    0.523   0.3818     H
H       0.0769    0.523   0.6182     H
C       0.0788   0.2672   0.3259     C
C       0.0788   0.2672   0.6741     C
H       0.0804    0.453   0.4055     H
H       0.0804    0.453   0.5945     H
H        0.084   0.9383   0.1385     H
H        0.084   0.9383   0.8615     H
S       0.0896   0.6988      0.0     S
H       0.0922   0.4593   0.3171     H
H       0.0922   0.4593   0.6829     H
N       0.0939   0.3173  0.19533     N
N       0.0939   0.3173  0.80467     N
C       0.1005   0.9845   0.1429     C
C       0.1005   0.9845   0.8571     C
H       0.1008   0.0233   0.0676     H
H       0.1008   0.0233   0.9324     H
C       0.1013   0.6754   0.3297     C
C       0.1013   0.6754   0.6703     C
C       0.1027   0.2641   0.1722     C
C       0.1027   0.2641   0.8278     C
H       0.1067   0.6261    0.329     H
H       0.1067   0.6261    0.671     H
C       0.1073   0.4898   0.3939     C
C       0.1073   0.4898   0.6061     C
Cd     0.10872  0.82015      0.5    Cd
N       0.1129   0.1685  0.04734     N
N       0.1129   0.1685  0.95266     N
H       0.1161   0.6927   0.3552     H
H       0.1161   0.6927   0.6448     H
H       0.1185   0.9884   0.1695     H
H       0.1185   0.9884   0.8305     H
H       0.1209   0.1608   0.1731     H
H       0.1209   0.1608   0.8269     H
H       0.1288   0.6959   0.3089     H
H       0.1288   0.6959   0.6911     H
H       0.1323   0.1958   0.2149     H
H       0.1323   0.1958   0.7851     H
C       0.1332    0.209   0.0778     C
C       0.1332    0.209   0.9222     C
N       0.1335   0.4507  0.32537     N
N       0.1335   0.4507  0.67463     N
H        0.134   0.5119   0.4145     H
H        0.134   0.5119   0.5855     H
H       0.1382   0.2047     0.36     H
H       0.1382   0.2047     0.64     H
H       0.1386   0.6272   0.1858     H
H       0.1386   0.6272   0.8142     H
H       0.1387   0.9814   0.4642     H
H       0.1387   0.9814   0.5358     H
C       0.1391   0.2007   0.1866     C
C       0.1391   0.2007   0.8134     C
N       0.1421     0.02  0.07708     N
N       0.1421     0.02  0.92292     N
C       0.1452   0.2335    0.337     C
C       0.1452   0.2335    0.663     C
H       0.1498   0.5224   0.0823     H
H       0.1498   0.5224   0.9177     H
H       0.1524   0.5213   0.2266     H
H       0.1524   0.5213   0.7734     H
C       0.1546   0.4609    0.363     C
C       0.1546   0.4609    0.637     C
C       0.1555   0.0002   0.1141     C
C       0.1555   0.0002   0.8859     C
Cd      0.1579  0.35578  0.24915    Cd
Cd      0.1579  0.35578  0.75085    Cd
N       0.1597   0.7203      0.5     N
H       0.1608   0.8791   0.3269     H
H       0.1608   0.8791   0.6731     H
H       0.1611   0.2057   0.3151     H
H       0.1611   0.2057   0.6849     H
H       0.1613   0.0768   0.4195     H
H       0.1613   0.0768   0.5805     H
N       0.1633   0.9558  0.44865     N
N       0.1633   0.9558  0.55135     N
H       0.1659    0.601   0.0755     H
H       0.1659    0.601   0.9245     H
N       0.1685   0.8871  0.45266     N
N       0.1685   0.8871  0.54734     N
C       0.1733   0.6856      0.0     C
H       0.1743   0.5483   0.0402     H
H       0.1743   0.5483   0.9598     H
C       0.1745   0.6647      0.5     C
N       0.1771   0.5053  0.20725     N
N       0.1771   0.5053  0.79275     N
H        0.179   0.2683    0.343     H
H        0.179   0.2683    0.657     H
C       0.1791   0.5547   0.0685     C
C       0.1791   0.5547   0.9315     C
Cd     0.17985  0.10872      0.0    Cd
C       0.1835   0.6188   0.1745     C
C       0.1835   0.6188   0.8255     C
H       0.1838   0.6333    0.147     H
H       0.1838   0.6333    0.853     H
N       0.1851   0.4252  0.30159     N
N       0.1851   0.4252  0.69841     N
H       0.1877   0.2046   0.1811     H
H       0.1877   0.2046   0.8189     H
S       0.1889   0.5807      0.5     S
H       0.1941   0.7743   0.3966     H
H       0.1941   0.7743   0.6034     H
H       0.1958   0.8677   0.2851     H
H       0.1958   0.8677   0.7149     H
N       0.1968   0.4395  0.20474     N
N       0.1968   0.4395  0.79526     N
H       0.1978     0.06   0.3788     H
H       0.1978     0.06   0.6212     H
N       0.1995   0.0347  0.05546     N
N       0.1995   0.0347  0.94454     N
C       0.1995   0.5442   0.1768     C
C       0.1995   0.5442   0.8232     C
C       0.2006   0.0548   0.4073     C
C       0.2006   0.0548   0.5927     C
C       0.2007   0.8609   0.3134     C
C       0.2007   0.8609   0.6866     C
C       0.2008    0.981   0.4175     C
C       0.2008    0.981   0.5825     C
H       0.2046   0.8123   0.3189     H
H       0.2046   0.8123   0.6811     H
H       0.2047   0.8618     0.14     H
H       0.2047   0.8618     0.86     H
H       0.2057   0.8389   0.1849     H
H       0.2057   0.8389   0.8151     H
C       0.2067    0.225   0.0838     C
C       0.2067    0.225   0.9162     C
C        0.209   0.8668   0.4222     C
C        0.209   0.8668   0.5778     C
H       0.2114   0.2718   0.0929     H
H       0.2114   0.2718   0.9071     H
H       0.2177   0.6445   0.1891     H
H       0.2177   0.6445   0.8109     H
H       0.2194   0.7689    0.441     H
H       0.2194   0.7689    0.559     H
C       0.2209   0.4413   0.3646     C
C       0.2209   0.4413   0.6354     C
H       0.2213   0.3086   0.4032     H
H       0.2213   0.3086   0.5968     H
C        0.225   0.7933   0.4162     C
C        0.225   0.7933   0.5838     C
H       0.2257   0.1941   0.1034     H
H       0.2257   0.1941   0.8966     H
C        0.226    0.002    0.118     C
C        0.226    0.002    0.882     C
C       0.2306    0.924   0.4009     C
C       0.2306    0.924   0.5991     C
H       0.2311   0.2194    0.059     H
H       0.2311   0.2194    0.941     H
C       0.2335   0.8548    0.163     C
C       0.2335   0.8548    0.837     C
N       0.2336   0.6807      0.0     N
C       0.2343   0.4369   0.1709     C
C       0.2343   0.4369   0.8291     C
C       0.2365   0.5006   0.1525     C
C       0.2365   0.5006   0.8475     C
C       0.2388   0.4192   0.3269     C
C       0.2388   0.4192   0.6731     C
H       0.2424    0.076   0.4169     H
H       0.2424    0.076   0.5831     H
N        0.246   0.2828    0.247     N
N        0.246   0.2828    0.753     N
H       0.2499   0.3623   0.1299     H
H       0.2499   0.3623   0.8701     H
H       0.2501   0.3341   0.1739     H
H       0.2501   0.3341   0.8261     H
C       0.2509   0.0238   0.0811     C
C       0.2509   0.0238   0.9189     C
C       0.2527   0.5427   0.0803     C
C       0.2527   0.5427   0.9197     C
H       0.2532   0.5878   0.4143     H
H       0.2532   0.5878   0.5857     H
S      0.26179  0.61937  0.27696     S
S      0.26179  0.61937  0.72304     S
C       0.2641   0.8973   0.3278     C
C       0.2641   0.8973   0.6722     C
C       0.2643   0.9846   0.1545     C
C       0.2643   0.9846   0.8455     C
C       0.2649   0.3713   0.1568     C
C       0.2649   0.3713   0.8432     C
H       0.2665   0.2858   0.4399     H
H       0.2665   0.2858   0.5601     H
C       0.2665   0.3107    0.415     C
C       0.2665   0.3107    0.585     C
C       0.2669   0.4405   0.3996     C
C       0.2669   0.4405   0.6004     C
C       0.2672   0.9212   0.1741     C
C       0.2672   0.9212   0.8259     C
H       0.2683    0.821    0.157     H
H       0.2683    0.821    0.843     H
H       0.2718   0.7886   0.4071     H
H       0.2718   0.7886   0.5929     H
C       0.2753   0.5185   0.1168     C
C       0.2753   0.5185   0.8832     C
C       0.2762   0.6967   0.2632     C
C       0.2762   0.6967   0.7368     C
C       0.2765   0.9248   0.3659     C
C       0.2765   0.9248   0.6341     C
N       0.2797   0.1597      0.0     N
N       0.2828    0.754    0.253     N
N       0.2828    0.754    0.747     N
C       0.2849   0.3821   0.4223     C
C       0.2849   0.3821   0.5777     C
H       0.2858   0.7335   0.0601     H
H       0.2858   0.7335   0.9399     H
H       0.2903   0.7004   0.1028     H
H       0.2903   0.7004   0.8972     H
C       0.2971   0.5681   0.4071     C
C       0.2971   0.5681   0.5929     C
C       0.2982   0.4959    0.418     C
C       0.2982   0.4959    0.582     C
H       0.2996   0.2903   0.3972     H
H       0.2996   0.2903   0.6028     H
S       0.3012   0.0896      0.5     S
C       0.3033   0.2762   0.2368     C
C       0.3033   0.2762   0.7632     C
H       0.3038   0.3918   0.2835     H
H       0.3038   0.3918   0.7165     H
N       0.3039   0.5489  0.05465     N
N       0.3039   0.5489  0.94535     N
H       0.3039   0.5724   0.3787     H
H       0.3039   0.5724   0.6213     H
H       0.3041   0.1288   0.1911     H
H       0.3041   0.1288   0.8089     H
C       0.3061   0.3978   0.3119     C
C       0.3061   0.3978   0.6881     C
C       0.3069    0.028   0.1766     C
C       0.3069    0.028   0.8234     C
N       0.3072   0.9257  0.20593     N
N       0.3072   0.9257  0.79407     N
H       0.3073   0.1161   0.1448     H
H       0.3073   0.1161   0.8552     H
H       0.3086   0.7787   0.0968     H
H       0.3086   0.7787   0.9032     H
C       0.3107   0.7335    0.085     C
C       0.3107   0.7335    0.915     C
C       0.3144   0.1733      0.5     C
H       0.3144   0.3746   0.1574     H
H       0.3144   0.3746   0.8426     H
N       0.3173   0.9061  0.30467     N
N       0.3173   0.9061  0.69533     N
H       0.3192   0.3549   0.3243     H
H       0.3192   0.3549   0.6757     H
N       0.3193   0.2336      0.5     N
C       0.3243   0.0331   0.0677     C
C       0.3243   0.0331   0.9323     C
C       0.3246   0.1013   0.1703     C
C       0.3246   0.1013   0.8297     C
N       0.3252   0.4011  0.45211     N
N       0.3252   0.4011  0.54789     N
H       0.3262   0.0682   0.0474     H
H       0.3262   0.0682   0.9526     H
Cd     0.32864  0.62227      0.0    Cd
N       0.3309    0.991  0.20616     N
N       0.3309    0.991  0.79384     N
N       0.3318   0.4694  0.44911     N
N       0.3318   0.4694  0.55089     N
H       0.3334    0.592   0.4209     H
H       0.3334    0.592   0.5791     H
H       0.3341   0.7499   0.3261     H
H       0.3341   0.7499   0.6739     H
C       0.3353   0.1745      0.0     C
H       0.3399   0.4327   0.3182     H
H       0.3399   0.4327   0.6818     H
H       0.3415   0.9903   0.0571     H
H       0.3415   0.9903   0.9429     H
C        0.342   0.9528   0.3633     C
C        0.342   0.9528   0.6367     C
C       0.3464   0.5118   0.1126     C
C       0.3464   0.5118   0.8874     C
H       0.3523    0.047   0.0901     H
H       0.3523    0.047   0.9099     H
H       0.3549   0.6808   0.1757     H
H       0.3549   0.6808   0.8243     H
H       0.3554    0.494   0.4657     H
H       0.3554    0.494   0.5343     H
H       0.3555   0.2177   0.3109     H
H       0.3555   0.2177   0.6891     H
Cd     0.35578   0.8421  0.25085    Cd
Cd     0.35578   0.8421  0.74915    Cd
H       0.3591   0.0068   0.2239     H
H       0.3591   0.0068   0.7761     H
N       0.3602     0.53  0.07545     N
N       0.3602     0.53  0.92455     N
H       0.3623   0.7501   0.3701     H
H       0.3623   0.7501   0.6299     H
N        0.364   0.9399  0.32649     N
N        0.364   0.9399  0.67351     N
H       0.3654   0.9808   0.4201     H
H       0.3654   0.9808   0.5799     H
H       0.3667   0.1838    0.353     H
H       0.3667   0.1838    0.647     H
C       0.3713   0.7351   0.3432     C
C       0.3713   0.7351   0.6568     C
H       0.3728   0.1386   0.3142     H
H       0.3728   0.1386   0.6858     H
H       0.3739   0.1067    0.171     H
H       0.3739   0.1067    0.829     H
H       0.3746   0.6856   0.3426     H
H       0.3746   0.6856   0.6574     H
Cd     0.37773  0.32864      0.5    Cd
S      0.38063  0.26179  0.22304     S
S      0.38063  0.26179  0.77696     S
C       0.3812   0.1835   0.3255     C
C       0.3812   0.1835   0.6745     C
C       0.3821   0.7151   0.0777     C
C       0.3821   0.7151   0.9223     C
C       0.3862   0.9866   0.3943     C
C       0.3862   0.9866   0.6057     C
H       0.3905    0.035   0.3884     H
H       0.3905    0.035   0.6116     H
H       0.3918   0.6962   0.2165     H
H       0.3918   0.6962   0.7835     H
H       0.3929   0.4446     0.15     H
H       0.3929   0.4446     0.85     H
C       0.3978   0.6939   0.1881     C
C       0.3978   0.6939   0.8119     C
H        0.399   0.1659   0.4245     H
H        0.399   0.1659   0.5755     H
H       0.4005   0.5217   0.1638     H
H       0.4005   0.5217   0.8362     H
C       0.4011   0.4911   0.1412     C
C       0.4011   0.4911   0.8588     C
N       0.4011   0.6748  0.04789     N
N       0.4011   0.6748  0.95211     N
H       0.4013   0.5298   0.0655     H
H       0.4013   0.5298   0.9345     H
H        0.404   0.9521   0.3177     H
H        0.404   0.9521   0.6823     H
H        0.408   0.3334   0.0791     H
H        0.408   0.3334   0.9209     H
H       0.4122   0.2532   0.0857     H
H       0.4122   0.2532   0.9143     H
C       0.4192   0.7612   0.1731     C
C       0.4192   0.7612   0.8269     C
S       0.4193   0.1889      0.0     S
N       0.4252   0.8149  0.19841     N
N       0.4252   0.8149  0.80159     N
H       0.4276   0.3039   0.1213     H
H       0.4276   0.3039   0.8787     H
H       0.4313   0.9657   0.3942     H
H       0.4313   0.9657   0.6058     H
C       0.4319   0.2971   0.0929     C
C       0.4319   0.2971   0.9071     C
H       0.4327   0.6601   0.1818     H
H       0.4327   0.6601   0.8182     H
C       0.4369   0.7657   0.3291     C
C       0.4369   0.7657   0.6709     C
N       0.4395   0.8032  0.29526     N
N       0.4395   0.8032  0.70474     N
C       0.4405   0.7331   0.1004     C
C       0.4405   0.7331   0.8996     C
C       0.4413   0.7791   0.1354     C
C       0.4413   0.7791   0.8646     C
H       0.4446   0.6071     0.35     H
H       0.4446   0.6071     0.65     H
C       0.4453   0.1791   0.4315     C
C       0.4453   0.1791   0.5685     C
H       0.4454   0.4937   0.1283     H
H       0.4454   0.4937   0.8717     H
N       0.4507   0.8665  0.17463     N
N       0.4507   0.8665  0.82537     N
N       0.4511   0.3039  0.44535     N
N       0.4511   0.3039  0.55465     N
H       0.4517   0.1743   0.4598     H
H       0.4517   0.1743   0.5402     H
H        0.453   0.9196   0.0945     H
H        0.453   0.9196   0.9055     H
C       0.4558   0.1995   0.3232     C
C       0.4558   0.1995   0.6768     C
C       0.4573   0.2527   0.4197     C
C       0.4573   0.2527   0.5803     C
H       0.4593   0.9078   0.1829     H
H       0.4593   0.9078   0.8171     H
C       0.4609   0.8454    0.137     C
C       0.4609   0.8454    0.863     C
N       0.4694   0.6682  0.05089     N
N       0.4694   0.6682  0.94911     N
N         0.47   0.3602  0.42455     N
N         0.47   0.3602  0.57545     N
H       0.4702   0.4013   0.4345     H
H       0.4702   0.4013   0.5655     H
H        0.477   0.0769   0.1182     H
H        0.477   0.0769   0.8818     H
H       0.4776   0.1498   0.4177     H
H       0.4776   0.1498   0.5823     H
H       0.4783   0.4005   0.3362     H
H       0.4783   0.4005   0.6638     H
H       0.4787   0.1524   0.2734     H
H       0.4787   0.1524   0.7266     H
C       0.4815   0.2753   0.3832     C
C       0.4815   0.2753   0.6168     C
H       0.4881    0.134   0.0855     H
H       0.4881    0.134   0.9145     H
C       0.4882   0.3464   0.3874     C
C       0.4882   0.3464   0.6126     C
C       0.4898   0.8927   0.1061     C
C       0.4898   0.8927   0.8939     C
C       0.4911   0.5989   0.3588     C
C       0.4911   0.5989   0.6412     C
H       0.4937   0.5546   0.3717     H
H       0.4937   0.5546   0.6283     H
H        0.494   0.6446   0.0343     H
H        0.494   0.6446   0.9657     H
N       0.4947   0.1771  0.29275     N
N       0.4947   0.1771  0.70725     N
C       0.4959   0.7018    0.082     C
C       0.4959   0.7018    0.918     C
C       0.4994   0.2365   0.3475     C
C       0.4994   0.2365   0.6525     C
C       0.5006   0.7635   0.3475     C
C       0.5006   0.7635   0.6525     C
C       0.5041   0.2982    0.082     C
C       0.5041   0.2982    0.918     C
N       0.5053   0.8229  0.29275     N
N       0.5053   0.8229  0.70725     N
H        0.506   0.3554   0.0343     H
H        0.506   0.3554   0.9657     H
H       0.5063   0.4454   0.3717     H
H       0.5063   0.4454   0.6283     H
C       0.5089   0.4011   0.3588     C
C       0.5089   0.4011   0.6412     C
C       0.5102   0.1073   0.1061     C
C       0.5102   0.1073   0.8939     C
C       0.5118   0.6536   0.3874     C
C       0.5118   0.6536   0.6126     C
H       0.5119    0.866   0.0855     H
H       0.5119    0.866   0.9145     H
C       0.5185   0.7247   0.3832     C
C       0.5185   0.7247   0.6168     C
H       0.5213   0.8476   0.2734     H
H       0.5213   0.8476   0.7266     H
H       0.5217   0.5995   0.3362     H
H       0.5217   0.5995   0.6638     H
H       0.5224   0.8502   0.4177     H
H       0.5224   0.8502   0.5823     H
H        0.523   0.9231   0.1182     H
H        0.523   0.9231   0.8818     H
H       0.5298   0.5987   0.4345     H
H       0.5298   0.5987   0.5655     H
N         0.53   0.6398  0.42455     N
N         0.53   0.6398  0.57545     N
N       0.5306   0.3318  0.05089     N
N       0.5306   0.3318  0.94911     N
C       0.5391   0.1546    0.137     C
C       0.5391   0.1546    0.863     C
H       0.5407   0.0922   0.1829     H
H       0.5407   0.0922   0.8171     H
C       0.5427   0.7473   0.4197     C
C       0.5427   0.7473   0.5803     C
C       0.5442   0.8005   0.3232     C
C       0.5442   0.8005   0.6768     C
H        0.547   0.0804   0.0945     H
H        0.547   0.0804   0.9055     H
H       0.5483   0.8257   0.4598     H
H       0.5483   0.8257   0.5402     H
N       0.5489   0.6961  0.44535     N
N       0.5489   0.6961  0.55465     N
N       0.5493   0.1335  0.17463     N
N       0.5493   0.1335  0.82537     N
H       0.5546   0.5063   0.1283     H
H       0.5546   0.5063   0.8717     H
C       0.5547   0.8209   0.4315     C
C       0.5547   0.8209   0.5685     C
H       0.5554   0.3929     0.35     H
H       0.5554   0.3929     0.65     H
C       0.5587   0.2209   0.1354     C
C       0.5587   0.2209   0.8646     C
C       0.5595   0.2669   0.1004     C
C       0.5595   0.2669   0.8996     C
N       0.5605   0.1968  0.29526     N
N       0.5605   0.1968  0.70474     N
C       0.5631   0.2343   0.3291     C
C       0.5631   0.2343   0.6709     C
H       0.5673   0.3399   0.1818     H
H       0.5673   0.3399   0.8182     H
C       0.5681   0.7029   0.0929     C
C       0.5681   0.7029   0.9071     C
H       0.5687   0.0343   0.3942     H
H       0.5687   0.0343   0.6058     H
H       0.5724   0.6961   0.1213     H
H       0.5724   0.6961   0.8787     H
N       0.5748   0.1851  0.19841     N
N       0.5748   0.1851  0.80159     N
S       0.5807   0.8111      0.0     S
C       0.5808   0.2388   0.1731     C
C       0.5808   0.2388   0.8269     C
H       0.5878   0.7468   0.0857     H
H       0.5878   0.7468   0.9143     H
H        0.592   0.6666   0.0791     H
H        0.592   0.6666   0.9209     H
H        0.596   0.0479   0.3177     H
H        0.596   0.0479   0.6823     H
H       0.5987   0.4702   0.0655     H
H       0.5987   0.4702   0.9345     H
N       0.5989   0.3252  0.04789     N
N       0.5989   0.3252  0.95211     N
C       0.5989   0.5089   0.1412     C
C       0.5989   0.5089   0.8588     C
H       0.5995   0.4783   0.1638     H
H       0.5995   0.4783   0.8362     H
H        0.601   0.8341   0.4245     H
H        0.601   0.8341   0.5755     H
C       0.6022   0.3061   0.1881     C
C       0.6022   0.3061   0.8119     C
H       0.6071   0.5554     0.15     H
H       0.6071   0.5554     0.85     H
H       0.6082   0.3038   0.2165     H
H       0.6082   0.3038   0.7835     H
H       0.6095    0.965   0.3884     H
H       0.6095    0.965   0.6116     H
C       0.6138   0.0134   0.3943     C
C       0.6138   0.0134   0.6057     C
C       0.6179   0.2849   0.0777     C
C       0.6179   0.2849   0.9223     C
C       0.6188   0.8165   0.3255     C
C       0.6188   0.8165   0.6745     C
S      0.61937  0.73821  0.22304     S
S      0.61937  0.73821  0.77696     S
Cd     0.62227  0.67136      0.5    Cd
H       0.6254   0.3144   0.3426     H
H       0.6254   0.3144   0.6574     H
H       0.6261   0.8933    0.171     H
H       0.6261   0.8933    0.829     H
H       0.6272   0.8614   0.3142     H
H       0.6272   0.8614   0.6858     H
C       0.6287   0.2649   0.3432     C
C       0.6287   0.2649   0.6568     C
H       0.6333   0.8162    0.353     H
H       0.6333   0.8162    0.647     H
H       0.6346   0.0192   0.4201     H
H       0.6346   0.0192   0.5799     H
N        0.636   0.0601  0.32649     N
N        0.636   0.0601  0.67351     N
H       0.6377   0.2499   0.3701     H
H       0.6377   0.2499   0.6299     H
N       0.6398     0.47  0.07545     N
N       0.6398     0.47  0.92455     N
H       0.6409   0.9932   0.2239     H
H       0.6409   0.9932   0.7761     H
Cd     0.64422   0.1579  0.25085    Cd
Cd     0.64422   0.1579  0.74915    Cd
H       0.6445   0.7823   0.3109     H
H       0.6445   0.7823   0.6891     H
H       0.6446    0.506   0.4657     H
H       0.6446    0.506   0.5343     H
H       0.6451   0.3192   0.1757     H
H       0.6451   0.3192   0.8243     H
H       0.6477    0.953   0.0901     H
H       0.6477    0.953   0.9099     H
C       0.6536   0.4882   0.1126     C
C       0.6536   0.4882   0.8874     C
C        0.658   0.0472   0.3633     C
C        0.658   0.0472   0.6367     C
H       0.6585   0.0097   0.0571     H
H       0.6585   0.0097   0.9429     H
H       0.6601   0.5673   0.3182     H
H       0.6601   0.5673   0.6818     H
C       0.6647   0.8255      0.0     C
H       0.6659   0.2501   0.3261     H
H       0.6659   0.2501   0.6739     H
H       0.6666    0.408   0.4209     H
H       0.6666    0.408   0.5791     H
N       0.6682   0.5306  0.44911     N
N       0.6682   0.5306  0.55089     N
N       0.6691    0.009  0.20616     N
N       0.6691    0.009  0.79384     N
Cd     0.67136  0.37773      0.0    Cd
H       0.6738   0.9318   0.0474     H
H       0.6738   0.9318   0.9526     H
N       0.6748   0.5989  0.45211     N
N       0.6748   0.5989  0.54789     N
C       0.6754   0.8987   0.1703     C
C       0.6754   0.8987   0.8297     C
C       0.6757   0.9669   0.0677     C
C       0.6757   0.9669   0.9323     C
N       0.6807   0.7664      0.5     N
H       0.6808   0.6451   0.3243     H
H       0.6808   0.6451   0.6757     H
N       0.6827   0.0939  0.30467     N
N       0.6827   0.0939  0.69533     N
H       0.6856   0.6254   0.1574     H
H       0.6856   0.6254   0.8426     H
C       0.6856   0.8267      0.5     C
C       0.6893   0.2665    0.085     C
C       0.6893   0.2665    0.915     C
H       0.6914   0.2213   0.0968     H
H       0.6914   0.2213   0.9032     H
H       0.6927   0.8839   0.1448     H
H       0.6927   0.8839   0.8552     H
N       0.6928   0.0743  0.20593     N
N       0.6928   0.0743  0.79407     N
C       0.6931    0.972   0.1766     C
C       0.6931    0.972   0.8234     C
C       0.6939   0.6022   0.3119     C
C       0.6939   0.6022   0.6881     C
H       0.6959   0.8712   0.1911     H
H       0.6959   0.8712   0.8089     H
H       0.6961   0.4276   0.3787     H
H       0.6961   0.4276   0.6213     H
N       0.6961   0.4511  0.05465     N
N       0.6961   0.4511  0.94535     N
H       0.6962   0.6082   0.2835     H
H       0.6962   0.6082   0.7165     H
C       0.6967   0.7238   0.2368     C
C       0.6967   0.7238   0.7632     C
S       0.6988   0.9104      0.5     S
H       0.7004   0.7097   0.3972     H
H       0.7004   0.7097   0.6028     H
C       0.7018   0.5041    0.418     C
C       0.7018   0.5041    0.582     C
C       0.7029   0.4319   0.4071     C
C       0.7029   0.4319   0.5929     C
H       0.7097   0.2996   0.1028     H
H       0.7097   0.2996   0.8972     H
H       0.7142   0.2665   0.0601     H
H       0.7142   0.2665   0.9399     H
C       0.7151   0.6179   0.4223     C
C       0.7151   0.6179   0.5777     C
N       0.7172    0.246    0.253     N
N       0.7172    0.246    0.747     N
N       0.7203   0.8403      0.0     N
C       0.7235   0.0752   0.3659     C
C       0.7235   0.0752   0.6341     C
C       0.7238   0.3033   0.2632     C
C       0.7238   0.3033   0.7368     C
C       0.7247   0.4815   0.1168     C
C       0.7247   0.4815   0.8832     C
H       0.7282   0.2114   0.4071     H
H       0.7282   0.2114   0.5929     H
H       0.7317    0.179    0.157     H
H       0.7317    0.179    0.843     H
C       0.7328   0.0788   0.1741     C
C       0.7328   0.0788   0.8259     C
C       0.7331   0.5595   0.3996     C
C       0.7331   0.5595   0.6004     C
C       0.7335   0.6893    0.415     C
C       0.7335   0.6893    0.585     C
H       0.7335   0.7142   0.4399     H
H       0.7335   0.7142   0.5601     H
C       0.7351   0.6287   0.1568     C
C       0.7351   0.6287   0.8432     C
C       0.7357   0.0154   0.1545     C
C       0.7357   0.0154   0.8455     C
C       0.7359   0.1027   0.3278     C
C       0.7359   0.1027   0.6722     C
S      0.73821  0.38063  0.27696     S
S      0.73821  0.38063  0.72304     S
H       0.7468   0.4122   0.4143     H
H       0.7468   0.4122   0.5857     H
C       0.7473   0.4573   0.0803     C
C       0.7473   0.4573   0.9197     C
C       0.7491   0.9762   0.0811     C
C       0.7491   0.9762   0.9189     C
H       0.7499   0.6659   0.1739     H
H       0.7499   0.6659   0.8261     H
H       0.7501   0.6377   0.1299     H
H       0.7501   0.6377   0.8701     H
N        0.754   0.7172    0.247     N
N        0.754   0.7172    0.753     N
H       0.7576    0.924   0.4169     H
H       0.7576    0.924   0.5831     H
C       0.7612   0.5808   0.3269     C
C       0.7612   0.5808   0.6731     C
C       0.7635   0.4994   0.1525     C
C       0.7635   0.4994   0.8475     C
C       0.7657   0.5631   0.1709     C
C       0.7657   0.5631   0.8291     C
N       0.7664   0.3193      0.0     N
C       0.7665   0.1452    0.163     C
C       0.7665   0.1452    0.837     C
H       0.7689   0.7806    0.059     H
H       0.7689   0.7806    0.941     H
C       0.7694    0.076   0.4009     C
C       0.7694    0.076   0.5991     C
C        0.774    0.998    0.118     C
C        0.774    0.998    0.882     C
H       0.7743   0.8059   0.1034     H
H       0.7743   0.8059   0.8966     H
C        0.775   0.2067   0.4162     C
C        0.775   0.2067   0.5838     C
H       0.7787   0.6914   0.4032     H
H       0.7787   0.6914   0.5968     H
C       0.7791   0.5587   0.3646     C
C       0.7791   0.5587   0.6354     C
H       0.7806   0.2311    0.441     H
H       0.7806   0.2311    0.559     H
H       0.7823   0.3555   0.1891     H
H       0.7823   0.3555   0.8109     H
H       0.7886   0.7282   0.0929     H
H       0.7886   0.7282   0.9071     H
C        0.791   0.1332   0.4222     C
C        0.791   0.1332   0.5778     C
C       0.7933    0.775   0.0838     C
C       0.7933    0.775   0.9162     C
H       0.7943   0.1611   0.1849     H
H       0.7943   0.1611   0.8151     H
H       0.7953   0.1382     0.14     H
H       0.7953   0.1382     0.86     H
H       0.7954   0.1877   0.3189     H
H       0.7954   0.1877   0.6811     H
C       0.7992    0.019   0.4175     C
C       0.7992    0.019   0.5825     C
C       0.7993   0.1391   0.3134     C
C       0.7993   0.1391   0.6866     C
C       0.7994   0.9452   0.4073     C
C       0.7994   0.9452   0.5927     C
C       0.8005   0.4558   0.1768     C
C       0.8005   0.4558   0.8232     C
N       0.8005   0.9653  0.05546     N
N       0.8005   0.9653  0.94454     N
H       0.8022     0.94   0.3788     H
H       0.8022     0.94   0.6212     H
N       0.8032   0.5605  0.20474     N
N       0.8032   0.5605  0.79526     N
H       0.8042   0.1323   0.2851     H
H       0.8042   0.1323   0.7149     H
H       0.8059   0.2257   0.3966     H
H       0.8059   0.2257   0.6034     H
S       0.8111   0.4193      0.5     S
H       0.8123   0.7954   0.1811     H
H       0.8123   0.7954   0.8189     H
N       0.8149   0.5748  0.30159     N
N       0.8149   0.5748  0.69841     N
H       0.8162   0.3667    0.147     H
H       0.8162   0.3667    0.853     H
C       0.8165   0.3812   0.1745     C
C       0.8165   0.3812   0.8255     C
Cd     0.82015  0.89128      0.0    Cd
C       0.8209   0.4453   0.0685     C
C       0.8209   0.4453   0.9315     C
H        0.821   0.7317    0.343     H
H        0.821   0.7317    0.657     H
N       0.8229   0.4947  0.20725     N
N       0.8229   0.4947  0.79275     N
C       0.8255   0.3353      0.5     C
H       0.8257   0.4517   0.0402     H
H       0.8257   0.4517   0.9598     H
C       0.8267   0.3144      0.0     C
N       0.8315   0.1129  0.45266     N
N       0.8315   0.1129  0.54734     N
H       0.8341    0.399   0.0755     H
H       0.8341    0.399   0.9245     H
N       0.8367   0.0442  0.44865     N
N       0.8367   0.0442  0.55135     N
H       0.8387   0.9232   0.4195     H
H       0.8387   0.9232   0.5805     H
H       0.8389   0.7943   0.3151     H
H       0.8389   0.7943   0.6849     H
H       0.8392   0.1209   0.3269     H
H       0.8392   0.1209   0.6731     H
N       0.8403   0.2797      0.5     N
Cd      0.8421  0.64422  0.24915    Cd
Cd      0.8421  0.64422  0.75085    Cd
C       0.8445   0.9998   0.1141     C
C       0.8445   0.9998   0.8859     C
C       0.8454   0.5391    0.363     C
C       0.8454   0.5391    0.637     C
H       0.8476   0.4787   0.2266     H
H       0.8476   0.4787   0.7734     H
H       0.8502   0.4776   0.0823     H
H       0.8502   0.4776   0.9177     H
C       0.8548   0.7665    0.337     C
C       0.8548   0.7665    0.663     C
N       0.8579     0.98  0.07708     N
N       0.8579     0.98  0.92292     N
C       0.8609   0.7993   0.1866     C
C       0.8609   0.7993   0.8134     C
H       0.8613   0.0186   0.4642     H
H       0.8613   0.0186   0.5358     H
H       0.8614   0.3728   0.1858     H
H       0.8614   0.3728   0.8142     H
H       0.8618   0.7953     0.36     H
H       0.8618   0.7953     0.64     H
H        0.866   0.4881   0.4145     H
H        0.866   0.4881   0.5855     H
N       0.8665   0.5493  0.32537     N
N       0.8665   0.5493  0.67463     N
C       0.8668    0.791   0.0778     C
C       0.8668    0.791   0.9222     C
H       0.8677   0.8042   0.2149     H
H       0.8677   0.8042   0.7851     H
H       0.8712   0.3041   0.3089     H
H       0.8712   0.3041   0.6911     H
H       0.8791   0.8392   0.1731     H
H       0.8791   0.8392   0.8269     H
H       0.8815   0.0116   0.1695     H
H       0.8815   0.0116   0.8305     H
H       0.8839   0.3073   0.3552     H
H       0.8839   0.3073   0.6448     H
N       0.8871   0.8315  0.04734     N
N       0.8871   0.8315  0.95266     N
Cd     0.89128  0.17985      0.5    Cd
C       0.8927   0.5102   0.3939     C
C       0.8927   0.5102   0.6061     C
H       0.8933   0.3739    0.329     H
H       0.8933   0.3739    0.671     H
C       0.8973   0.7359   0.1722     C
C       0.8973   0.7359   0.8278     C
C       0.8987   0.3246   0.3297     C
C       0.8987   0.3246   0.6703     C
H       0.8992   0.9767   0.0676     H
H       0.8992   0.9767   0.9324     H
C       0.8995   0.0155   0.1429     C
C       0.8995   0.0155   0.8571     C
N       0.9061   0.6827  0.19533     N
N       0.9061   0.6827  0.80467     N
H       0.9078   0.5407   0.3171     H
H       0.9078   0.5407   0.6829     H
S       0.9104   0.3012      0.0     S
H        0.916   0.0617   0.1385     H
H        0.916   0.0617   0.8615     H
H       0.9196    0.547   0.4055     H
H       0.9196    0.547   0.5945     H
C       0.9212   0.7328   0.3259     C
C       0.9212   0.7328   0.6741     C
H       0.9231    0.477   0.3818     H
H       0.9231    0.477   0.6182     H
H       0.9232   0.1613   0.0805     H
H       0.9232   0.1613   0.9195     H
H        0.924   0.2424   0.0831     H
H        0.924   0.2424   0.9169     H
C        0.924   0.7694   0.0991     C
C        0.924   0.7694   0.9009     C
C       0.9248   0.7235   0.1341     C
C       0.9248   0.7235   0.8659     C
N       0.9257   0.6928  0.29407     N
N       0.9257   0.6928  0.70593     N
H       0.9318   0.3262   0.4526     H
H       0.9318   0.3262   0.5474     H
H       0.9369   0.9833   0.1394     H
H       0.9369   0.9833   0.8606     H
H       0.9383    0.916   0.3615     H
H       0.9383    0.916   0.6385     H
N       0.9399    0.636  0.17351     N
N       0.9399    0.636  0.82649     N
H         0.94   0.1978   0.1212     H
H         0.94   0.1978   0.8788     H
C       0.9452   0.2006   0.0927     C
C       0.9452   0.2006   0.9073     C
H       0.9521    0.596   0.1823     H
H       0.9521    0.596   0.8177     H
C       0.9528    0.658   0.1367     C
C       0.9528    0.658   0.8633     C
H        0.953   0.3523   0.4099     H
H        0.953   0.3523   0.5901     H
N       0.9558   0.8367  0.05135     N
N       0.9558   0.8367  0.94865     N
H        0.965   0.3905   0.1116     H
H        0.965   0.3905   0.8884     H
N       0.9653   0.1995  0.44454     N
N       0.9653   0.1995  0.55546     N
H       0.9657   0.5687   0.1058     H
H       0.9657   0.5687   0.8942     H
C       0.9669   0.3243   0.4323     C
C       0.9669   0.3243   0.5677     C
C        0.972   0.3069   0.3234     C
C        0.972   0.3069   0.6766     C
C       0.9762   0.2509   0.4189     C
C       0.9762   0.2509   0.5811     C
H       0.9767   0.1008   0.4324     H
H       0.9767   0.1008   0.5676     H
N         0.98   0.1421  0.42292     N
N         0.98   0.1421  0.57708     N
H       0.9808   0.6346   0.0799     H
H       0.9808   0.6346   0.9201     H
C        0.981   0.7992   0.0825     C
C        0.981   0.7992   0.9175     C
H       0.9814   0.8613   0.0358     H
H       0.9814   0.8613   0.9642     H
H       0.9833   0.0631   0.3606     H
H       0.9833   0.0631   0.6394     H
C       0.9845   0.8995   0.3571     C
C       0.9845   0.8995   0.6429     C
C       0.9846   0.7357   0.3455     C
C       0.9846   0.7357   0.6545     C
C       0.9866   0.6138   0.1057     C
C       0.9866   0.6138   0.8943     C
H       0.9884   0.8815   0.3305     H
H       0.9884   0.8815   0.6695     H
H       0.9903   0.6585   0.4429     H
H       0.9903   0.6585   0.5571     H
N        0.991   0.6691  0.29384     N
N        0.991   0.6691  0.70616     N
H       0.9932   0.3591   0.2761     H
H       0.9932   0.3591   0.7239     H
C        0.998    0.226    0.382     C
C        0.998    0.226    0.618     C
C       0.9998   0.1555   0.3859     C
C       0.9998   0.1555   0.6141     C
