data_I
_chemical_name_common  '/home/zhangsd/repos/MofS-CGCNN/ML/data/SSD/clean_cifs/KINDOC_clean'
_cell_length_a  9.95500
_cell_length_b 12.79500
_cell_length_c 13.80100
_cell_angle_alpha 69.41500
_cell_angle_beta  82.56200
_cell_angle_gamma 83.11700
_space_group_name_H-M_alt      'P 1'


loop_
_space_group_symop_operation_xyz
  'x, y, z' 

loop_
_atom_site_label
_atom_site_fract_x
_atom_site_fract_y
_atom_site_fract_z
_atom_site_type_symbol
H       0.0298   0.6718   0.6303     H
C       0.0456   0.5556   0.5596     C
C       0.0851   0.4801   0.4183     C
C       0.0969   0.6142   0.6222     C
H       0.1146   0.5613   0.6894     H
C       0.1284   0.5343   0.4781     C
H       0.1459    0.406   0.3098     H
C       0.1793   0.4614   0.3307     C
H       0.1793   0.6472   0.5872     H
H       0.1837   0.5304    0.273     H
H       0.1861   0.9735   0.1142     H
H       0.1897    0.938   0.4865     H
H       0.1964   0.1236   0.9292     H
H       0.2051   0.1422   0.4253     H
H       0.2195   0.1658   0.0191     H
H       0.2542   0.0253   0.1813     H
C       0.2601   0.1544   0.9563     C
H       0.2614   0.9545   0.3746     H
C       0.2649   0.9687   0.1495     C
H       0.2683   0.4359   0.3534     H
C       0.2683    0.573   0.4515     C
C       0.2709   0.9202   0.4477     C
H       0.2751   0.8961    0.202     H
H       0.2848   0.2247   0.9059     H
H       0.2855   0.8405    0.465     H
O       0.2897   0.6641   0.3825     O
C       0.2929   0.1589   0.3885     C
H       0.2948   0.1542   0.3204     H
H       0.3107   0.2331   0.3824     H
O       0.3668   0.5131   0.4967     O
C       0.3861    0.074   0.9792     C
C        0.387   0.9861   0.0736     C
C       0.3875   0.9625   0.4736     C
C       0.3992   0.0764   0.4468     C
O       0.4107   0.7156   0.6387     O
Tm     0.46981  0.35965  0.62519    Tm
O       0.4715   0.2849   0.5056     O
C       0.4744   0.7642   0.5563     C
C       0.4886   0.8881   0.5265     C
O       0.4921   0.1636   0.7235     O
O       0.4943   0.2806   0.8036     O
C       0.4948   0.1825   0.8063     C
C       0.4982   0.0869    0.908     C
C       0.5018   0.9131    0.092     C
C       0.5052   0.8175   0.1937     C
O       0.5057   0.7194   0.1964     O
O       0.5079   0.8364   0.2765     O
C       0.5114   0.1119   0.4735     C
C       0.5256   0.2358   0.4437     C
O       0.5285   0.7151   0.4944     O
Tm     0.53019  0.64035  0.37481    Tm
O       0.5893   0.2844   0.3613     O
C       0.6008   0.9236   0.5532     C
C       0.6125   0.0375   0.5264     C
C        0.613   0.0139   0.9264     C
C       0.6139    0.926   0.0208     C
O       0.6332   0.4869   0.5033     O
H       0.6893   0.7669   0.6176     H
H       0.7052   0.8458   0.6796     H
C       0.7071   0.8411   0.6115     C
O       0.7103   0.3359   0.6175     O
H       0.7145   0.1595    0.535     H
H       0.7152   0.7753   0.0941     H
H       0.7249   0.1039    0.798     H
C       0.7291   0.0798   0.5523     C
C       0.7317    0.427   0.5485     C
H       0.7317   0.5641   0.6466     H
C       0.7351   0.0313   0.8505     C
H       0.7386   0.0455   0.6254     H
C       0.7399   0.8456   0.0437     C
H       0.7458   0.9747   0.8187     H
H       0.7805   0.8342   0.9809     H
H       0.7949   0.8578   0.5747     H
H       0.8036   0.8764   0.0708     H
H       0.8103    0.062   0.5135     H
H       0.8139   0.0265   0.8858     H
H       0.8163   0.4696    0.727     H
H       0.8207   0.3528   0.4128     H
C       0.8207   0.5386   0.6693     C
H       0.8541    0.594   0.6902     H
C       0.8716   0.4657   0.5219     C
H       0.8854   0.4387   0.3106     H
C       0.9031   0.3858   0.3778     C
C       0.9149   0.5199   0.5817     C
C       0.9544   0.4444   0.4404     C
H       0.9702   0.3282   0.3697     H
