data_I
_chemical_name_common  '/home/zhangsd/repos/MofS-CGCNN/ML/data/SSD/clean_cifs/KINLAW_clean'
_cell_length_a  8.73300
_cell_length_b 16.28300
_cell_length_c 22.98000
_cell_angle_alpha 90.00000
_cell_angle_beta  90.00000
_cell_angle_gamma 90.00000
_space_group_name_H-M_alt      'P 1'


loop_
_space_group_symop_operation_xyz
  'x, y, z' 

loop_
_atom_site_label
_atom_site_fract_x
_atom_site_fract_y
_atom_site_fract_z
_atom_site_type_symbol
C       0.0048   0.1717   0.1199     C
C       0.0048   0.3283   0.3801     C
N       0.0171   0.7474   0.4771     N
N       0.0171   0.7526   0.0229     N
C       0.0187   0.6492   0.1998     C
C       0.0187   0.8508   0.3002     C
H        0.031   0.6907   0.1712     H
H        0.031   0.8093   0.3288     H
N       0.0331   0.0275   0.5147     N
N       0.0331   0.4725   0.9853     N
C       0.0337   0.2075   0.0667     C
C       0.0337   0.2925   0.4333     C
C       0.0434   0.5339   0.2482     C
C       0.0434   0.9661   0.2518     C
C       0.0582   0.0826   0.7754     C
C       0.0582   0.4174   0.7246     C
C        0.063   0.6923   0.5206     C
C        0.063   0.8077   0.9794     C
H       0.0735   0.0197   0.2402     H
H       0.0735   0.4803   0.2598     H
H       0.0753   0.6237   0.9441     H
H       0.0753   0.8763   0.5559     H
N       0.0754    0.155    0.744     N
N       0.0754    0.345    0.756     N
O        0.078   0.1613  0.21939     O
O        0.078   0.3387  0.28061     O
N       0.0964   0.5771   0.1998     N
N       0.0964   0.9229   0.3002     N
C       0.1027   0.1924   0.1714     C
C       0.1027   0.3076   0.3286     C
H       0.1102   0.0695   0.8105     H
H       0.1102   0.4305   0.6895     H
O       0.1124   0.7339   0.0591     O
O       0.1124   0.7661   0.4409     O
O       0.1153   0.2421   0.5384     O
O       0.1153   0.2579   0.9616     O
C       0.1175   0.6169   0.6247     C
C       0.1175   0.8831   0.8753     C
C        0.119    0.502   0.9367     C
C        0.119    0.998   0.5633     C
H       0.1199   0.2424   0.0618     H
H       0.1199   0.2576   0.4382     H
C       0.1291   0.5837    0.922     C
C       0.1291   0.9163    0.578     C
H       0.1365   0.5896   0.6605     H
H       0.1365   0.9104   0.8395     H
H        0.155    0.072   0.3368     H
H        0.155    0.428   0.1632     H
H       0.1913   0.1121   0.5852     H
H       0.1913   0.3879   0.9148     H
C       0.1925   0.6432   0.5246     C
C       0.1925   0.8568   0.9754     C
C        0.199   0.0556   0.5951     C
C        0.199   0.4444   0.9049     C
C        0.199   0.5501   0.1557     C
C        0.199   0.9499   0.3443     C
O       0.2083   0.2457   0.1638     O
O       0.2083   0.2543   0.3362     O
C       0.2098    0.032   0.3586     C
C       0.2098    0.468   0.1414     C
C       0.2114   0.6027   0.5769     C
C       0.2114   0.8973   0.9231     C
C       0.2174   0.6077    0.875     C
C       0.2174   0.8923    0.625     C
H       0.2206   0.6638   0.8639     H
H       0.2206   0.8362   0.6361     H
Co     0.22887     0.25     0.75    Co
Co     0.27113     0.25     0.25    Co
H       0.2794   0.6638   0.1361     H
H       0.2794   0.8362   0.3639     H
C       0.2826   0.6077    0.125     C
C       0.2826   0.8923    0.375     C
C       0.2886   0.6027   0.4231     C
C       0.2886   0.8973   0.0769     C
C       0.2902    0.032   0.6414     C
C       0.2902    0.468   0.8586     C
O       0.2917   0.2457   0.8362     O
O       0.2917   0.2543   0.6638     O
C        0.301   0.0556   0.4049     C
C        0.301   0.4444   0.0951     C
C        0.301   0.5501   0.8443     C
C        0.301   0.9499   0.6557     C
C       0.3075   0.6432   0.4754     C
C       0.3075   0.8568   0.0246     C
H       0.3087   0.1121   0.4148     H
H       0.3087   0.3879   0.0852     H
H        0.345    0.072   0.6632     H
H        0.345    0.428   0.8368     H
H       0.3635   0.5896   0.3395     H
H       0.3635   0.9104   0.1605     H
C       0.3709   0.5837    0.078     C
C       0.3709   0.9163    0.422     C
H       0.3801   0.2424   0.9382     H
H       0.3801   0.2576   0.5618     H
C        0.381    0.502   0.0633     C
C        0.381    0.998   0.4367     C
C       0.3825   0.6169   0.3753     C
C       0.3825   0.8831   0.1247     C
O       0.3847   0.2421   0.4616     O
O       0.3847   0.2579   0.0384     O
O       0.3876   0.7339   0.9409     O
O       0.3876   0.7661   0.5591     O
H       0.3898   0.0695   0.1895     H
H       0.3898   0.4305   0.3105     H
C       0.3973   0.1924   0.8286     C
C       0.3973   0.3076   0.6714     C
N       0.4036   0.5771   0.8002     N
N       0.4036   0.9229   0.6998     N
O        0.422   0.1613  0.78061     O
O        0.422   0.3387  0.71939     O
N       0.4246    0.155    0.256     N
N       0.4246    0.345    0.244     N
H       0.4247   0.6237   0.0559     H
H       0.4247   0.8763   0.4441     H
H       0.4265   0.0197   0.7598     H
H       0.4265   0.4803   0.7402     H
C        0.437   0.6923   0.4794     C
C        0.437   0.8077   0.0206     C
C       0.4418   0.0826   0.2246     C
C       0.4418   0.4174   0.2754     C
C       0.4566   0.5339   0.7518     C
C       0.4566   0.9661   0.7482     C
C       0.4663   0.2075   0.9333     C
C       0.4663   0.2925   0.5667     C
N       0.4669   0.0275   0.4853     N
N       0.4669   0.4725   0.0147     N
H        0.469   0.6907   0.8288     H
H        0.469   0.8093   0.6712     H
C       0.4813   0.6492   0.8002     C
C       0.4813   0.8508   0.6998     C
N       0.4829   0.7474   0.5229     N
N       0.4829   0.7526   0.9771     N
C       0.4952   0.1717   0.8801     C
C       0.4952   0.3283   0.6199     C
C       0.5048   0.6717   0.3801     C
C       0.5048   0.8283   0.1199     C
N       0.5171   0.2474   0.0229     N
N       0.5171   0.2526   0.4771     N
C       0.5187   0.1492   0.3002     C
C       0.5187   0.3508   0.1998     C
H        0.531   0.1907   0.3288     H
H        0.531   0.3093   0.1712     H
N       0.5331   0.5275   0.9853     N
N       0.5331   0.9725   0.5147     N
C       0.5337   0.7075   0.4333     C
C       0.5337   0.7925   0.0667     C
C       0.5434   0.0339   0.2518     C
C       0.5434   0.4661   0.2482     C
C       0.5582   0.5826   0.7246     C
C       0.5582   0.9174   0.7754     C
C        0.563   0.1923   0.9794     C
C        0.563   0.3077   0.5206     C
H       0.5735   0.5197   0.2598     H
H       0.5735   0.9803   0.2402     H
H       0.5753   0.1237   0.5559     H
H       0.5753   0.3763   0.9441     H
N       0.5754    0.655    0.756     N
N       0.5754    0.845    0.744     N
O        0.578   0.6613  0.28061     O
O        0.578   0.8387  0.21939     O
N       0.5964   0.0771   0.3002     N
N       0.5964   0.4229   0.1998     N
C       0.6027   0.6924   0.3286     C
C       0.6027   0.8076   0.1714     C
H       0.6102   0.5695   0.6895     H
H       0.6102   0.9305   0.8105     H
O       0.6124   0.2339   0.4409     O
O       0.6124   0.2661   0.0591     O
O       0.6153   0.7421   0.9616     O
O       0.6153   0.7579   0.5384     O
C       0.6175   0.1169   0.8753     C
C       0.6175   0.3831   0.6247     C
C        0.619    0.002   0.5633     C
C        0.619    0.498   0.9367     C
H       0.6199   0.7424   0.4382     H
H       0.6199   0.7576   0.0618     H
C       0.6291   0.0837    0.578     C
C       0.6291   0.4163    0.922     C
H       0.6365   0.0896   0.8395     H
H       0.6365   0.4104   0.6605     H
H        0.655    0.572   0.1632     H
H        0.655    0.928   0.3368     H
H       0.6913   0.6121   0.9148     H
H       0.6913   0.8879   0.5852     H
C       0.6925   0.1432   0.9754     C
C       0.6925   0.3568   0.5246     C
C        0.699   0.0501   0.3443     C
C        0.699   0.4499   0.1557     C
C        0.699   0.5556   0.9049     C
C        0.699   0.9444   0.5951     C
O       0.7083   0.7457   0.3362     O
O       0.7083   0.7543   0.1638     O
C       0.7098    0.532   0.1414     C
C       0.7098    0.968   0.3586     C
C       0.7114   0.1027   0.9231     C
C       0.7114   0.3973   0.5769     C
C       0.7174   0.1077    0.625     C
C       0.7174   0.3923    0.875     C
H       0.7206   0.1638   0.6361     H
H       0.7206   0.3362   0.8639     H
Co     0.72887     0.75     0.75    Co
Co     0.77113     0.75     0.25    Co
H       0.7794   0.1638   0.3639     H
H       0.7794   0.3362   0.1361     H
C       0.7826   0.1077    0.375     C
C       0.7826   0.3923    0.125     C
C       0.7886   0.1027   0.0769     C
C       0.7886   0.3973   0.4231     C
C       0.7902    0.532   0.8586     C
C       0.7902    0.968   0.6414     C
O       0.7917   0.7457   0.6638     O
O       0.7917   0.7543   0.8362     O
C        0.801   0.0501   0.6557     C
C        0.801   0.4499   0.8443     C
C        0.801   0.5556   0.0951     C
C        0.801   0.9444   0.4049     C
C       0.8075   0.1432   0.0246     C
C       0.8075   0.3568   0.4754     C
H       0.8087   0.6121   0.0852     H
H       0.8087   0.8879   0.4148     H
H        0.845    0.572   0.8368     H
H        0.845    0.928   0.6632     H
H       0.8635   0.0896   0.1605     H
H       0.8635   0.4104   0.3395     H
C       0.8709   0.0837    0.422     C
C       0.8709   0.4163    0.078     C
H       0.8801   0.7424   0.5618     H
H       0.8801   0.7576   0.9382     H
C        0.881    0.002   0.4367     C
C        0.881    0.498   0.0633     C
C       0.8825   0.1169   0.1247     C
C       0.8825   0.3831   0.3753     C
O       0.8847   0.7421   0.0384     O
O       0.8847   0.7579   0.4616     O
O       0.8876   0.2339   0.5591     O
O       0.8876   0.2661   0.9409     O
H       0.8898   0.5695   0.3105     H
H       0.8898   0.9305   0.1895     H
C       0.8973   0.6924   0.6714     C
C       0.8973   0.8076   0.8286     C
N       0.9036   0.0771   0.6998     N
N       0.9036   0.4229   0.8002     N
O        0.922   0.6613  0.71939     O
O        0.922   0.8387  0.78061     O
N       0.9246    0.655    0.244     N
N       0.9246    0.845    0.256     N
H       0.9247   0.1237   0.4441     H
H       0.9247   0.3763   0.0559     H
H       0.9265   0.5197   0.7402     H
H       0.9265   0.9803   0.7598     H
C        0.937   0.1923   0.0206     C
C        0.937   0.3077   0.4794     C
C       0.9418   0.5826   0.2754     C
C       0.9418   0.9174   0.2246     C
C       0.9566   0.0339   0.7482     C
C       0.9566   0.4661   0.7518     C
C       0.9663   0.7075   0.5667     C
C       0.9663   0.7925   0.9333     C
N       0.9669   0.5275   0.0147     N
N       0.9669   0.9725   0.4853     N
H        0.969   0.1907   0.6712     H
H        0.969   0.3093   0.8288     H
C       0.9813   0.1492   0.6998     C
C       0.9813   0.3508   0.8002     C
N       0.9829   0.2474   0.9771     N
N       0.9829   0.2526   0.5229     N
C       0.9952   0.6717   0.6199     C
C       0.9952   0.8283   0.8801     C
