data_I
_chemical_name_common  '/home/zhangsd/repos/MofS-CGCNN/ML/data/SSD/clean_cifs/KINRIK_clean'
_cell_length_a 38.07400
_cell_length_b 38.07400
_cell_length_c 24.31600
_cell_angle_alpha 90.00000
_cell_angle_beta  90.00000
_cell_angle_gamma 120.00000
_space_group_name_H-M_alt      'P 1'


loop_
_space_group_symop_operation_xyz
  'x, y, z' 

loop_
_atom_site_label
_atom_site_fract_x
_atom_site_fract_y
_atom_site_fract_z
_atom_site_type_symbol
O       0.0002    0.475   0.7389     O
Cu     0.00143  0.52717  0.78976    Cu
H      0.00173  0.76117  0.71647     H
H      0.00333  0.09347  0.76097     H
H       0.0052   0.4113   0.7138     H
H      0.00697  0.88793  0.28403     H
N      0.00887  0.22243  0.28783     N
H      0.00913  0.79977  0.69347     H
N       0.0133   0.4495   0.2743     N
N      0.01597  0.90183  0.25243     N
H       0.0164   0.5824   0.9813     H
H       0.0189   0.4417   0.6644     H
H      0.01897  0.27553  0.03463     H
Cu     0.02042  0.20658  0.21419    Cu
H       0.0215   0.5762    0.659     H
H      0.02217  0.86343  0.97703     H
H      0.02297  0.89713  0.00673     H
C       0.0236   0.5824   0.6979     C
H       0.0244   0.6081    0.702     H
H       0.0259   0.5564   0.0145     H
Cu     0.02647  0.53877  0.91923    Cu
C       0.0266   0.4374   0.7008     C
O      0.02717  0.15443  0.25053     O
Cu     0.02728  0.87141  0.20098    Cu
O      0.02783  0.16897  0.82207     O
O      0.02824  0.51452   0.8494     O
H       0.0283   0.4694   0.2984     H
H       0.0284   0.4389   0.2624     H
C       0.0289   0.4688   0.7374     C
O      0.03027  0.83113  0.26933     O
N       0.0328   0.5718    0.984     N
H      0.03407  0.08843  0.24703     H
O      0.03493  0.82047  0.81547     O
Cu     0.03512  0.23044  0.08369    Cu
N      0.03577  0.88293  0.00223     N
H      0.03657  0.25973  0.99533     H
H      0.03747  0.77873  0.32643     H
Cu     0.03823  0.85869   0.0721    Cu
N      0.03917  0.27013  0.02943     N
O      0.04127  0.20029  0.14433     O
C      0.04757  0.24373  0.31813     C
O      0.04777  0.84723  0.14713     O
H      0.04847  0.22533  0.34493     H
H      0.04857  0.26633  0.33803     H
O       0.0495   0.5001   0.9669     O
H      0.05107  0.11113  0.30293     H
O       0.0511   0.5076    0.177     O
O      0.05147  0.19513  0.02253     O
H      0.05437  0.96593  0.24703     H
C      0.05547  0.14913  0.24093     C
C      0.05553  0.18587  0.79007     C
C      0.05597  0.11273  0.26363     C
O      0.05657  0.81573  0.03053     O
C      0.05677  0.94403  0.26363     C
O      0.05733  0.17717  0.73957     O
H       0.0578   0.4101   0.7013     H
O       0.0579   0.5653   0.7649     O
H      0.05857  0.74963  0.03533     H
C      0.05997  0.82483  0.27233     C
H      0.06007  0.94893  0.30293     H
O       0.0625   0.4892   0.7621     O
C      0.06307  0.80373  0.32123     C
N       0.0632   0.4357   0.6961     N
C       0.0633    0.587   0.7195     C
C      0.06453  0.84117  0.78897     C
O      0.06653  0.85267  0.74087     O
H        0.067   0.4489   0.0047     H
H      0.06757  0.14423  0.97033     H
H      0.06767  0.82063  0.35333     H
H      0.07277  0.32813  0.04713     H
H       0.0736   0.4435    0.662     H
C       0.0737   0.4916   0.9479     C
C        0.074   0.6036   0.9879     C
H       0.0746   0.6292   0.9931     H
C      0.07497  0.90803  0.98533     C
H      0.07667  0.93243  0.97033     H
H      0.07677  0.68563  0.63203     H
H      0.07717  0.30493  0.59573     H
C      0.07747  0.30673  0.03413     C
H      0.07797  0.73943  0.61953     H
O      0.07857  0.24546  0.23243     O
H      0.07873  0.20817  0.80387     H
C      0.07917  0.18793  0.02943     C
C      0.07967  0.80963  0.05283     C
H      0.08057  0.89463  0.95553     H
H      0.08297  0.35773  0.63133     H
C       0.0832   0.5298   0.2045     C
O       0.0833   0.5774   0.9053     O
H      0.08427  0.76733  0.31463     H
C      0.08427  0.77453  0.03123     C
C      0.08457  0.25963  0.28123     C
O       0.0853    0.529   0.2577     O
O      0.08617  0.91343  0.21053     O
H       0.0863    0.599     0.02     H
O      0.08657  0.17273  0.21053     O
O      0.08787  0.49977   0.8991     O
H      0.08843  0.05437  0.75297     H
H      0.08923  0.84987  0.80667     H
O      0.08927  0.83923  0.23863     O
H      0.08947  0.31443  0.99773     H
C       0.0896   0.4705   0.9848     C
H      0.09013  0.99667  0.76097     H
H      0.09047  0.77863  0.99233     H
C      0.09197  0.16693  0.98533     C
O       0.0925   0.6101   0.6972     O
H      0.09277  0.66493  0.38313     H
O      0.09337  0.27083  0.09543     O
H      0.09347  0.09013  0.23903     H
C      0.09367  0.94453  0.24093     C
H      0.09397  0.57743  0.47333     H
H       0.0945   0.4261   0.9502     H
N      0.09487  0.79433  0.31733     N
O      0.09527  0.90043  0.07453     O
N      0.09817  0.11413  0.25243     N
Gd     0.09817  0.54702  0.82513    Gd
C       0.0982   0.6067    0.939     C
O      0.09957  0.19483  0.07453     O
H      0.10067  0.34973  0.35203     H
O      0.10137  0.82593  0.09823     O
N      0.10237  0.70583  0.63723     N
H      0.10287  0.12583  0.00673     H
N      0.10287  0.32003  0.60763     N
Cu     0.10289  0.47134  0.75036    Cu
Gd     0.10386  0.20874  0.66708    Gd
C      0.10407  0.74413  0.63253     C
Gd     0.10489  0.89614  0.66708    Gd
H      0.10537  0.18593  0.95553     H
H      0.10557  0.74383  0.07093     H
H       0.1065   0.5478   0.1853     H
C      0.10657  0.30443  0.07073     C
H      0.10777  0.30503  0.63173     H
C      0.10787  0.35693  0.63543     C
H      0.10797  0.22683  0.51863     H
H        0.108   0.4898   0.0116     H
H      0.10837  0.75613  0.66893     H
C      0.10877  0.92083  0.02943     C
C      0.10997  0.60213  0.45563     C
H      0.11017  0.70323  0.67133     H
H      0.11027  0.80283  0.34783     H
O      0.11037  0.24803  0.59103     O
N       0.1109   0.4531   0.9545     N
H      0.11113  0.06007  0.69707     H
H      0.11197  0.35483  0.67433     H
H      0.11207  0.11903  0.28403     H
H      0.11207  0.40793  0.34023     H
C      0.11273  0.05677  0.73637     C
C      0.11327  0.25013  0.53783     C
N      0.11413  0.01597  0.74757     N
Gd     0.11552  0.23517  0.15846    Gd
H      0.11557  0.71523  0.32863     H
N      0.11617  0.76953  0.05903     N
N      0.11707  0.15283  0.00223     N
O      0.11727  0.28383  0.30023     O
O      0.11887  0.63173  0.48213     O
H      0.11887  0.89203  0.51863     H
H      0.11903  0.00697  0.71597     H
O      0.11947  0.60013  0.40753     O
Gd     0.11964  0.88448  0.15846    Gd
N      0.11977  0.67553  0.37883     N
O      0.11983  0.94267  0.73957     O
O      0.12317  0.28223  0.51033     O
H      0.12397  0.65753  0.36013     H
Gd     0.12459  0.56178  0.33375    Gd
H      0.12517  0.53723  0.47053     H
H      0.12583  0.02297  0.99327     H
Cu     0.12675   0.4805  0.88086    Cu
O      0.12727  0.97283  0.25053     O
N      0.12767  0.36613  0.34933     N
Cu      0.1279  0.82103  0.25256    Cu
Cu     0.12859  0.15586  0.20098    Cu
H      0.12943  0.92127  0.80387     H
C      0.13033  0.94447  0.79007     C
O       0.1328   0.6189   0.8138     O
O      0.13304  0.50764    0.811     O
H       0.1331   0.4573   0.9732     H
O       0.1342   0.6364    0.936     O
C      0.13547  0.77323  0.59593     C
H      0.13607  0.77443  0.03493     H
H      0.13617  0.35923  0.31883     H
H      0.13657  0.15873  0.97703     H
C      0.13687  0.88673  0.53783     C
C      0.13707  0.40733  0.34543     C
C      0.13717  0.71423  0.34853     C
O      0.13767  0.88963  0.59103     O
Cu     0.13801  0.70178  0.58297    Cu
O       0.1382    0.523   0.6892     O
O       0.1385   0.5714   0.7412     O
Cu      0.1395  0.80759  0.12309    Cu
Cu     0.14093  0.33476  0.54357    Cu
O      0.14113  0.97217  0.82207     O
Cu     0.14131  0.17953   0.0721    Cu
O      0.14147  0.33313  0.07223     O
O      0.14167  0.80813  0.59443     O
C      0.14297  0.39663  0.61383     C
O      0.14367  0.94853  0.02253     O
H      0.14423  0.07667  0.02967     H
C       0.1454   0.5579   0.6961     C
Cu     0.14717  0.68708  0.45247    Cu
O      0.14733  0.21387  0.74087     O
H       0.1474   0.5861   0.6222     H
C      0.14747  0.53633  0.45673     C
O      0.14907  0.42583  0.63613     O
C      0.14913  0.09367  0.75907     C
H      0.15013  0.23937  0.80667     H
O      0.15215  0.84705  0.18273     O
O      0.15277  0.20053  0.14713     O
N      0.15283  0.03577  0.99777     N
O      0.15295  0.30509  0.18273     O
O       0.1538   0.4522   0.8512     O
Cu      0.1538  0.62844  0.73877    Cu
H      0.15397  0.41963  0.31333     H
Cu     0.15437   0.3598   0.4141    Cu
O      0.15443  0.12727  0.74947     O
Cu     0.15586  0.02728  0.79902    Cu
O      0.15587  0.76003  0.57123     O
O      0.15617  0.54683  0.40623     O
H      0.15647  0.71513  0.32173     H
C      0.15817  0.43153  0.39433     C
C      0.15827  0.75123  0.38543     C
H      0.15873  0.02217  0.02297     H
C      0.15883  0.22337  0.78897     C
O      0.15903  0.95873  0.14433     O
O      0.15907  0.87683  0.51033     O
O      0.15927  0.39123  0.56843     O
O       0.1606   0.5805   0.8772     O
O      0.16077  0.25003  0.23863     O
O      0.16437  0.52553  0.48873     O
O      0.16447  0.46753  0.39733     O
C       0.1664   0.5917    0.652     C
O      0.16644  0.74523  0.43423     O
O      0.16657  0.88273  0.30023     O
O      0.16677  0.78393  0.36643     O
O       0.1669  0.92143  0.23243     O
C      0.16693  0.07497  0.01467     C
O      0.16887  0.19913  0.26933     O
O      0.16897  0.14113  0.17793     O
O      0.17257  0.41663  0.42803     O
O      0.17273  0.08617  0.78947     O
O      0.17407  0.27543  0.09823     O
O      0.17427  0.78983  0.15633     O
O      0.17431  0.70793  0.52233     O
C       0.1745   0.4433   0.8777     C
H       0.1746   0.6445   0.6437     H
C      0.17507  0.91543  0.28123     C
C      0.17517  0.23513  0.27233     C
H      0.17687  0.95153  0.34493     H
O      0.17717  0.11983  0.26043     O
Cu     0.17747  0.63939  0.86765    Cu
O      0.17747  0.90663  0.09543     O
O       0.1789   0.5394   0.9172     O
Cu     0.17897  0.30686  0.25256    Cu
H      0.17937  0.24703  0.35333     H
Cu     0.17953  0.03823   0.9279    Cu
O      0.17953  0.21447  0.81547     O
O      0.18039  0.36157  0.48393     O
N       0.1805   0.6309   0.6689     N
O      0.18057  0.46613  0.51953     O
O      0.18119  0.81961  0.48393     O
H       0.1832   0.4273     0.86     H
C       0.1842    0.573   0.9076     C
O      0.18427  0.24083  0.03053     O
C      0.18587  0.13033  0.20993     C
H      0.18593  0.08057  0.04447     H
O        0.186   0.4528   0.9258     O
Cu     0.18617  0.97958  0.21419    Cu
C      0.18793  0.10877  0.97057     C
H       0.1891     0.59    0.637     H
O      0.18967  0.71813  0.64413     O
C      0.19037  0.27003  0.05283     C
O      0.19167  0.85853  0.07223     O
O      0.19187  0.33353  0.59443     O
Cu     0.19203  0.48713  0.59456    Cu
O       0.1922   0.6945   0.8446     O
Cu     0.19241   0.3319  0.12309    Cu
Cu     0.19384  0.85907  0.54357    Cu
O      0.19483  0.09527  0.92547     O
O      0.19513  0.14367  0.97747     O
Cu     0.19533  0.96488  0.08369    Cu
O      0.19567  0.77703  0.07563     O
C      0.19617  0.95243  0.31813     C
C      0.19627  0.25933  0.32123     C
C      0.19647  0.77993  0.12883     C
H      0.19677  0.50793  0.68963     H
H      0.19717  0.30743  0.34783     H
H      0.19727  0.89223  0.63173     H
C      0.19787  0.89343  0.07073     C
O      0.19913  0.03027  0.73067     O
H      0.20023  0.20937  0.69347     H
O      0.20029  0.15903  0.85567     O
O      0.20053  0.04777  0.85287     O
C        0.203   0.7222   0.8766     C
H       0.2039   0.7454   0.8628     H
Cu     0.20475   0.5108  0.46568    Cu
Cu     0.20544  0.84563   0.4141    Cu
N      0.20567  0.30053  0.31733     N
O      0.20607  0.69383  0.41613     O
Cu     0.20658  0.18617  0.78581    Cu
H       0.2075   0.6437   0.6734     H
H      0.20817  0.12943  0.19613     H
Gd     0.20874  0.10489  0.33292    Gd
H      0.20937  0.00913  0.30653     H
O      0.21017  0.38443  0.15633     O
O       0.2135    0.724   0.9271     O
N      0.21357  0.99113  0.28783     N
Gd     0.21369  0.78219   0.5082    Gd
O      0.21387  0.06653  0.25913     O
H       0.2143   0.6597   0.9507     H
O      0.21447  0.03493  0.18453     O
H      0.21447  0.77463  0.14803     H
O      0.21607  0.38283  0.36643     O
N      0.21627  0.51383  0.66443     N
N      0.21717  0.89713  0.60763     N
H      0.21777  0.95143  0.33803     H
Gd     0.21781   0.4315   0.5082    Gd
N       0.2192   0.6507   0.9191     N
C      0.22007  0.41653  0.12883     C
C       0.2206   0.6099   0.9303     C
H      0.22127  0.25873  0.32643     H
H      0.22127  0.54763  0.38263     H
H      0.22137  0.31183  0.99233     H
H       0.2222   0.6066   0.9696     H
N      0.22243  0.21357  0.71217     N
O      0.22297  0.41863  0.07563     O
H      0.22307  0.86383  0.31883     H
H      0.22317  0.96343  0.99533     H
C      0.22337  0.06453  0.21103     C
C      0.22457  0.74583  0.63723     C
H      0.22497  0.91053  0.99773     H
H      0.22533  0.17687  0.65507     H
H      0.22537  0.43983  0.14803     H
C      0.22547  0.30973  0.03123     C
H      0.22557  0.36163  0.03493     H
C      0.22677  0.36223  0.59593     C
H      0.22683  0.11887  0.48137     H
H      0.22777  0.92283  0.59573     H
H      0.22797  0.48073  0.71113     H
Gd     0.22845  0.77052  0.99958    Gd
C      0.22927  0.92253  0.03413     C
Gd     0.22948  0.45792  0.99958    Gd
Cu     0.23044  0.19533  0.91631    Cu
N      0.23047  0.34663  0.05903     N
H      0.23047  0.54083  0.65993     H
N      0.23097  0.96083  0.02943     N
O      0.23197  0.84073  0.56843     O
H      0.23267  0.31693  0.31463     H
O      0.23377  0.47183  0.59213     O
C      0.23513  0.05997  0.72767     C
Gd     0.23517  0.11964  0.84154    Gd
N      0.23517  0.55253  0.41423     N
O      0.23807  0.76623  0.59213     O
N      0.23847  0.87233  0.34933     N
H      0.23883  0.24057  0.71647     H
H      0.23937  0.08923  0.19333     H
C      0.23967  0.72213  0.42573     C
H      0.23987  0.57653  0.42763     H
O      0.23997  0.39583  0.57123     O
H      0.24057  0.00173  0.28353     H
O      0.24083  0.05657  0.96947     O
C      0.24137  0.49973  0.68133     C
H      0.24287  0.88803  0.67433     H
H       0.2432     0.67   0.9057     H
C      0.24373  0.19617  0.68187     C
H      0.24387  0.35223  0.66893     H
O      0.24407  0.82743  0.42803     O
H       0.2441   0.8168     0.86     H
H       0.2449   0.6123   0.9137     H
O      0.24546   0.1669  0.76757     O
O      0.24677  0.49393  0.45613     O
H      0.24703  0.06767  0.64667     H
O      0.24717  0.75323  0.45613     O
O      0.24803  0.13767  0.40897     O
C      0.24877  0.40703  0.38543     C
C      0.24907  0.89213  0.63543     C
H      0.24907  0.89933  0.35203     H
O      0.25003  0.08927  0.76137     O
C      0.25013  0.13687  0.46217     C
H      0.25037  0.30893  0.03533     H
H      0.25277  0.77203  0.71113     H
C      0.25367  0.85703  0.61383     C
C      0.25417  0.47873  0.63723     C
H       0.2546   0.4585   0.8628     H
O      0.25477   0.4212  0.43423     O
H      0.25537  0.92723  0.04713     H
C      0.25587  0.35993  0.63253     C
H      0.25617  0.36173  0.07093     H
H      0.25657  0.98103  0.03463     H
H      0.25667  0.73423  0.69633     H
C      0.25837  0.75863  0.68133     C
H      0.25873  0.03747  0.67357     H
C      0.25933  0.06307  0.67877     C
C      0.25963  0.17507  0.71877     C
H      0.25973  0.22317  0.00467     H
H      0.26057  0.33853  0.61953     H
H      0.26567  0.84603  0.31333     H
H      0.26577  0.52243  0.69633     H
H      0.26633  0.21777  0.66197     H
O       0.2668    0.814   0.9258     O
C       0.2688   0.8255   0.8777     C
C      0.27003  0.07967  0.94717     C
N      0.27013  0.23097  0.97057     N
C      0.27027  0.86293  0.34543     C
O      0.27083  0.17747  0.90457     O
H      0.27327  0.71773  0.36373     H
C      0.27337  0.84183  0.39433     C
H      0.27477  0.91703  0.63133     H
O      0.27543  0.10137  0.90177     O
H      0.27553  0.25657  0.96537     H
O        0.276   0.4895   0.9271     O
C      0.27657  0.72263  0.40303     C
O      0.27677  0.85093  0.63613     O
C      0.27737  0.55393  0.40303     C
C       0.2778   0.4808   0.8766     C
C      0.27787  0.51753  0.42573     C
H      0.27897  0.70073  0.41963     H
O      0.28187  0.47153  0.64413     O
O      0.28223  0.15907  0.48967     O
H      0.28227  0.55553  0.36373     H
O      0.28383  0.16657  0.69977     O
H      0.28477  0.40033  0.32863     H
H      0.28487  0.44133  0.32173     H
O      0.28557  0.81943  0.51953     O
C      0.28577  0.42293  0.34853     C
O      0.29207  0.46637  0.52233     O
N      0.29417  0.39653  0.63723     N
Cu     0.29511  0.80797  0.59456    Cu
H      0.29587  0.88793  0.34023     H
H      0.29677  0.40693  0.67133     H
N      0.29757  0.78373  0.66443     N
Cu     0.29822  0.43622  0.58297    Cu
O       0.2984   0.8462   0.8512     O
H      0.29927  0.57823  0.41963     H
N      0.30053  0.09487  0.68267     N
O      0.30307  0.83553  0.39733     O
C      0.30443  0.19787  0.92927     C
H      0.30493  0.22777  0.40427     H
H      0.30503  0.19727  0.36827     H
O      0.30509  0.15215  0.81727     O
O       0.3055   0.4977   0.8446     O
Cu     0.30606  0.79525  0.46568    Cu
O      0.30617  0.51223  0.41613     O
C      0.30673  0.22927  0.96587     C
Cu     0.30686   0.1279  0.74744    Cu
H      0.30743  0.11027  0.65217     H
H      0.30893  0.05857  0.96467     H
C      0.30973  0.08427  0.96877     C
H      0.31037  0.76953  0.65993     H
H      0.31117  0.80323  0.68963     H
H      0.31183  0.09047  0.00767     H
Cu     0.31292  0.46008  0.45247    Cu
H      0.31437  0.39113  0.63203     H
H      0.31443  0.22497  0.00227     H
H      0.31693  0.08427  0.68537     H
N      0.31737  0.76483  0.41423     N
N      0.32003  0.21717  0.39237     N
H       0.3242   0.8669   0.9732     H
N      0.32447  0.44423  0.37883     N
H      0.32637  0.77873  0.38263     H
H      0.32813  0.25537  0.95287     H
H         0.33   0.5732   0.9057     H
H       0.3316   0.9055   0.9502     H
Cu      0.3319   0.1395  0.87691    Cu
O      0.33313  0.19167  0.92777     O
O      0.33353  0.14167  0.40557     O
Cu     0.33476  0.19384  0.45643    Cu
H      0.33507  0.42783  0.38313     H
H      0.33667  0.76013  0.42763     H
H      0.33853  0.07797  0.38047     H
H       0.3403   0.5546   0.9507     H
N       0.3422   0.8891   0.9545     N
H      0.34247  0.46643  0.36013     H
N      0.34663  0.11617  0.94097     N
N       0.3493   0.5685   0.9191     N
H      0.34973  0.24907  0.64797     H
H      0.35223  0.10837  0.33107     H
H       0.3523   0.9422   0.7013     H
Cu     0.35375  0.87325  0.88086    Cu
H      0.35483  0.24287  0.32567     H
H       0.3555   0.5301   0.6437     H
H       0.3563   0.5638   0.6734     H
C      0.35693  0.24907  0.36457     C
H      0.35773  0.27477  0.36867     H
H      0.35923  0.22307  0.68117     H
Cu      0.3598  0.20544   0.5859    Cu
C      0.35993  0.10407  0.36747     C
O       0.3605   0.8211   0.9172     O
Cu     0.36061  0.53808  0.86765    Cu
O      0.36117  0.83563  0.48873     O
O      0.36157  0.18119  0.51607     O
H      0.36163  0.13607  0.96507     H
H      0.36173  0.10557  0.92907     H
C      0.36223  0.13547  0.40407     C
O       0.3636   0.4978    0.936     O
N      0.36613  0.23847  0.65067     N
H       0.3674   0.7551   0.9137     H
O      0.36827  0.48713  0.48213     O
Cu     0.36845  0.89711  0.75036    Cu
N       0.3691   0.5496   0.6689     N
H       0.3699   0.9264    0.662     H
H       0.3708   0.4454   0.9931     H
Cu     0.37156  0.52536  0.73877    Cu
N       0.3725   0.9368   0.6961     N
O       0.3746  0.86696    0.811     O
C       0.3809   0.9104   0.9848     C
O       0.3811   0.5139   0.8138     O
H       0.3818    0.892   0.0116     H
H       0.3819    0.933   0.0047     H
O      0.38283  0.16677  0.63357     O
H       0.3844   0.7778   0.9696     H
O      0.38443  0.17427  0.84367     O
O       0.3848   0.8618   0.6892     O
H       0.3877   0.6326   0.9137     H
C       0.3888   0.8158   0.9076     C
C      0.38887  0.85253  0.45673     C
C       0.3893   0.7794   0.9303     C
O       0.3899   0.4824   0.6972     O
C       0.3901   0.6107   0.9303     C
O      0.39067  0.84383  0.40623     O
H      0.39113  0.07677  0.36797     H
O      0.39123  0.23197  0.43157     O
H       0.3919   0.4163    0.702     H
C       0.3933   0.4915    0.939     C
H       0.3934   0.6156   0.9696     H
O      0.39583  0.15587  0.42877     O
C       0.3964   0.4704   0.9879     C
N      0.39653  0.10237  0.36277     N
C      0.39663  0.25367  0.38617     C
C      0.39787  0.50783  0.45563     C
O      0.39987  0.51933  0.40753     O
H      0.40033  0.11557  0.67137     H
H       0.4009   0.8109    0.637     H
H        0.401   0.4873     0.02     H
H       0.4061   0.9948   0.7138     H
H      0.40693  0.11017  0.32867     H
C      0.40703  0.15827  0.61457     C
C      0.40733  0.27027  0.65457     C
H      0.40793  0.29587  0.65977     H
C       0.4083   0.5747    0.652     C
H         0.41   0.5991    0.637     H
H       0.4101   0.3523   0.2987     H
H       0.4105   0.9716   0.2624     H
C       0.4108   0.9734   0.7008     C
H       0.4113   0.4061   0.2862     H
O       0.4119  0.91213   0.8991     O
H      0.41207  0.87483  0.47053     H
C       0.4125   0.8546   0.6961     C
C        0.413   0.4763   0.7195     C
H       0.4139   0.5613   0.6222     H
H       0.4163   0.0244    0.298     H
C      0.41653  0.19647  0.87117     C
O      0.41663  0.24407  0.57197     O
H       0.4176    0.434   0.9813     H
C       0.4176   0.4412   0.6979     C
C       0.4179   0.9263   0.9479     C
O      0.41863  0.19567  0.92437     O
O       0.4195   0.5801   0.8772     O
H      0.41963  0.26567  0.68667     H
O       0.4199   0.8394   0.8772     O
O       0.4212  0.16644  0.56577     O
H      0.42177  0.72103  0.41963     H
H      0.42257  0.51653  0.47333     H
O       0.4226   0.5059   0.9053     O
H       0.4228   0.9811   0.6644     H
C      0.42293  0.13717  0.65147     C
H      0.42347  0.66333  0.42763     H
H       0.4238   0.4453    0.659     H
C       0.4253   0.8336    0.652     C
O      0.42583  0.27677  0.36387     O
H       0.4261   0.3316   0.0498     H
O       0.4267   0.9375   0.7621     O
H       0.4268   0.7568   0.9057     H
C        0.427   0.6112   0.9076     C
H       0.4273   0.2441     0.14     H
H      0.42783  0.09277  0.61687     H
N       0.4282    0.461    0.984     N
O       0.4286   0.5671   0.7412     O
Gd      0.4315  0.21369   0.4918    Gd
N       0.4315   0.7808   0.9191     N
C      0.43153  0.27337  0.60567     C
O       0.4329   0.8615   0.7412     O
H        0.434   0.0164   0.0187     H
O       0.4347   0.4926   0.7649     O
N       0.4357   0.3725   0.3039     N
H       0.4362   0.7925   0.6734     H
N       0.4362   0.9867   0.2743     N
Cu     0.43622  0.13801  0.41703    Cu
Gd     0.43719  0.87541  0.33375    Gd
C       0.4374   0.4108   0.2992     C
Gd     0.43822  0.56281  0.33375    Gd
H       0.4387   0.8526   0.6222     H
H       0.4389   0.4105   0.7376     H
H      0.43983  0.21447  0.85197     H
C       0.4399   0.9711   0.7374     C
H       0.4411   0.9717   0.2984     H
C       0.4412   0.0236   0.3021     C
H       0.4413   0.8935   0.1853     H
H      0.44133  0.15647  0.67827     H
H       0.4417   0.4228   0.3356     H
C       0.4421   0.5875   0.6961     C
C       0.4433   0.2688   0.1223     C
H       0.4435   0.3699    0.338     H
H       0.4436   0.4695   0.0145     H
O       0.4437   0.9147   0.2577     O
N      0.44423  0.11977  0.62117     N
H      0.44447  0.72673  0.36373     H
H       0.4453   0.0215    0.341     H
H       0.4454   0.0746   0.0069     H
H       0.4454   0.7857   0.9507     H
C      0.44607  0.72343  0.40303     C
C       0.4466   0.9168   0.2045     C
N      0.44747  0.68263  0.41423     N
Gd     0.44886  0.90183  0.82513    Gd
H       0.4489   0.3819   0.9953     H
N       0.4495   0.4362   0.7257     N
N       0.4504   0.8195   0.6689     N
O       0.4506   0.9505   0.9669     O
O       0.4522   0.2984   0.1488     O
H       0.4522   0.5587   0.1853     H
H      0.45237  0.67363  0.38263     H
O       0.4528   0.2668   0.0742     O
Gd     0.45298  0.55114  0.82513    Gd
N       0.4531   0.3422   0.0455     N
O      0.45317  0.60933  0.40623     O
O       0.4565   0.9489    0.177     O
H       0.4573   0.3242   0.0268     H
Gd     0.45792  0.22845  0.00042    Gd
H       0.4585   0.2039   0.1372     H
H      0.45917  0.68963  0.65993     H
Cu     0.46008  0.14717  0.54753    Cu
O       0.4606   0.6395   0.9172     O
N        0.461   0.0328    0.016     N
Cu     0.46123   0.4877  0.91923    Cu
Cu     0.46192  0.82253  0.86765    Cu
H      0.46277  0.58793  0.47053     H
C      0.46367  0.61113  0.45673     C
O      0.46613  0.28557  0.48047     O
O      0.46637  0.17431  0.47767     O
H      0.46643  0.12397  0.63987     H
O      0.46753  0.30307  0.60267     O
C       0.4688   0.4399   0.2626     C
H       0.4694   0.4411   0.7016     H
H       0.4695   0.0259   0.9855     H
H       0.4699   0.8254   0.6437     H
C       0.4702   0.5534   0.2045     C
C       0.4704    0.074   0.0121     C
C       0.4705   0.3809   0.0152     C
O        0.471   0.5563   0.2577     O
Cu     0.47134  0.36845  0.24964    Cu
O      0.47153  0.18967  0.35587     O
O      0.47183  0.23807  0.40787     O
Cu     0.47283  0.47426  0.78976    Cu
Cu     0.47426  0.00143  0.21024    Cu
O      0.47447  0.63883  0.48873     O
Cu     0.47464   0.8462  0.73877    Cu
O       0.4748   0.9998   0.7389     O
O        0.475   0.4748   0.2611     O
C       0.4763   0.0633   0.2805     C
O        0.477   0.6152   0.6892     O
H      0.47757  0.74333  0.69633     H
C      0.47873  0.22457  0.36277     C
Cu      0.4805  0.35375  0.11914    Cu
O      0.48067  0.88053  0.40753     O
H      0.48073  0.25277  0.28887     H
C       0.4808    0.203   0.1234     C
O       0.4824   0.0925   0.3028     O
C      0.48247  0.76033  0.42573     C
H      0.48347  0.90603  0.47333     H
O      0.48548  0.51372   0.8494     O
O       0.4861   0.8672   0.8138     O
N      0.48617  0.70243  0.66443     N
O      0.48628  0.97176   0.8494     O
O      0.48713  0.11887  0.51787     O
Cu     0.48713  0.29511  0.40544    Cu
H       0.4873   0.0863     0.98     H
Cu      0.4877  0.02647  0.08077    Cu
O      0.48777  0.79393  0.41613     O
O       0.4892   0.4267   0.2379     O
Cu      0.4892  0.69394  0.46568    Cu
O       0.4895   0.2135   0.0729     O
H       0.4898   0.3818   0.9884     H
C       0.4915   0.0982    0.061     C
C       0.4916   0.4179   0.0521     C
H      0.49207  0.68883  0.68963     H
C      0.49217  0.89003  0.45563     C
O      0.49236   0.6254    0.811     O
O       0.4924   0.5435    0.177     O
O       0.4926   0.0579   0.2351     O
O      0.49393  0.24717  0.54387     O
O       0.4941   0.9167   0.9053     O
O       0.4977   0.1922   0.1554     O
O       0.4978   0.1342    0.064     O
C      0.49973  0.25837  0.31867     C
O      0.49977   0.4119   0.1009     O
O       0.4999   0.5494   0.9669     O
O       0.5001   0.4506   0.0331     O
O      0.50023   0.5881   0.8991     O
C      0.50027  0.74163  0.68133     C
O       0.5022   0.8658    0.936     O
O       0.5023   0.8078   0.8446     O
O       0.5059   0.0833   0.0947     O
O      0.50607  0.75283  0.45613     O
O       0.5074   0.9421   0.7649     O
O       0.5076   0.4565    0.823     O
O      0.50764   0.3746    0.189     O
C      0.50783  0.10997  0.54437     C
H      0.50793  0.31117  0.31037     H
C       0.5084   0.5821   0.9479     C
C       0.5085   0.9018    0.939     C
H       0.5102   0.6182   0.0116     H
O       0.5105   0.7865   0.9271     O
Cu      0.5108  0.30606  0.53432    Cu
O       0.5108   0.5733   0.7621     O
O      0.51223  0.20607  0.58387     O
Cu      0.5123  0.97353  0.91923    Cu
H       0.5127   0.9137     0.02     H
Cu     0.51287  0.70489  0.59456    Cu
O      0.51287  0.88113  0.48213     O
O      0.51372  0.02824   0.1506     O
N      0.51383  0.29757  0.33557     N
O       0.5139   0.1328   0.1862     O
O      0.51452  0.48628   0.1506     O
H      0.51653  0.09397  0.52667     H
C      0.51753  0.23967  0.57427     C
O       0.5176   0.9075   0.6972     O
C       0.5192    0.797   0.8766     C
H      0.51927  0.74723  0.71113     H
O      0.51933  0.11947  0.59247     O
Cu      0.5195  0.64625  0.88086    Cu
C      0.52127  0.77543  0.63723     C
H      0.52243  0.25667  0.30367     H
O        0.523   0.3848   0.3108     O
C       0.5237   0.9367   0.7195     C
O        0.525   0.5252   0.7389     O
O       0.5252   0.0002   0.2611     O
Cu     0.52536   0.1538  0.26123    Cu
O      0.52553  0.36117  0.51127     O
Cu     0.52574  0.99857  0.78976    Cu
Cu     0.52717  0.52574  0.21024    Cu
O      0.52817  0.76193  0.59213     O
O      0.52847  0.81033  0.64413     O
Cu     0.52866  0.63155  0.75036    Cu
O        0.529   0.4437   0.7423     O
C       0.5295   0.6191   0.9848     C
C       0.5296    0.926   0.9879     C
C       0.5298   0.4466   0.7955     C
H       0.5301   0.1746   0.3563     H
H       0.5305   0.9741   0.0145     H
H       0.5306   0.5589   0.2984     H
C       0.5312   0.5601   0.7374     C
O      0.53247  0.69693  0.39733     O
H      0.53357  0.87603  0.36013     H
O      0.53363  0.82569  0.52233     O
O      0.53387  0.71443  0.51953     O
C      0.53633  0.38887  0.54327     C
H      0.53723  0.41207  0.52947     H
Cu     0.53808  0.17747  0.13235    Cu
Cu     0.53877   0.5123  0.08077    Cu
N        0.539   0.9672    0.984     N
O       0.5394   0.3605   0.0828     O
Cu     0.53992  0.85283  0.45247    Cu
H      0.54083  0.31037  0.34007     H
H       0.5415   0.7961   0.8628     H
Gd     0.54208  0.77155  0.99958    Gd
H       0.5427   0.6758   0.9732     H
O       0.5435   0.0511    0.823     O
O      0.54683  0.39067  0.59377     O
N       0.5469   0.6578   0.9545     N
Gd     0.54702  0.44886  0.17487    Gd
O       0.5472   0.7332   0.9258     O
H      0.54763  0.32637  0.61737     H
H       0.5478   0.4413   0.8147     H
O       0.5478   0.7016   0.8512     O
O       0.5494   0.0495   0.0331     O
N       0.5496   0.1805   0.3311     N
N       0.5505   0.5638   0.2743     N
H       0.5511   0.6181   0.0047     H
Gd     0.55114  0.09817  0.17487    Gd
N      0.55253  0.31737  0.58577     N
C       0.5534   0.0832   0.7955     C
C      0.55393  0.27657  0.59697     C
H       0.5546   0.2143   0.0493     H
H       0.5546   0.9254   0.9931     H
H       0.5547   0.9785    0.659     H
H      0.55553  0.27327  0.63627     H
N      0.55577  0.88023  0.37883     N
O       0.5563   0.0853   0.7423     O
H       0.5564   0.5305   0.9855     H
H       0.5565   0.6301    0.662     H
C       0.5567   0.7312   0.8777     C
C       0.5579   0.4125   0.3039     C
H       0.5583   0.5772   0.6644     H
H      0.55867  0.84353  0.32173     H
H       0.5587   0.1065   0.8147     H
C       0.5588   0.9764   0.6979     C
H       0.5589   0.0283   0.7016     H
C       0.5601   0.0289   0.2626     C
H      0.56017  0.78553  0.14803     H
H       0.5611   0.5895   0.2624     H
H       0.5613   0.1474   0.3778     H
Gd     0.56178  0.43719  0.66625    Gd
C       0.5626   0.5892   0.7008     C
Gd     0.56281  0.12459  0.66625    Gd
Cu     0.56378  0.86199  0.58297    Cu
N       0.5638   0.0133   0.7257     N
H       0.5638   0.2075   0.3266     H
N       0.5643   0.6275   0.6961     N
O       0.5653   0.5074   0.2351     O
H        0.566   0.9836   0.9813     H
O       0.5671   0.1385   0.2588     O
C      0.56847  0.72663  0.39433     C
N       0.5685   0.2192   0.0809     N
Gd      0.5685  0.78631   0.5082    Gd
O       0.5714   0.4329   0.2588     O
N       0.5718    0.539    0.016     N
H      0.57217  0.90723  0.38313     H
H       0.5727   0.7559     0.86     H
C        0.573   0.3888   0.0924     C
H       0.5732   0.2432   0.0943     H
O       0.5733   0.0625   0.2379     O
H       0.5739   0.6684   0.9502     H
O      0.57417  0.72323  0.63613     O
C       0.5747   0.1664    0.348     C
H       0.5762   0.5547    0.341     H
H      0.57653  0.33667  0.57237     H
C      0.57707  0.86283  0.34853     C
H       0.5772   0.0189   0.3356     H
O       0.5774   0.4941   0.0947     O
H      0.57743  0.48347  0.52667     H
H      0.57823  0.27897  0.58037     H
O       0.5788  0.83356  0.43423     O
O       0.5801   0.1606   0.1228     O
H      0.58037  0.73433  0.31333     H
O       0.5805   0.4199   0.1228     O
O      0.58137  0.80433  0.07563     O
C       0.5821   0.0737   0.0521     C
C       0.5824   0.5588   0.3021     C
H       0.5824    0.566   0.0187     H
O      0.58337  0.75593  0.42803     O
C      0.58347  0.80353  0.12883     C
H       0.5837   0.9756    0.702     H
H       0.5861   0.4387   0.3778     H
C        0.587   0.5237   0.2805     C
C       0.5875   0.1454   0.3039     C
H      0.58793  0.12517  0.52947     H
O       0.5881  0.08787   0.1009     O
H       0.5887   0.5939   0.7138     H
C       0.5892   0.0266   0.2992     C
H       0.5895   0.0284   0.7376     H
H       0.5899   0.6477   0.7013     H
H         0.59   0.4009    0.363     H
C       0.5917   0.4253    0.348     C
H      0.59207  0.70413  0.34023     H
C      0.59267  0.72973  0.34543     C
C      0.59297  0.84173  0.38543     C
H      0.59307  0.88983  0.67133     H
H       0.5939   0.0052   0.2862     H
H        0.599   0.5127     0.98     H
H       0.5991   0.1891    0.363     H
H      0.59967  0.88443  0.32863     H
O      0.60013  0.48067  0.59247     O
C      0.60213  0.49217  0.54437     C
C      0.60337  0.74633  0.61383     C
N      0.60347  0.89763  0.63723     N
C       0.6036   0.5296   0.0121     C
O      0.60417  0.84413  0.57123     O
H       0.6066   0.3844   0.0304     H
C       0.6067   0.5085    0.061     C
H       0.6081   0.5837    0.298     H
O      0.60877  0.76803  0.56843     O
H      0.60887  0.92323  0.63203     H
O      0.60933  0.15617  0.59377     O
C       0.6099   0.3893   0.0697     C
O       0.6101   0.5176   0.3028     O
C       0.6107   0.2206   0.0697     C
C      0.61113  0.14747  0.54327     C
C       0.6112   0.1842   0.0924     C
H       0.6123   0.3674   0.0863     H
O       0.6152   0.1382   0.3108     O
O      0.61557  0.82573  0.15633     O
H       0.6156   0.2222   0.0304     H
O      0.61717  0.83323  0.36643     O
H       0.6181    0.067   0.9953     H
H       0.6182    0.108   0.9884     H
O       0.6189   0.4861   0.1862     O
C       0.6191   0.0896   0.0152     C
O       0.6254  0.13304    0.189     O
N       0.6275   0.0632   0.3039     N
Cu     0.62844  0.47464  0.26123    Cu
H       0.6292   0.5546   0.0069     H
H       0.6301   0.0736    0.338     H
N       0.6309   0.4504   0.3311     N
Cu     0.63155  0.10289  0.24964    Cu
O      0.63173  0.51287  0.51787     O
H       0.6326   0.2449   0.0863     H
N      0.63387  0.76153  0.34933     N
O       0.6364   0.5022    0.064     O
C      0.63777  0.86453  0.59593     C
H      0.63827  0.89443  0.07093     H
H      0.63837  0.86393  0.03493     H
O      0.63843  0.81881  0.48393     O
O      0.63883  0.16437  0.51127     O
Cu     0.63939  0.46192  0.13235    Cu
O       0.6395   0.1789   0.0828     O
C      0.64007  0.89593  0.63253     C
Cu      0.6402  0.79456   0.4141    Cu
H      0.64077  0.77693  0.31883     H
H      0.64227  0.72523  0.63133     H
C      0.64307  0.75093  0.63543     C
H       0.6437   0.4362   0.3266     H
H       0.6445   0.4699   0.3563     H
H      0.64517  0.75713  0.67433     H
Cu     0.64625  0.12675  0.11914    Cu
H       0.6477   0.0578   0.2987     H
H      0.64777  0.89163  0.66893     H
H      0.65027  0.75093  0.35203     H
N       0.6507   0.4315   0.0809     N
N      0.65337  0.88383  0.05903     N
H      0.65753  0.53357  0.63987     H
N       0.6578   0.1109   0.0455     N
H       0.6597   0.4454   0.0493     H
H      0.66147  0.92203  0.61953     H
H      0.66333  0.23987  0.57237     H
H      0.66493  0.57217  0.61687     H
Cu     0.66524  0.80616  0.54357    Cu
O      0.66647  0.85833  0.59443     O
O      0.66687  0.80833  0.07223     O
Cu      0.6681   0.8605  0.12309    Cu
H       0.6684   0.0945   0.0498     H
H         0.67   0.4268   0.0943     H
H      0.67187  0.74463  0.04713     H
H      0.67363  0.22127  0.61737     H
N      0.67553  0.55577  0.62117     N
H       0.6758   0.1331   0.0268     H
N      0.67997  0.78283  0.60763     N
N      0.68263  0.23517  0.58577     N
H      0.68307  0.91573  0.31463     H
H      0.68557  0.77503  0.99773     H
H      0.68563  0.60887  0.36797     H
Cu     0.68708  0.53992  0.54753    Cu
H      0.68817  0.90953  0.99233     H
H      0.68883  0.19677  0.31037     H
H      0.68963  0.23047  0.34007     H
C      0.69027  0.91573  0.03123     C
H      0.69107  0.94143  0.03533     H
H      0.69257  0.88973  0.34783     H
Cu     0.69314   0.8721  0.25256    Cu
C      0.69327  0.77073  0.03413     C
O      0.69383  0.48777  0.58387     O
Cu     0.69394  0.20475  0.53432    Cu
O       0.6945   0.5023   0.1554     O
O      0.69491  0.84785  0.18273     O
H      0.69497  0.80273  0.63173     H
H      0.69507  0.77223  0.59573     H
C      0.69557  0.80213  0.07073     C
O      0.69693  0.16447  0.60267     O
N      0.69947  0.90513  0.31733     N
H      0.70073  0.42177  0.58037     H
O       0.7016   0.1538   0.1488     O
Cu     0.70178  0.56378  0.41703    Cu
N      0.70243  0.21627  0.33557     N
H      0.70323  0.59307  0.32867     H
H      0.70413  0.11207  0.65977     H
Cu     0.70489  0.19203  0.40544    Cu
N      0.70583  0.60347  0.36277     N
O      0.70793  0.53363  0.47767     O
C      0.71423  0.57707  0.65147     C
O      0.71443  0.18057  0.48047     O
H      0.71513  0.55867  0.67827     H
H      0.71523  0.59967  0.67137     H
O      0.71617  0.83343  0.30023     O
H      0.71773  0.44447  0.63627     H
O      0.71777  0.84093  0.51033     O
O      0.71813  0.52847  0.35587     O
H      0.72103  0.29927  0.58037     H
C      0.72213  0.48247  0.57427     C
C       0.7222   0.5192   0.1234     C
C      0.72263  0.44607  0.59697     C
O      0.72323  0.14907  0.36387     O
C      0.72343  0.27737  0.59697     C
O        0.724   0.5105   0.0729     O
H      0.72447  0.74343  0.03463     H
O      0.72457  0.89863  0.09823     O
H      0.72523  0.08297  0.36867     H
C      0.72663  0.15817  0.60567     C
H      0.72673  0.28227  0.63627     H
O      0.72917  0.82253  0.09543     O
C      0.72973  0.13707  0.65457     C
N      0.72987  0.76903  0.02943     N
C      0.72997  0.92033  0.05283     C
C       0.7312   0.1745   0.1223     C
O       0.7332    0.186   0.0742     O
H      0.73367  0.78223  0.33803     H
H      0.73423  0.47757  0.30367     H
H      0.73433  0.15397  0.68667     H
H      0.73943  0.66147  0.38047     H
H      0.74027  0.77683  0.99533     H
C      0.74037  0.82493  0.28123     C
C      0.74067  0.93693  0.32123     C
H      0.74127  0.96253  0.32643     H
C      0.74163  0.24137  0.31867     C
H      0.74333  0.26577  0.30367     H
H      0.74343  0.01897  0.96537     H
H      0.74383  0.63827  0.92907     H
C      0.74413  0.64007  0.36747     C
H      0.74463  0.07277  0.95287     H
O      0.74523   0.5788  0.56577     O
H       0.7454   0.5415   0.1372     H
C      0.74583  0.52127  0.36277     C
C      0.74633  0.14297  0.38617     C
H      0.74723  0.22797  0.28887     H
H      0.74963  0.69107  0.96467     H
C      0.74987  0.86313  0.53783     C
O      0.74997  0.91073  0.23863     O
H      0.75093  0.10067  0.64797     H
C      0.75093  0.10787  0.36457     C
C      0.75123  0.59297  0.61457     C
O      0.75197  0.86233  0.59103     O
O      0.75283  0.24677  0.54387     O
H      0.75297  0.93233  0.35333     H
O      0.75323  0.50607  0.54387     O
O      0.75454   0.8331  0.23243     O
H       0.7551   0.3877   0.0863     H
H       0.7559   0.1832     0.14     H
O      0.75593  0.17257  0.57197     O
H      0.75613  0.64777  0.33107     H
C      0.75627  0.80383  0.31813     C
H       0.7568     0.33   0.0943     H
H      0.75713  0.11197  0.32567     H
C      0.75863  0.50027  0.31867     C
O      0.75917  0.94343  0.03053     O
H      0.75943  0.99827  0.71647     H
O      0.76003  0.60417  0.42877     O
H      0.76013  0.42347  0.57237     H
C      0.76033  0.27787  0.57427     C
H      0.76063  0.91077  0.80667     H
H      0.76117  0.75943  0.28353     H
N      0.76153  0.12767  0.65067     N
O      0.76193  0.23377  0.40787     O
N      0.76483  0.44747  0.58577     N
Gd     0.76483  0.88036  0.15846    Gd
C      0.76487  0.94003  0.27233     C
O      0.76623  0.52817  0.40787     O
H      0.76733  0.68307  0.68537     H
O      0.76803  0.15927  0.43157     O
N      0.76903  0.03917  0.97057     N
H      0.76953  0.45917  0.34007     H
N      0.76953  0.65337  0.94097     N
Cu     0.76956  0.80467  0.08369    Cu
Gd     0.77052  0.54208  0.00042    Gd
C      0.77073  0.07747  0.96587     C
Gd     0.77155  0.22948  0.00042    Gd
H      0.77203  0.51927  0.28887     H
H      0.77223  0.07717  0.40427     H
H      0.77317  0.88113  0.51863     H
C      0.77323  0.63777  0.40407     C
H      0.77443  0.63837  0.96507     H
C      0.77453  0.69027  0.96877     C
H      0.77463  0.56017  0.85197     H
H      0.77467  0.82313  0.34493     H
H      0.77503  0.08947  0.00227     H
C      0.77543  0.25417  0.36277     C
C      0.77663  0.93547  0.78897     C
H      0.77683  0.03657  0.00467     H
H      0.77693  0.13617  0.68117     H
O      0.77703  0.58137  0.92437     O
N      0.77757  0.78643  0.28783     N
H       0.7778   0.3934   0.0304     H
H      0.77863  0.68817  0.00767     H
H      0.77873  0.45237  0.61737     H
H      0.77873  0.74127  0.67357     H
C       0.7794   0.3901   0.0697     C
C      0.77993  0.58347  0.87117     C
N       0.7808   0.3493   0.0809     N
Gd     0.78219   0.5685   0.4918    Gd
H      0.78223  0.04857  0.66197     H
N      0.78283  0.10287  0.39237     N
N      0.78373  0.48617  0.33557     N
O      0.78393  0.61717  0.63357     O
H      0.78553  0.22537  0.85197     H
O      0.78553  0.96507  0.81547     O
H       0.7857   0.3403   0.0493     H
O      0.78613  0.93347  0.74087     O
Gd     0.78631  0.21781   0.4918    Gd
N      0.78643  0.00887  0.71217     N
O       0.7865    0.276   0.0729     O
O      0.78983  0.61557  0.84367     O
H      0.79063  0.99087  0.69347     H
Gd     0.79126  0.89511  0.66708    Gd
H      0.79183  0.87057  0.80387     H
H       0.7925   0.3563   0.3266     H
Cu     0.79342  0.81383  0.21419    Cu
O      0.79393  0.30617  0.58387     O
N      0.79433  0.69947  0.68267     N
Cu     0.79456  0.15437   0.5859    Cu
Cu     0.79525   0.4892  0.53432    Cu
H       0.7961   0.2546   0.1372     H
C        0.797   0.2778   0.1234     C
O      0.79947  0.95223  0.14713     O
O      0.79971  0.84097  0.14433     O
H      0.79977  0.79063  0.30653     H
O      0.80087  0.96973  0.26933     O
C      0.80213  0.10657  0.92927     C
H      0.80273  0.10777  0.36827     H
H      0.80283  0.69257  0.65217     H
H      0.80323  0.49207  0.31037     H
C      0.80353  0.22007  0.87117     C
C      0.80373  0.74067  0.67877     C
C      0.80383  0.04757  0.68187     C
O      0.80433  0.22297  0.92437     O
Cu     0.80467  0.03512  0.91631    Cu
O      0.80487  0.85633  0.02253     O
O      0.80517  0.90473  0.07453     O
Cu     0.80616  0.14093  0.45643    Cu
Cu     0.80759   0.6681  0.87691    Cu
O       0.8078   0.3055   0.1554     O
Cu     0.80797  0.51287  0.40544    Cu
O      0.80813  0.66647  0.40557     O
O      0.80833  0.14147  0.92777     O
C      0.80963  0.72997  0.94717     C
O      0.81033  0.28187  0.35587     O
H       0.8109     0.41    0.363     H
C      0.81207  0.89123  0.02943     C
Cu     0.81383  0.02042  0.78581    Cu
O        0.814   0.5472   0.0742     O
H      0.81407  0.91943  0.95553     H
C      0.81413  0.86967  0.79007     C
O      0.81573  0.75917  0.96947     O
C       0.8158    0.427   0.0924     C
H       0.8168   0.5727     0.14     H
O      0.81881  0.18039  0.51607     O
O      0.81943  0.53387  0.48047     O
N       0.8195   0.3691   0.3311     N
O      0.81961  0.63843  0.51607     O
O      0.82047  0.78553  0.18453     O
Cu     0.82047  0.96177   0.0721    Cu
H      0.82063  0.75297  0.64667     H
Cu     0.82103  0.69314  0.74744    Cu
O       0.8211   0.4606   0.0828     O
O      0.82253  0.09337  0.90457     O
Cu     0.82253  0.36061  0.13235    Cu
O      0.82283  0.88017  0.73957     O
H      0.82313  0.04847  0.65507     H
C      0.82483  0.76487  0.72767     C
C      0.82493  0.08457  0.71877     C
H       0.8254   0.3555   0.3563     H
C       0.8255   0.5567   0.1223     C
O      0.82569  0.29207  0.47767     O
O      0.82573  0.21017  0.84367     O
O      0.82593  0.72457  0.90177     O
O      0.82727  0.91383  0.21053     O
O      0.82743  0.58337  0.57197     O
O      0.83103  0.85887  0.82207     O
O      0.83113  0.80087  0.73067     O
C      0.83307  0.92503  0.98533     C
O       0.8331  0.07857  0.76757     O
O      0.83323  0.21607  0.63357     O
O      0.83343  0.11727  0.69977     O
O      0.83356  0.25477  0.56577     O
C       0.8336   0.4083    0.348     C
O      0.83553  0.53247  0.60267     O
O      0.83563  0.47447  0.51127     O
O      0.83923  0.74997  0.76137     O
O       0.8394   0.4195   0.1228     O
O      0.84073  0.60877  0.43157     O
O      0.84093  0.12317  0.48967     O
O      0.84097  0.04127  0.85567     O
C      0.84117  0.77663  0.21103     C
H      0.84127  0.97783  0.97703     H
C      0.84173  0.24877  0.61457     C
C      0.84183  0.56847  0.60567     C
H      0.84353  0.28487  0.67827     H
O      0.84383  0.45317  0.59377     O
O      0.84413  0.23997  0.42877     O
Cu     0.84414  0.97272  0.20098    Cu
O      0.84557  0.87273  0.25053     O
Cu     0.84563   0.6402   0.5859    Cu
H      0.84603  0.58037  0.68667     H
Cu      0.8462  0.37156  0.26123    Cu
O       0.8462   0.5478   0.1488     O
O      0.84705  0.69491  0.81727     O
N      0.84717  0.96423  0.00223     N
O      0.84723  0.79947  0.85287     O
O      0.84785  0.15295  0.81727     O
H      0.84987  0.76063  0.19333     H
C      0.85087  0.90633  0.24093     C
O      0.85093  0.57417  0.36387     O
C      0.85253  0.46367  0.54327     C
H       0.8526   0.4139   0.3778     H
O      0.85267  0.78613  0.25913     O
Cu     0.85283  0.31292  0.54753    Cu
C       0.8546   0.4421   0.3039     C
H      0.85577  0.92333  0.97033     H
O      0.85633  0.05147  0.97747     O
C      0.85703  0.60337  0.38617     C
O      0.85833  0.19187  0.40557     O
O      0.85853  0.66687  0.92777     O
Cu     0.85869  0.82047   0.9279    Cu
O      0.85887  0.02783  0.17793     O
Cu     0.85907  0.66524  0.45643    Cu
Cu      0.8605  0.19241  0.87691    Cu
O       0.8615   0.4286   0.2588     O
O       0.8618    0.477   0.3108     O
Cu     0.86199  0.29822  0.41703    Cu
O      0.86233  0.11037  0.40897     O
C      0.86283  0.28577  0.65147     C
C      0.86293  0.59267  0.65457     C
C      0.86313  0.11327  0.46217     C
H      0.86343  0.84127  0.02297     H
H      0.86383  0.64077  0.68117     H
H      0.86393  0.22557  0.96507     H
C      0.86453  0.22677  0.40407     C
O       0.8658   0.3636    0.064     O
H       0.8669   0.5427   0.0268     H
O      0.86696  0.49236    0.189     O
O       0.8672   0.3811   0.1862     O
C      0.86967  0.05553  0.20993     C
H      0.87057  0.07873  0.19613     H
Cu     0.87141  0.84414  0.79902    Cu
Cu      0.8721  0.17897  0.74744    Cu
N      0.87233  0.63387  0.65067     N
O      0.87273  0.02717  0.74947     O
Cu     0.87325   0.5195  0.11914    Cu
H      0.87417  0.97703  0.00673     H
H      0.87483  0.46277  0.52947     H
Gd     0.87541  0.43822  0.66625    Gd
H      0.87603  0.34247  0.63987     H
O      0.87683  0.71777  0.48967     O
O      0.88017  0.05733  0.26043     O
N      0.88023  0.32447  0.62117     N
Gd     0.88036  0.11552  0.84154    Gd
O      0.88053  0.39987  0.59247     O
H      0.88097  0.99303  0.28403     H
H      0.88113  0.10797  0.48137     H
O      0.88113  0.36827  0.51787     O
O      0.88273  0.71617  0.69977     O
N      0.88293  0.84717  0.99777     N
N      0.88383  0.23047  0.94097     N
H      0.88443  0.28477  0.67137     H
Gd     0.88448  0.76483  0.84154    Gd
N      0.88587  0.98403  0.25243     N
C      0.88673  0.74987  0.46217     C
C      0.88727  0.94323  0.26363     C
H      0.88793  0.59207  0.65977     H
H      0.88793  0.88097  0.71597     H
H      0.88803  0.64517  0.32567     H
H      0.88887  0.93993  0.30293     H
N       0.8891   0.5469   0.0455     N
O      0.88963  0.75197  0.40897     O
H      0.88973  0.19717  0.65217     H
H      0.88983  0.29677  0.32867     H
C      0.89003  0.39787  0.54437     C
C      0.89123  0.07917  0.97057     C
H      0.89163  0.24387  0.33107     H
H        0.892   0.5102   0.9884     H
H      0.89203  0.77317  0.48137     H
C      0.89213  0.64307  0.36457     C
H      0.89223  0.69497  0.36827     H
C      0.89343  0.69557  0.92927     C
H       0.8935   0.4522   0.8147     H
H      0.89443  0.25617  0.92907     H
H      0.89463  0.81407  0.04447     H
Gd     0.89511  0.10386  0.33292    Gd
C      0.89593  0.25587  0.36747     C
Gd     0.89614  0.79126  0.33292    Gd
Cu     0.89711  0.52866  0.24964    Cu
N      0.89713  0.67997  0.39237     N
H      0.89713  0.87417  0.99327     H
N      0.89763  0.29417  0.36277     N
O      0.89863  0.17407  0.90177     O
H      0.89933  0.65027  0.64797     H
O      0.90043  0.80517  0.92547     O
C       0.9018   0.3933    0.061     C
Gd     0.90183  0.45298  0.17487    Gd
N      0.90183  0.88587  0.74757     N
O      0.90473  0.09957  0.92547     O
N      0.90513  0.20567  0.68267     N
H       0.9055   0.5739   0.0498     H
H      0.90603  0.42257  0.52667     H
C      0.90633  0.05547  0.75907     C
H      0.90653  0.90987  0.76097     H
O      0.90663  0.72917  0.90457     O
H      0.90723  0.33507  0.61687     H
O       0.9075   0.3899   0.3028     O
C      0.90803  0.83307  0.01467     C
H      0.90953  0.22137  0.00767     H
H      0.90987  0.00333  0.23903     H
C       0.9104   0.5295   0.0152     C
H      0.91053  0.68557  0.00227     H
O      0.91073  0.16077  0.76137     O
H      0.91077  0.15013  0.19333     H
H      0.91157  0.94563  0.24703     H
O      0.91213  0.50023   0.1009     O
O      0.91343  0.82727  0.78947     O
H       0.9137    0.401     0.98     H
O      0.91383  0.08657  0.78947     O
O       0.9147    0.471   0.7423     O
C      0.91543  0.74037  0.71877     C
C      0.91573  0.22547  0.96877     C
H      0.91573  0.23267  0.68537     H
O       0.9167   0.4226   0.0947     O
C       0.9168   0.4702   0.7955     C
H      0.91703  0.64227  0.36867     H
H      0.91943  0.10537  0.04447     H
C      0.92033  0.19037  0.94717     C
C      0.92083  0.81207  0.97057     C
H      0.92127  0.79183  0.19613     H
O      0.92143  0.75454  0.76757     O
H      0.92203  0.26057  0.38047     H
C      0.92253  0.69327  0.96587     C
H      0.92283  0.69507  0.40427     H
H      0.92323  0.31437  0.36797     H
H      0.92333  0.06757  0.02967     H
C      0.92503  0.09197  0.01467     C
H       0.9254   0.3708   0.0069     H
C        0.926   0.3964   0.0121     C
C       0.9263   0.5084   0.0521     C
H       0.9264   0.5565    0.338     H
H      0.92723  0.67187  0.95287     H
H      0.93233  0.17937  0.64667     H
H      0.93243  0.85577  0.02967     H
H        0.933   0.5511   0.9953     H
O      0.93347  0.14733  0.25913     O
C      0.93547  0.15883  0.21103     C
C       0.9367    0.413   0.2805     C
N       0.9368   0.5643   0.3039     N
C      0.93693  0.19627  0.67877     C
O       0.9375   0.5108   0.2379     O
H      0.93993  0.05107  0.69707     H
C      0.94003  0.17517  0.72767     C
H      0.94143  0.25037  0.96467     H
O       0.9421   0.4347   0.2351     O
H       0.9422   0.5899   0.2987     H
O      0.94267  0.82283  0.26043     O
C      0.94323  0.05597  0.73637     C
O      0.94343  0.18427  0.96947     O
C      0.94403  0.88727  0.73637     C
C      0.94447  0.81413  0.20993     C
C      0.94453  0.85087  0.75907     C
H      0.94563  0.03407  0.75297     H
O      0.94853  0.80487  0.97747     O
O       0.9489   0.4924    0.823     O
H      0.94893  0.88887  0.69707     H
O       0.9505   0.4999   0.0331     O
H      0.95143  0.73367  0.66197     H
H      0.95153  0.77467  0.65507     H
O      0.95223  0.15277  0.85287     O
C      0.95243  0.75627  0.68187     C
O      0.95873  0.79971  0.85567     O
N      0.96083  0.72987  0.97057     N
Cu     0.96177  0.14131   0.9279    Cu
H      0.96253  0.22127  0.67357     H
H      0.96343  0.74027  0.00467     H
N      0.96423  0.11707  0.99777     N
Cu     0.96488  0.76956  0.91631    Cu
O      0.96507  0.17953  0.18453     O
H      0.96593  0.91157  0.75297     H
N       0.9672   0.4282    0.016     N
O      0.96973  0.16887  0.73067     O
C       0.9711   0.5312   0.2626     C
H       0.9716   0.5611   0.7376     H
H       0.9717   0.5306   0.7016     H
O      0.97176  0.48548   0.1506     O
O      0.97217  0.83103  0.17793     O
Cu     0.97272  0.12859  0.79902    Cu
O      0.97283  0.84557  0.74947     O
C       0.9734   0.5626   0.2992     C
Cu     0.97353  0.46123  0.08077    Cu
H       0.9741   0.4436   0.9855     H
H       0.9756   0.3919    0.298     H
C       0.9764   0.4176   0.3021     C
H      0.97703  0.10287  0.99327     H
H      0.97783  0.13657  0.02297     H
H       0.9785   0.4238    0.341     H
Cu     0.97958  0.79342  0.78581    Cu
H      0.98103  0.72447  0.96537     H
H       0.9811   0.5583   0.3356     H
H       0.9836   0.4176   0.0187     H
N      0.98403  0.09817  0.74757     N
N       0.9867   0.5505   0.7257     N
H      0.99087  0.20023  0.30653     H
N      0.99113  0.77757  0.71217     N
H      0.99303  0.11207  0.71597     H
H       0.9948   0.5887   0.2862     H
H      0.99667  0.90653  0.23903     H
H      0.99827  0.23883  0.28353     H
Cu     0.99857  0.47283  0.21024    Cu
O       0.9998    0.525   0.2611     O
