data_I
_chemical_name_common  '/home/zhangsd/repos/MofS-CGCNN/ML/data/SSD/clean_cifs/KIPJUQ_clean'
_cell_length_a  8.07220
_cell_length_b 21.22470
_cell_length_c 22.78990
_cell_angle_alpha 82.62200
_cell_angle_beta  82.40400
_cell_angle_gamma 80.07900
_space_group_name_H-M_alt      'P 1'


loop_
_space_group_symop_operation_xyz
  'x, y, z' 

loop_
_atom_site_label
_atom_site_fract_x
_atom_site_fract_y
_atom_site_fract_z
_atom_site_type_symbol
F       0.0094  0.11177  0.51702     F
C       0.0131  0.16841  0.21232     C
C       0.0167  0.69635  0.42941     C
C       0.0178  0.72129  0.54571     C
C       0.0184   0.0136  0.67392     C
H       0.0192   0.6885   0.3901     H
C        0.021  0.89257  0.76539     C
H       0.0214   0.7302   0.5844     H
F       0.0285  0.85472  0.57399     F
F       0.0302  0.01382  0.36904     F
H       0.0304   0.2525   0.8493     H
H       0.0347   0.0723   0.2154     H
F       0.0431  0.07288  0.65079     F
O        0.047  0.72679  0.02162     O
O       0.0557  0.16899  0.98635     O
C       0.0586   0.2266  0.96336     C
O       0.0677  0.66702  0.75321     O
C       0.0703  0.70918  0.78657     C
C       0.0712  0.77801  0.75888     C
C        0.077   0.2472  0.55156     C
O       0.0802  0.69832  0.84209     O
C       0.0831  0.23558  0.49182     C
C       0.0903  0.12604  0.46289     C
H       0.1009   0.0883   0.7466     H
C       0.1068  0.65149  0.46817     C
C       0.1128  0.66539  0.52601     C
F       0.1136  0.97953  0.28353     F
H       0.1353   0.2173   0.5781     H
C       0.1355  0.90297  0.71528     C
O       0.1424   0.6069  0.62102     O
C       0.1443  0.17359  0.16011     C
C       0.1447  0.24634  0.85454     C
H       0.1549   0.1152   0.8368     H
F       0.1567  0.75094   0.2866     F
C       0.1602  0.05761  0.77232     C
O       0.1602  0.13093  0.12394     O
O       0.1651  0.03021  0.96514     O
F       0.1734  0.80132  0.19836     F
C        0.174   0.9722   0.6992     C
O       0.1745  0.53923  0.48985     O
C       0.1768  0.78863  0.70647     C
F        0.181  0.07157  0.44608     F
C       0.1812  0.58682  0.45026     C
C       0.1934  0.07386  0.82636     C
C       0.1937  0.23568  0.91196     C
Er     0.19764  0.57546  0.71577    Er
C       0.1978  0.17912  0.46369     C
O       0.2041  0.46564  0.70424     O
C       0.2102  0.85021   0.6844     C
C       0.2153  0.99573  0.75665     C
C       0.2182  0.62124  0.56961     C
H       0.2264    0.754   0.6856     H
H       0.2313   0.2544   0.7671     H
H       0.2355   0.1366   0.3512     H
O       0.2365  0.21551  0.15647     O
Er      0.2396  0.09361  0.03639    Er
O       0.2512   0.5788  0.39781     O
C       0.2579   0.7545  0.23503     C
C       0.2655  0.24775  0.80513     C
F       0.2677  0.69987  0.21206     F
C       0.2727  0.20523  0.40114     C
C       0.2742  0.17568  0.34927     C
H       0.2816   0.8562   0.6493     H
C       0.2839  0.02854  0.86485     C
C       0.2841   0.0459  0.92683     C
F       0.2857  0.85753  0.29544     F
F       0.3028  0.96761  0.59861     F
F       0.3047  0.11865  0.55148     F
O       0.3072  0.39153   0.5107     O
C       0.3104  0.95129  0.79444     C
C       0.3299  0.97761  0.65293     C
C       0.3352  0.20648  0.29471     C
C       0.3361  0.26267  0.39651     C
H       0.3378   0.1867   0.2604     H
H       0.3384   0.2815    0.431     H
C       0.3455  0.45443  0.67317     C
C       0.3456  0.96615  0.84859     C
O       0.3502  0.19276  0.02302     O
C        0.351  0.14988   0.4992     C
H       0.3515   0.9104   0.7831     H
C       0.3635  0.23167   0.9189     C
O       0.3712  0.60337  0.55293     O
O       0.3727  0.36072  0.22396     O
F       0.3763  0.03543  0.64858     F
O       0.3786  0.39709  0.36927     O
C       0.3798  0.40847  0.54995     C
Er     0.38652   0.4711   0.4331    Er
O        0.388   0.6443   0.6861     O
F       0.3888  0.87993  0.20434     F
O        0.389  0.07858  0.93963     O
C       0.3911  0.26437  0.28958     C
C       0.3963  0.29302  0.34181     C
H       0.4017   0.7702    0.125     H
C       0.4073  0.38567  0.66114     C
C        0.415  0.84077  0.25419     C
C       0.4151  0.36441   0.6047     C
C       0.4173  0.22762  0.97917     C
C       0.4247  0.30102    0.229     C
O       0.4308  0.49892  0.65658     O
F       0.4334  0.19593  0.51014     F
C       0.4336  0.91464  0.88964     C
C        0.434  0.76849  0.24378     C
O       0.4358   0.4623  0.54172     O
C       0.4378  0.23933  0.81179     C
H       0.4385   0.3551   0.7468     H
O        0.441  0.85763  0.87908     O
H       0.4441   0.7867   0.3603     H
F       0.4447   0.1469  0.72759     F
C       0.4496  0.34139  0.70915     C
F       0.4626  0.10933  0.46826     F
F       0.4634  0.93498  0.66857     F
Er     0.46439  0.24905  0.09572    Er
C       0.4678  0.29986   0.5986     C
C       0.4678  0.35399  0.34122     C
H       0.4701   0.2855   0.5616     H
O       0.4772    0.738  0.01168     O
C       0.4828  0.74383  0.35448     C
C       0.4848  0.23308  0.86961     C
O       0.4904  0.93187  0.93352     O
C       0.4912  0.72346  0.29788     C
O        0.499  0.26989  0.18703     O
O        0.501  0.73011  0.81297     O
C       0.5088  0.27654  0.70212     C
O       0.5096  0.06813  0.06648     O
C       0.5152  0.76692  0.13039     C
C       0.5172  0.25617  0.64552     C
O       0.5228    0.262  0.98832     O
H       0.5299   0.7145   0.4384     H
C       0.5322  0.64601  0.65878     C
C       0.5322  0.70014   0.4014     C
Er     0.53561  0.75095  0.90428    Er
F       0.5366  0.06502  0.33143     F
F       0.5374  0.89067  0.53174     F
C       0.5504  0.65861  0.29085     C
F       0.5553   0.8531  0.27241     F
H       0.5559   0.2133   0.6397     H
O        0.559  0.14237  0.12092     O
H       0.5615   0.6449   0.2532     H
C       0.5622  0.76067  0.18821     C
O       0.5642   0.5377  0.45828     O
C        0.566  0.23151  0.75622     C
C       0.5664  0.08536  0.11036     C
F       0.5666  0.80407  0.48986     F
O       0.5692  0.50108  0.34342     O
C       0.5753  0.69898    0.771     C
C       0.5827  0.77238  0.02083     C
C       0.5849  0.63559   0.3953     C
C        0.585  0.15923  0.74581     C
C       0.5927  0.61433  0.33886     C
H       0.5983   0.2298    0.875     H
C       0.6037  0.70698  0.65819     C
C       0.6089  0.73563  0.71042     C
O        0.611  0.92142  0.06037     O
F       0.6112  0.12007  0.79566     F
O        0.612   0.3557   0.3139     O
Er     0.61348   0.5289   0.5669    Er
C       0.6202  0.59153  0.45005     C
O       0.6214  0.60291  0.63073     O
F       0.6237  0.96457  0.35142     F
O       0.6273  0.63928  0.77604     O
O       0.6288  0.39663  0.44707     O
C       0.6365  0.76833   0.0811     C
H       0.6485   0.0896   0.2169     H
C        0.649  0.85012   0.5008     C
O       0.6498  0.80724  0.97698     O
C       0.6544  0.03385  0.15141     C
C       0.6545  0.54557  0.32683     C
H       0.6616   0.7185    0.569     H
H       0.6622   0.8133   0.7396     H
C       0.6639  0.73733  0.60349     C
C       0.6648  0.79352  0.70529     C
C       0.6701  0.02239  0.34707     C
C       0.6896  0.04871  0.20556     C
O       0.6928  0.60847   0.4893     O
F       0.6953  0.88135  0.44852     F
F       0.6972  0.03239  0.40139     F
F       0.7143  0.14247  0.70456     F
C       0.7159   0.9541  0.07317     C
C       0.7161  0.97146  0.13515     C
H       0.7184   0.1438   0.3507     H
C       0.7258  0.82432  0.65073     C
C       0.7273  0.79477  0.59886     C
F       0.7323  0.30013  0.78794     F
C       0.7345  0.75225  0.19487     C
C       0.7421   0.2455  0.76497     C
O       0.7488   0.4212  0.60219     O
Er      0.7604  0.90639  0.96361    Er
O       0.7635  0.78449  0.84353     O
H       0.7645   0.8634   0.6488     H
H       0.7687   0.7456   0.2329     H
H       0.7736    0.246   0.3144     H
C       0.7818  0.37876  0.43039     C
C       0.7847  0.00427  0.24335     C
C       0.7898  0.14979   0.3156     C
O       0.7959  0.53436  0.29576     O
C       0.8022  0.82088  0.53631     C
Er     0.80236  0.42454  0.28423    Er
C       0.8063  0.76432  0.08804     C
C       0.8066  0.92614  0.17364     C
C       0.8188  0.41318  0.54974     C
F        0.819  0.92843  0.55392     F
C       0.8232  0.21137  0.29353     C
O       0.8255  0.46077  0.51015     O
C        0.826   0.0278   0.3008     C
F       0.8266  0.19868  0.80164     F
O       0.8349  0.96979  0.03486     O
O       0.8398  0.86907  0.87606     O
C       0.8398  0.94239  0.22768     C
F       0.8433  0.24906   0.7134     F
H       0.8451   0.8848   0.1632     H
C       0.8553  0.75366  0.14546     C
C       0.8557  0.82641  0.83989     C
O       0.8576   0.3931  0.37898     O
C       0.8645  0.09703  0.28472     C
H       0.8647   0.7827   0.4219     H
F       0.8864  0.02047  0.71647     F
C       0.8872  0.33461  0.47399     C
C       0.8932  0.34851  0.53183     C
H       0.8991   0.9117   0.2534     H
C       0.9097  0.87396  0.53711     C
C       0.9169  0.76442  0.50818     C
O       0.9198  0.30168  0.15791     O
C        0.923   0.7528  0.44844     C
C       0.9288  0.22199  0.24112     C
C       0.9297  0.29082  0.21343     C
O       0.9323  0.33298  0.24679     O
C       0.9414   0.7734  0.03664     C
O       0.9443  0.83101  0.01365     O
O        0.953  0.27321  0.97838     O
F       0.9569  0.92712  0.34921     F
H       0.9653   0.9277   0.7846     H
H       0.9696   0.7475   0.1507     H
F       0.9698  0.98618  0.63096     F
F       0.9715  0.14528  0.42601     F
H       0.9786   0.2698   0.4156     H
C        0.979  0.10743  0.23461     C
H       0.9808   0.3115   0.6099     H
C       0.9816   0.9864  0.32608     C
C       0.9822  0.27871  0.45429     C
C       0.9833  0.30365  0.57059     C
C       0.9869  0.83159  0.78768     C
F       0.9906  0.88823  0.48298     F
