data_I
_chemical_name_common  '/home/zhangsd/repos/MofS-CGCNN/ML/data/SSD/clean_cifs/KORMOV_clean'
_cell_length_a  6.12100
_cell_length_b 10.78100
_cell_length_c 13.98700
_cell_angle_alpha 98.90100
_cell_angle_beta  96.71500
_cell_angle_gamma 103.86100
_space_group_name_H-M_alt      'P 1'


loop_
_space_group_symop_operation_xyz
  'x, y, z' 

loop_
_atom_site_label
_atom_site_fract_x
_atom_site_fract_y
_atom_site_fract_z
_atom_site_type_symbol
C       0.0093   0.0792    0.372     C
O         0.02   0.7233  0.53084     O
C       0.0527   0.8995   0.2591     C
H       0.0895   0.8976   0.9846     H
C       0.0938   0.2221   0.4155     C
C       0.1243   0.0292   0.3017     C
C       0.1271   0.1818   0.7111     C
H       0.1273   0.8133   0.8288     H
O       0.1467   0.8424   0.1851     O
C       0.1729   0.0011   0.5991     C
H       0.1731   0.2699    0.739     H
H        0.194    0.473     0.53     H
C       0.2077   0.8589   0.9751     C
C       0.2285   0.8071   0.8817     C
C       0.2379   0.1326   0.6402     C
H        0.249   0.0832   0.2835     H
H       0.2509   0.9675   0.5526     H
O       0.2824   0.2816  0.39653     O
H        0.311   0.0065   0.1497     H
O       0.3117   0.5345   0.5217     O
C       0.3354   0.9216   0.1531     C
O       0.3435   0.7505   0.6989     O
H       0.3463    0.305   0.0645     H
Co     0.35132  0.72333  0.55691    Co
C       0.3565   0.8547    0.054     C
H       0.3724   0.2097   0.9086     H
C       0.3974   0.7463   0.8659     C
Co     0.40069  0.47772  0.38638    Co
C       0.4185   0.2258   0.6039     C
C       0.4214   0.6935    0.763     C
O       0.4543    0.343   0.6396     O
C       0.4586   0.2615   0.0553     C
H       0.4739   0.9332   0.1988     H
C       0.4761   0.2058   0.9615     C
O       0.4831   0.8215  0.46145     O
O       0.4877   0.3972   0.2529     O
O       0.5123   0.6028   0.7471     O
O       0.5169   0.1785  0.53855     O
C       0.5239   0.7942   0.0385     C
H       0.5261   0.0668   0.8012     H
C       0.5414   0.7385   0.9447     C
O       0.5457    0.657   0.3604     O
C       0.5786   0.3065    0.237     C
C       0.5815   0.7742   0.3961     C
Co     0.59931  0.52228  0.61362    Co
C       0.6026   0.2537   0.1341     C
H       0.6276   0.7903   0.0914     H
C       0.6435   0.1453    0.946     C
Co     0.64868  0.27667  0.44309    Co
H       0.6537    0.695   0.9355     H
O       0.6565   0.2495   0.3011     O
C       0.6646   0.0784   0.8469     C
O       0.6883   0.4655   0.4783     O
H        0.689   0.9935   0.8503     H
O       0.7176   0.7184  0.60347     O
H       0.7491   0.0325   0.4474     H
H        0.751   0.9168   0.7165     H
C       0.7621   0.8674   0.3598     C
C       0.7715   0.1929   0.1183     C
C       0.7923   0.1411   0.0249     C
H        0.806    0.527     0.47     H
H       0.8269   0.7301    0.261     H
C       0.8271   0.9989   0.4009     C
O       0.8533   0.1576   0.8149     O
H       0.8727   0.1867   0.1712     H
C       0.8729   0.8182   0.2889     C
C       0.8757   0.9708   0.6983     C
C       0.9062   0.7779   0.5845     C
H       0.9105   0.1024   0.0154     H
C       0.9473   0.1005   0.7409     C
O         0.98   0.2767  0.46916     O
C       0.9907   0.9208    0.628     C
