data_I
_chemical_name_common  '/home/zhangsd/repos/MofS-CGCNN/ML/data/SSD/clean_cifs/KORNAI_clean'
_cell_length_a 12.17720
_cell_length_b 15.53140
_cell_length_c 15.82670
_cell_angle_alpha 76.01900
_cell_angle_beta  67.57000
_cell_angle_gamma 69.19600
_space_group_name_H-M_alt      'P 1'


loop_
_space_group_symop_operation_xyz
  'x, y, z' 

loop_
_atom_site_label
_atom_site_fract_x
_atom_site_fract_y
_atom_site_fract_z
_atom_site_type_symbol
H       0.0106   0.1578   0.6874     H
H       0.0171   0.8528   0.9696     H
C       0.0198    0.601   0.5718     C
C         0.02   0.6083   0.6565     C
O       0.0222   0.9451   0.6542     O
H       0.0311   0.6575   0.8018     H
H       0.0324   0.3264   0.0429     H
C       0.0329   0.3735   0.8713     C
C       0.0388   0.8363   0.2515     C
O       0.0418   0.6071   0.3891     O
Co     0.04536  0.03558  0.21574    Co
C       0.0466   0.3137   0.3009     C
Co     0.04897  0.63356  0.26076    Co
C       0.0503    0.312   0.2049     C
C       0.0507    0.327     0.47     C
C       0.0509   0.3322   0.5653     C
O       0.0613   0.6514   0.0806     O
H       0.0674   0.5474   0.5437     H
H       0.0674   0.5583   0.6859     H
O       0.0702   0.3841   0.7843     O
N       0.0773   0.7591   0.2139     N
N       0.0778   0.9044   0.1931     N
H       0.0783   0.2488   0.1908     H
C       0.0849   0.3634   0.0116     C
C       0.0856   0.8347   0.9181     C
N       0.0878   0.8712   0.8313     N
H       0.0942   0.8339   0.5409     H
C       0.1037   0.3948   0.9192     C
C       0.1151   0.9694   0.6019     C
C       0.1174   0.2428   0.3444     C
C       0.1184   0.2502    0.428     C
H       0.1205   0.0291   0.6759     H
O        0.132   0.2789   0.5947     O
O       0.1366   0.3613   0.1464     O
C       0.1433   0.8662   0.1156     C
C       0.1443   0.3871   0.0569     C
N       0.1476   0.7791   0.1238     N
C       0.1502   0.8617   0.4944     C
O       0.1612   0.0163   0.6233     O
H       0.1654   0.1889    0.317     H
H       0.1673   0.2009   0.4569     H
C       0.1722   0.9372   0.5093     C
C       0.1791   0.4523    0.872     C
H       0.1822    0.898   0.0609     H
N       0.1861   0.7733   0.9232     N
O       0.1903   0.0504   0.0469     O
H       0.1919   0.4728   0.8097     H
O        0.196   0.0775    0.175     O
H       0.1989   0.7752   0.4006     H
C       0.2014   0.8252   0.7847     C
C       0.2122   0.8272   0.4098     C
N       0.2165   0.5423   0.2094     N
C       0.2173    0.445   0.0111     C
H       0.2335   0.8345   0.7207     H
C       0.2351   0.4787   0.9195     C
Co      0.2351  0.67961  0.03105    Co
C       0.2383   0.0789   0.0881     C
C       0.2531   0.9761   0.4386     C
H       0.2557   0.4619   0.0427     H
H       0.2578   0.4315   0.2963     H
N       0.2644   0.7663   0.8346     N
H       0.2708   0.0258   0.4481     H
C       0.2874   0.4675   0.2415     C
C       0.2918   0.8686   0.3403     C
N       0.2932   0.5745   0.1285     N
H       0.2959   0.8592   0.2134     H
C       0.3082   0.5462   0.8736     C
C       0.3095   0.9455   0.3543     C
O       0.3292   0.5855   0.9247     O
C       0.3427   0.1185   0.0349     C
O       0.3483   0.5628   0.7887     O
H       0.3506   0.1628   0.1427     H
C       0.3525   0.8328   0.2489     C
H       0.3598   0.9767   0.3064     H
H       0.3677   0.0847   0.9137     H
H       0.3688    0.766   0.2582     H
C       0.3839   0.1625   0.0792     C
C       0.3954   0.1146   0.9424     C
C       0.4021   0.5167   0.1198     C
N       0.4044   0.4477   0.1894     N
O       0.4099   0.6967   0.9847     O
H        0.414   0.7667   0.1007     H
Co     0.43755  0.66382  0.81036    Co
O       0.4616    0.854      0.2     O
H       0.4723   0.5223     0.07     H
C       0.4736   0.7972   0.0662     C
C       0.4745   0.2052   0.0277     C
C       0.4784   0.7441   0.9315     C
C       0.4893   0.1544   0.8908     C
O       0.4916   0.2487   0.1552     O
O       0.5084   0.7513   0.8448     O
C       0.5107   0.8456   0.1092     C
C       0.5216   0.2559   0.0685     C
C       0.5255   0.7948   0.9723     C
C       0.5264   0.2028   0.9338     C
H       0.5277   0.4777     0.93     H
O       0.5384    0.146      0.8     O
Co     0.56245  0.33618  0.18964    Co
H        0.586   0.2333   0.8993     H
O       0.5901   0.3033   0.0153     O
N       0.5956   0.5523   0.8106     N
C       0.5979   0.4833   0.8802     C
C       0.6046   0.8854   0.0576     C
C       0.6161   0.8375   0.9208     C
H       0.6312    0.234   0.7418     H
H       0.6323   0.9153   0.0863     H
H       0.6402   0.0233   0.6936     H
C       0.6475   0.1672   0.7511     C
H       0.6494   0.8372   0.8573     H
O       0.6517   0.4372   0.2113     O
C       0.6573   0.8815   0.9651     C
O       0.6708   0.4145   0.0753     O
C       0.6905   0.0545   0.6457     C
C       0.6918   0.4538   0.1264     C
H       0.7041   0.1408   0.7866     H
N       0.7068   0.4255   0.8715     N
C       0.7082   0.1314   0.6597     C
C       0.7126   0.5325   0.7585     C
H       0.7292   0.9742   0.5519     H
N       0.7356   0.2337   0.1654     N
H       0.7422   0.5685   0.7037     H
H       0.7443   0.5381   0.9573     H
C       0.7469   0.0239   0.5614     C
C       0.7617   0.9211   0.9119     C
Co      0.7649  0.32039  0.96895    Co
C       0.7649   0.5213   0.0805     C
H       0.7665   0.1655   0.2793     H
C       0.7827    0.555   0.9889     C
N       0.7835   0.4577   0.7906     N
C       0.7878   0.1728   0.5902     C
C       0.7986   0.1748   0.2153     C
H       0.8011   0.2248   0.5994     H
O        0.804   0.9225    0.825     O
H       0.8081   0.5272   0.1903     H
O       0.8097   0.9496   0.9531     O
N       0.8139   0.2267   0.0768     N
H       0.8178    0.102   0.9391     H
C       0.8209   0.5477    0.128     C
C       0.8278   0.0628   0.4907     C
H       0.8327   0.7991   0.5431     H
H       0.8346   0.8111    0.683     H
O       0.8388   0.9837   0.3767     O
C       0.8498   0.1383   0.5056     C
N       0.8524   0.2209   0.8762     N
C       0.8557   0.6129   0.9431     C
C       0.8567   0.1338   0.8844     C
O       0.8634   0.6387   0.8536     O
O        0.868   0.7211   0.4053     O
H       0.8795   0.9709   0.3241     H
C       0.8816   0.7498    0.572     C
C       0.8826   0.7572   0.6556     C
C       0.8849   0.0306   0.3981     C
C       0.8963   0.6052   0.0808     C
H       0.9058   0.1661   0.4591     H
N       0.9122   0.1288   0.1687     N
C       0.9144   0.1653   0.0819     C
C       0.9151   0.6366   0.9884     C
H       0.9217   0.7512   0.8092     H
N       0.9222   0.0956   0.8069     N
N       0.9227   0.2409   0.7861     N
O       0.9298   0.6159   0.2157     O
H       0.9326   0.4417   0.3141     H
H       0.9326   0.4526   0.4563     H
O       0.9387   0.3486   0.9194     O
C       0.9491   0.6678   0.4347     C
C       0.9493    0.673     0.53     C
C       0.9497    0.688   0.7951     C
Co     0.95103  0.36644  0.73924    Co
C       0.9534   0.6863   0.6991     C
Co     0.95464  0.96442  0.78426    Co
O       0.9582   0.3929   0.6109     O
C       0.9612   0.1637   0.7485     C
C       0.9671   0.6265   0.1287     C
H       0.9676   0.6736   0.9571     H
H       0.9689   0.3425   0.1982     H
O       0.9778   0.0549   0.3458     O
C         0.98   0.3917   0.3435     C
C       0.9802    0.399   0.4282     C
H       0.9829   0.1472   0.0304     H
H       0.9894   0.8422   0.3126     H
