data_I
_chemical_name_common  '/home/zhangsd/repos/MofS-CGCNN/ML/data/SSD/clean_cifs/KOSLEL_clean'
_cell_length_a  6.73900
_cell_length_b 15.03490
_cell_length_c 15.03490
_cell_angle_alpha 62.19160
_cell_angle_beta  81.40740
_cell_angle_gamma 98.59260
_space_group_name_H-M_alt      'P 1'


loop_
_space_group_symop_operation_xyz
  'x, y, z' 

loop_
_atom_site_label
_atom_site_fract_x
_atom_site_fract_y
_atom_site_fract_z
_atom_site_type_symbol
O       0.0332   0.4977   0.3271     O
O       0.0332   0.6729   0.5023     O
C       0.0386   0.0915   0.4677     C
C       0.0386   0.5323   0.9085     C
C       0.0859     -0.0   0.4983     C
C       0.0859   0.5017      0.0     C
H       0.1077  0.56355  0.43645     H
Ni      0.1104   0.3018   0.2804    Ni
Ni      0.1104   0.7196   0.6982    Ni
O         0.17   0.1849   0.3979     O
O         0.17   0.6021   0.8151     O
C       0.1935   0.4537   0.3572     C
C       0.1935   0.6428   0.5463     C
H      0.22255     -0.0  0.49335     H
H      0.22255  0.50665      0.0     H
C       0.2354   0.5556   0.4444     C
O       0.2461   0.3815   0.3432     O
O       0.2461   0.6568   0.6185     O
C       0.2987   0.4836   0.4255     C
C       0.2987   0.5745   0.5164     C
O       0.3603   0.3271   0.1752     O
O       0.3603   0.8248   0.6729     O
Ni      0.3908   0.2804   0.4178    Ni
Ni      0.3908   0.5822   0.7196    Ni
C       0.5063   0.4677   0.4408     C
C       0.5063   0.5592   0.5323     C
O       0.5355   0.1752   0.4977     O
O       0.5355   0.5023   0.8248     O
H      0.54415     -0.0  0.56355     H
H      0.54415  0.43645     -0.0     H
C       0.5507   0.3572   0.1891     C
C       0.5507   0.8109   0.6428     C
O       0.5679   0.3979   0.4172     O
O       0.5679   0.5828   0.6021     O
C       0.5842   0.4983   0.5017     C
O       0.5893   0.3432   0.2753     O
O       0.5893   0.7247   0.6568     O
C       0.6798      0.0   0.5556     C
C       0.6798   0.4444      0.0     C
H       0.7159  0.49335  0.50665     H
C       0.7242   0.4255   0.0909     C
C       0.7242   0.9091   0.5745     C
C       0.7398   0.1891   0.4537     C
C       0.7398   0.5463   0.8109     C
Ni      0.8086   0.4178   0.3018    Ni
Ni      0.8086   0.6982   0.5822    Ni
C       0.8151   0.0909   0.4836     C
C       0.8151   0.5164   0.9091     C
O       0.8646   0.2753   0.3815     O
O       0.8646   0.6185   0.7247     O
C       0.9471   0.4408   0.0915     C
C       0.9471   0.9085   0.5592     C
O       0.9851   0.4172   0.1849     O
O       0.9851   0.8151   0.5828     O
