data_I
_chemical_name_common  '/home/zhangsd/repos/MofS-CGCNN/ML/data/SSD/clean_cifs/KOVJAI01_clean'
_cell_length_a 17.40250
_cell_length_b  9.98870
_cell_length_c 25.59460
_cell_angle_alpha 90.00000
_cell_angle_beta  98.56800
_cell_angle_gamma 90.00000
_space_group_name_H-M_alt      'P 1'


loop_
_space_group_symop_operation_xyz
  'x, y, z' 

loop_
_atom_site_label
_atom_site_fract_x
_atom_site_fract_y
_atom_site_fract_z
_atom_site_type_symbol
C          0.0   0.1491     0.75     C
C          0.0    0.273     0.25     C
C          0.0    0.299     0.75     C
C          0.0   0.4238     0.25     C
C          0.0   0.5762     0.75     C
C          0.0    0.701     0.25     C
C          0.0    0.727     0.75     C
C          0.0   0.8509     0.25     C
O      0.00605   0.2146  0.20747     O
O      0.00605   0.7854  0.70747     O
O      0.00614     0.09   0.7934     O
O      0.00614     0.91   0.2934     O
C       0.0085   0.3921   0.4676     C
C       0.0085   0.6079   0.9676     C
C        0.017   0.4925   0.2971     C
C        0.017   0.5075   0.7971     C
C       0.0172   0.3681  0.79726     C
C       0.0172   0.6319  0.29726     C
C       0.0186   0.2766  0.43165     C
C       0.0186   0.7234  0.93165     C
O      0.02082   0.1725  0.06609     O
O      0.02082   0.8275  0.56609     O
H       0.0283   0.4457   0.3287     H
H       0.0283   0.5543   0.8287     H
H       0.0289   0.3216   0.8289     H
H       0.0289   0.6784   0.3289     H
U      0.03331  0.06174   0.3606     U
U      0.03331  0.93826   0.8606     U
C       0.0428   0.3843  0.99681     C
C       0.0428   0.6157  0.49681     C
C       0.0526    0.491  0.96405     C
C       0.0526    0.509  0.46405     C
O       0.0669   0.2835  0.39977     O
O       0.0669   0.7165  0.89977     O
H       0.0714   0.3063   0.9947     H
H       0.0714   0.6937   0.4947     H
H       0.0878   0.4856   0.9401     H
H       0.0878   0.5144   0.4401     H
O      0.12303   0.1308  0.88213     O
O      0.12303   0.8692  0.38213     O
O      0.12537   0.0265   0.4423     O
O      0.12537   0.9735   0.9423     O
C       0.1477   0.0866   0.9278     C
C       0.1477   0.9134   0.4278     C
Cl     0.16411  0.12092  0.31975    Cl
Cl     0.16411  0.87908  0.81975    Cl
H       0.2007   0.0551   0.0295     H
H       0.2007   0.9449   0.5295     H
C       0.2017   0.1695  0.96525     C
C       0.2017   0.8305  0.46525     C
H       0.2183   0.3134   0.9127     H
H       0.2183   0.6866   0.4127     H
C       0.2207   0.1338  0.01749     C
C       0.2207   0.8662  0.51749     C
C       0.2311   0.2875  0.94785     C
C       0.2311   0.7125  0.44785     C
C       0.2689   0.2125  0.05215     C
C       0.2689   0.7875  0.55215     C
C       0.2793   0.3662  0.98251     C
C       0.2793   0.6338  0.48251     C
H       0.2817   0.1866   0.0873     H
H       0.2817   0.8134   0.5873     H
C       0.2983   0.3305  0.03475     C
C       0.2983   0.6695  0.53475     C
H       0.2993   0.4449   0.9705     H
H       0.2993   0.5551   0.4705     H
Cl     0.33589  0.37908  0.68025    Cl
Cl     0.33589  0.62092  0.18025    Cl
C       0.3523   0.4134   0.0722     C
C       0.3523   0.5866   0.5722     C
O      0.37463   0.4735   0.5577     O
O      0.37463   0.5265   0.0577     O
O      0.37697   0.3692  0.11787     O
O      0.37697   0.6308  0.61787     O
H       0.4122   0.0144   0.0599     H
H       0.4122   0.9856   0.5599     H
H       0.4286   0.1937   0.0053     H
H       0.4286   0.8063   0.5053     H
O       0.4331   0.2165  0.60023     O
O       0.4331   0.7835  0.10023     O
C       0.4474    0.009  0.03595     C
C       0.4474    0.991  0.53595     C
C       0.4572   0.1157  0.00319     C
C       0.4572   0.8843  0.50319     C
U      0.46669  0.43826   0.6394     U
U      0.46669  0.56174   0.1394     U
H       0.4711   0.1784   0.1711     H
H       0.4711   0.8216   0.6711     H
H       0.4717   0.0543   0.6713     H
H       0.4717   0.9457   0.1713     H
O      0.47918   0.3275  0.93391     O
O      0.47918   0.6725  0.43391     O
C       0.4814   0.2234  0.56835     C
C       0.4814   0.7766  0.06835     C
C       0.4828   0.1319  0.20274     C
C       0.4828   0.8681  0.70274     C
C        0.483   0.0075   0.7029     C
C        0.483   0.9925   0.2029     C
C       0.4915   0.1079   0.5324     C
C       0.4915   0.8921   0.0324     C
O      0.49386     0.41   0.2066     O
O      0.49386     0.59   0.7066     O
O      0.49395   0.2854  0.79253     O
O      0.49395   0.7146  0.29253     O
C          0.5   0.0762     0.75     C
C          0.5    0.201     0.25     C
C          0.5    0.227     0.75     C
C          0.5   0.3509     0.25     C
C          0.5   0.6491     0.75     C
C          0.5    0.773     0.25     C
C          0.5    0.799     0.75     C
C          0.5   0.9238     0.25     C
O      0.50605   0.2854  0.70747     O
O      0.50605   0.7146  0.20747     O
O      0.50614     0.41   0.2934     O
O      0.50614     0.59   0.7934     O
C       0.5085   0.1079   0.9676     C
C       0.5085   0.8921   0.4676     C
C        0.517   0.0075   0.7971     C
C        0.517   0.9925   0.2971     C
C       0.5172   0.1319  0.29726     C
C       0.5172   0.8681  0.79726     C
C       0.5186   0.2234  0.93165     C
C       0.5186   0.7766  0.43165     C
O      0.52082   0.3275  0.56609     O
O      0.52082   0.6725  0.06609     O
H       0.5283   0.0543   0.8287     H
H       0.5283   0.9457   0.3287     H
H       0.5289   0.1784   0.3289     H
H       0.5289   0.8216   0.8289     H
U      0.53331  0.43826   0.8606     U
U      0.53331  0.56174   0.3606     U
C       0.5428   0.1157  0.49681     C
C       0.5428   0.8843  0.99681     C
C       0.5526    0.009  0.46405     C
C       0.5526    0.991  0.96405     C
O       0.5669   0.2165  0.89977     O
O       0.5669   0.7835  0.39977     O
H       0.5714   0.1937   0.4947     H
H       0.5714   0.8063   0.9947     H
H       0.5878   0.0144   0.4401     H
H       0.5878   0.9856   0.9401     H
O      0.62303   0.3692  0.38213     O
O      0.62303   0.6308  0.88213     O
O      0.62537   0.4735   0.9423     O
O      0.62537   0.5265   0.4423     O
C       0.6477   0.4134   0.4278     C
C       0.6477   0.5866   0.9278     C
Cl     0.66411  0.37908  0.81975    Cl
Cl     0.66411  0.62092  0.31975    Cl
H       0.7007   0.4449   0.5295     H
H       0.7007   0.5551   0.0295     H
C       0.7017   0.3305  0.46525     C
C       0.7017   0.6695  0.96525     C
H       0.7183   0.1866   0.4127     H
H       0.7183   0.8134   0.9127     H
C       0.7207   0.3662  0.51749     C
C       0.7207   0.6338  0.01749     C
C       0.7311   0.2125  0.44785     C
C       0.7311   0.7875  0.94785     C
C       0.7689   0.2875  0.55215     C
C       0.7689   0.7125  0.05215     C
C       0.7793   0.1338  0.48251     C
C       0.7793   0.8662  0.98251     C
H       0.7817   0.3134   0.5873     H
H       0.7817   0.6866   0.0873     H
C       0.7983   0.1695  0.53475     C
C       0.7983   0.8305  0.03475     C
H       0.7993   0.0551   0.4705     H
H       0.7993   0.9449   0.9705     H
Cl     0.83589  0.12092  0.18025    Cl
Cl     0.83589  0.87908  0.68025    Cl
C       0.8523   0.0866   0.5722     C
C       0.8523   0.9134   0.0722     C
O      0.87463   0.0265   0.0577     O
O      0.87463   0.9735   0.5577     O
O      0.87697   0.1308  0.61787     O
O      0.87697   0.8692  0.11787     O
H       0.9122   0.4856   0.5599     H
H       0.9122   0.5144   0.0599     H
H       0.9286   0.3063   0.5053     H
H       0.9286   0.6937   0.0053     H
O       0.9331   0.2835  0.10023     O
O       0.9331   0.7165  0.60023     O
C       0.9474    0.491  0.53595     C
C       0.9474    0.509  0.03595     C
C       0.9572   0.3843  0.50319     C
C       0.9572   0.6157  0.00319     C
U      0.96669  0.06174   0.1394     U
U      0.96669  0.93826   0.6394     U
H       0.9711   0.3216   0.6711     H
H       0.9711   0.6784   0.1711     H
H       0.9717   0.4457   0.1713     H
H       0.9717   0.5543   0.6713     H
O      0.97918   0.1725  0.43391     O
O      0.97918   0.8275  0.93391     O
C       0.9814   0.2766  0.06835     C
C       0.9814   0.7234  0.56835     C
C       0.9828   0.3681  0.70274     C
C       0.9828   0.6319  0.20274     C
C        0.983   0.4925   0.2029     C
C        0.983   0.5075   0.7029     C
C       0.9915   0.3921   0.0324     C
C       0.9915   0.6079   0.5324     C
O      0.99386     0.09   0.7066     O
O      0.99386     0.91   0.2066     O
O      0.99395   0.2146  0.29253     O
O      0.99395   0.7854  0.79253     O
