data_I
_chemical_name_common  '/home/zhangsd/repos/MofS-CGCNN/ML/data/SSD/clean_cifs/KOVJAI_clean'
_cell_length_a  9.79180
_cell_length_b  9.94540
_cell_length_c 12.73610
_cell_angle_alpha 84.21600
_cell_angle_beta  76.64200
_cell_angle_gamma 64.07000
_space_group_name_H-M_alt      'P 1'


loop_
_space_group_symop_operation_xyz
  'x, y, z' 

loop_
_atom_site_label
_atom_site_fract_x
_atom_site_fract_y
_atom_site_fract_z
_atom_site_type_symbol
C       0.0409   0.5229   0.8913     C
C       0.0572   0.3557   0.0407     C
H       0.0681   0.5388   0.8178     H
H       0.0946   0.2595    0.069     H
C       0.0988   0.3779   0.9324     C
Cl      0.1837    0.075  0.64771    Cl
C       0.2115   0.2481   0.8597     C
O       0.2504   0.1199   0.8932     O
O       0.2665   0.2779   0.7637     O
H       0.3214   0.5825   0.8888     H
O        0.357   0.8142    0.812     O
H       0.3598   0.3666   0.9911     H
C       0.3932   0.5497   0.9331     C
C       0.4161   0.4202   0.9949     C
U      0.44052  0.00833  0.72511     U
C       0.4596   0.7673   0.8701     C
O       0.4603   0.1672   0.1283     O
H       0.4626   0.3728   0.6588     H
H       0.4683   0.6011   0.6642     H
O       0.4772   0.1786   0.4053     O
C       0.4774    0.424   0.5951     C
C       0.4781    0.629   0.9383     C
C       0.4813     0.56   0.5981     C
C       0.4922   0.2153   0.4923     C
C       0.4955   0.3635   0.4968     C
O       0.4971    0.864    0.424     O
O       0.5029    0.136    0.576     O
C       0.5045   0.6365   0.5032     C
C       0.5078   0.7847   0.5077     C
C       0.5187     0.44   0.4019     C
C       0.5219    0.371   0.0617     C
C       0.5226    0.576   0.4049     C
O       0.5228   0.8214   0.5947     O
H       0.5317   0.3989   0.3358     H
H       0.5374   0.6272   0.3412     H
O       0.5397   0.8328   0.8717     O
C       0.5404   0.2327   0.1299     C
U      0.55948  0.99167  0.27489     U
C       0.5839   0.5798   0.0051     C
C       0.6068   0.4503   0.0669     C
H       0.6402   0.6334   0.0089     H
O        0.643   0.1858    0.188     O
H       0.6786   0.4175   0.1112     H
O       0.7335   0.7221   0.2363     O
O       0.7496   0.8801   0.1068     O
C       0.7885   0.7519   0.1403     C
Cl      0.8163    0.925  0.35229    Cl
C       0.9012   0.6221   0.0676     C
H       0.9054   0.7405    0.931     H
H       0.9319   0.4612   0.1822     H
C       0.9428   0.6443   0.9593     C
C       0.9591   0.4771   0.1087     C
