data_I
_chemical_name_common  '/home/zhangsd/repos/MofS-CGCNN/ML/data/SSD/clean_cifs/KUMGIK_clean'
_cell_length_a 13.65700
_cell_length_b 13.65700
_cell_length_c 53.30500
_cell_angle_alpha 90.00000
_cell_angle_beta  90.00000
_cell_angle_gamma 90.00000
_space_group_name_H-M_alt      'P 1'


loop_
_space_group_symop_operation_xyz
  'x, y, z' 

loop_
_atom_site_label
_atom_site_fract_x
_atom_site_fract_y
_atom_site_fract_z
_atom_site_type_symbol
Mo         0.0     0.25    0.375    Mo
Mo         0.0     0.25    0.875    Mo
Mo         0.0     0.75    0.125    Mo
Mo         0.0     0.75    0.625    Mo
C       0.0099   0.0266  0.93657     C
C       0.0099   0.4734  0.43657     C
C       0.0099   0.5266  0.06343     C
C       0.0099   0.9734  0.56343     C
H       0.0124   0.0125   0.4739     H
H       0.0124   0.4875   0.9739     H
H       0.0124   0.5125   0.5261     H
H       0.0124   0.9875   0.0261     H
N       0.0282   0.0205  0.41407     N
N       0.0282   0.4795  0.91407     N
N       0.0282   0.5205  0.58593     N
N       0.0282   0.9795  0.08593     N
C       0.0434    0.011   0.4584     C
C       0.0434    0.489   0.9584     C
C       0.0434    0.511   0.5416     C
C       0.0434    0.989   0.0416     C
S      0.04422  0.12155  0.35164     S
S      0.04422  0.37845  0.85164     S
S      0.04422  0.62155  0.64836     S
S      0.04422  0.87845  0.14836     S
Cu     0.05969  0.06391    0.882    Cu
Cu     0.05969  0.43609    0.382    Cu
Cu     0.05969  0.56391    0.118    Cu
Cu     0.05969  0.93609    0.618    Cu
H       0.0748   0.0466    0.938     H
H       0.0748   0.4534    0.438     H
H       0.0748   0.5466    0.062     H
H       0.0748   0.9534    0.562     H
C       0.1217   0.0031  0.08729     C
C       0.1217   0.4969  0.58729     C
C       0.1217   0.5031  0.91271     C
C       0.1217   0.9969  0.41271     C
S      0.12845  0.20578  0.89836     S
S      0.12845  0.29422  0.39836     S
S      0.12845  0.70578  0.10164     S
S      0.12845  0.79422  0.60164     S
C       0.1396   0.0114   0.0431     C
C       0.1396   0.4886   0.5431     C
C       0.1396   0.5114   0.9569     C
C       0.1396   0.9886   0.4569     C
C       0.1497   0.0412  0.62349     C
N       0.1497   0.4588  0.12349     N
C       0.1497   0.5412  0.37651     C
N       0.1497   0.9588  0.87651     N
H       0.1498   0.0094   0.1031     H
H       0.1498   0.4906   0.6031     H
H       0.1498   0.5094   0.8969     H
H       0.1498   0.9906   0.3969     H
N       0.1515   0.0285  0.99827     N
N       0.1515   0.4715  0.49827     N
N       0.1515   0.5285  0.00173     N
N       0.1515   0.9715  0.50173     N
C       0.1803   0.0188  0.06663     C
C       0.1803   0.4812  0.56663     C
C       0.1803   0.5188  0.93337     C
C       0.1803   0.9812  0.43337     C
Cu     0.18609  0.19031    0.368    Cu
Cu     0.18609  0.30969    0.868    Cu
Cu     0.18609  0.69031    0.632    Cu
Cu     0.18609  0.80969    0.132    Cu
C        0.199   0.0236  0.02011     C
C        0.199   0.4764  0.52011     C
C        0.199   0.5236  0.97989     C
C        0.199   0.9764  0.47989     C
H       0.2034   0.1752    0.312     H
H       0.2034   0.3248    0.812     H
H       0.2034   0.6752    0.688     H
H       0.2034   0.8248    0.188     H
N       0.2047   0.0284   0.9775     N
N       0.2047   0.4716   0.4775     N
N       0.2047   0.5284   0.0225     N
N       0.2047   0.9716   0.5225     N
N       0.2088   0.1003  0.62651     N
C       0.2088   0.3997  0.12651     C
N       0.2088   0.6003  0.37349     N
C       0.2088   0.8997  0.87349     C
H       0.2171   0.0035   0.1815     H
H       0.2171   0.4965   0.6815     H
H       0.2171   0.5035   0.8185     H
H       0.2171   0.9965   0.3185     H
N       0.2215   0.0985  0.25173     N
N       0.2215   0.4015  0.75173     N
N       0.2215   0.5985  0.74827     N
N       0.2215   0.9015  0.24827     N
N       0.2216   0.0453   0.2725     N
N       0.2216   0.4547   0.7725     N
N       0.2216   0.5453   0.7275     N
N       0.2216   0.9547   0.2275     N
C       0.2234   0.2401  0.31343     C
C       0.2234   0.2599  0.81343     C
C       0.2234   0.7401  0.68657     C
C       0.2234   0.7599  0.18657     C
C       0.2264    0.051  0.22989     C
C       0.2264    0.449  0.72989     C
C       0.2264    0.551  0.77011     C
C       0.2264    0.949  0.27011     C
N       0.2295   0.2218  0.83593     N
N       0.2295   0.2782  0.33593     N
N       0.2295   0.7218  0.16407     N
N       0.2295   0.7782  0.66407     N
C       0.2312   0.0697  0.18337     C
C       0.2312   0.4303  0.68337     C
C       0.2312   0.5697  0.81663     C
C       0.2312   0.9303  0.31663     C
H       0.2375   0.2376   0.7761     H
H       0.2375   0.2624   0.2761     H
H       0.2375   0.7376   0.2239     H
H       0.2375   0.7624   0.7239     H
C       0.2386   0.1104   0.2069     C
C       0.2386   0.3896   0.7069     C
C       0.2386   0.6104   0.7931     C
C       0.2386   0.8896   0.2931     C
C        0.239   0.2066   0.7916     C
C        0.239   0.2934   0.2916     C
C        0.239   0.7066   0.2084     C
C        0.239   0.7934   0.7084     C
H       0.2406   0.1002   0.1469     H
H       0.2406   0.3998   0.6469     H
H       0.2406   0.6002   0.8531     H
H       0.2406   0.8998   0.3531     H
H       0.2465   0.0329   0.0685     H
H       0.2465   0.4671   0.5685     H
H       0.2465   0.5329   0.9315     H
H       0.2465   0.9671   0.4315     H
C       0.2469   0.1283  0.16271     C
C       0.2469   0.3717  0.66271     C
C       0.2469   0.6283  0.83729     C
C       0.2469   0.8717  0.33729     C
C       0.2531   0.1283  0.83729     C
C       0.2531   0.3717  0.33729     C
C       0.2531   0.6283  0.16271     C
C       0.2531   0.8717  0.66271     C
H       0.2535   0.0329   0.9315     H
H       0.2535   0.4671   0.4315     H
H       0.2535   0.5329   0.0685     H
H       0.2535   0.9671   0.5685     H
H       0.2594   0.1002   0.8531     H
H       0.2594   0.3998   0.3531     H
H       0.2594   0.6002   0.1469     H
H       0.2594   0.8998   0.6469     H
C        0.261   0.2066   0.2084     C
C        0.261   0.2934   0.7084     C
C        0.261   0.7066   0.7916     C
C        0.261   0.7934   0.2916     C
C       0.2614   0.1104   0.7931     C
C       0.2614   0.3896   0.2931     C
C       0.2614   0.6104   0.2069     C
C       0.2614   0.8896   0.7069     C
H       0.2625   0.2376   0.2239     H
H       0.2625   0.2624   0.7239     H
H       0.2625   0.7376   0.7761     H
H       0.2625   0.7624   0.2761     H
C       0.2688   0.0697  0.81663     C
C       0.2688   0.4303  0.31663     C
C       0.2688   0.5697  0.18337     C
C       0.2688   0.9303  0.68337     C
N       0.2705   0.2218  0.16407     N
N       0.2705   0.2782  0.66407     N
N       0.2705   0.7218  0.83593     N
N       0.2705   0.7782  0.33593     N
C       0.2736    0.051  0.77011     C
C       0.2736    0.449  0.27011     C
C       0.2736    0.551  0.22989     C
C       0.2736    0.949  0.72989     C
C       0.2766   0.2401  0.68657     C
C       0.2766   0.2599  0.18657     C
C       0.2766   0.7401  0.31343     C
C       0.2766   0.7599  0.81343     C
N       0.2784   0.0453   0.7275     N
N       0.2784   0.4547   0.2275     N
N       0.2784   0.5453   0.2725     N
N       0.2784   0.9547   0.7725     N
N       0.2785   0.0985  0.74827     N
N       0.2785   0.4015  0.24827     N
N       0.2785   0.5985  0.25173     N
N       0.2785   0.9015  0.75173     N
H       0.2829   0.0035   0.8185     H
H       0.2829   0.4965   0.3185     H
H       0.2829   0.5035   0.1815     H
H       0.2829   0.9965   0.6815     H
C       0.2912   0.1003  0.37349     C
N       0.2912   0.3997  0.87349     N
C       0.2912   0.6003  0.62651     C
N       0.2912   0.8997  0.12651     N
N       0.2953   0.0284   0.0225     N
N       0.2953   0.4716   0.5225     N
N       0.2953   0.5284   0.9775     N
N       0.2953   0.9716   0.4775     N
H       0.2966   0.1752    0.688     H
H       0.2966   0.3248    0.188     H
H       0.2966   0.6752    0.312     H
H       0.2966   0.8248    0.812     H
C        0.301   0.0236  0.97989     C
C        0.301   0.4764  0.47989     C
C        0.301   0.5236  0.02011     C
C        0.301   0.9764  0.52011     C
Cu     0.31391  0.19031    0.632    Cu
Cu     0.31391  0.30969    0.132    Cu
Cu     0.31391  0.69031    0.368    Cu
Cu     0.31391  0.80969    0.868    Cu
C       0.3197   0.0188  0.93337     C
C       0.3197   0.4812  0.43337     C
C       0.3197   0.5188  0.06663     C
C       0.3197   0.9812  0.56663     C
N       0.3485   0.0285  0.00173     N
N       0.3485   0.4715  0.50173     N
N       0.3485   0.5285  0.99827     N
N       0.3485   0.9715  0.49827     N
H       0.3502   0.0094   0.8969     H
H       0.3502   0.4906   0.3969     H
H       0.3502   0.5094   0.1031     H
H       0.3502   0.9906   0.6031     H
N       0.3503   0.0412  0.37651     N
C       0.3503   0.4588  0.87651     C
N       0.3503   0.5412  0.62349     N
C       0.3503   0.9588  0.12349     C
C       0.3604   0.0114   0.9569     C
C       0.3604   0.4886   0.4569     C
C       0.3604   0.5114   0.0431     C
C       0.3604   0.9886   0.5431     C
S      0.37155  0.20578  0.10164     S
S      0.37155  0.29422  0.60164     S
S      0.37155  0.70578  0.89836     S
S      0.37155  0.79422  0.39836     S
C       0.3783   0.0031  0.91271     C
C       0.3783   0.4969  0.41271     C
C       0.3783   0.5031  0.08729     C
C       0.3783   0.9969  0.58729     C
H       0.4252   0.0466    0.062     H
H       0.4252   0.4534    0.562     H
H       0.4252   0.5466    0.938     H
H       0.4252   0.9534    0.438     H
Cu     0.44031  0.06391    0.118    Cu
Cu     0.44031  0.43609    0.618    Cu
Cu     0.44031  0.56391    0.882    Cu
Cu     0.44031  0.93609    0.382    Cu
S      0.45578  0.12155  0.64836     S
S      0.45578  0.37845  0.14836     S
S      0.45578  0.62155  0.35164     S
S      0.45578  0.87845  0.85164     S
C       0.4566    0.011   0.5416     C
C       0.4566    0.489   0.0416     C
C       0.4566    0.511   0.4584     C
C       0.4566    0.989   0.9584     C
N       0.4718   0.0205  0.58593     N
N       0.4718   0.4795  0.08593     N
N       0.4718   0.5205  0.41407     N
N       0.4718   0.9795  0.91407     N
H       0.4876   0.0125   0.5261     H
H       0.4876   0.4875   0.0261     H
H       0.4876   0.5125   0.4739     H
H       0.4876   0.9875   0.9739     H
C       0.4901   0.0266  0.06343     C
C       0.4901   0.4734  0.56343     C
C       0.4901   0.5266  0.93657     C
C       0.4901   0.9734  0.43657     C
Mo         0.5     0.25    0.125    Mo
Mo         0.5     0.25    0.625    Mo
Mo         0.5     0.75    0.375    Mo
Mo         0.5     0.75    0.875    Mo
C       0.5099   0.0266  0.56343     C
C       0.5099   0.4734  0.06343     C
C       0.5099   0.5266  0.43657     C
C       0.5099   0.9734  0.93657     C
H       0.5124   0.0125   0.0261     H
H       0.5124   0.4875   0.5261     H
H       0.5124   0.5125   0.9739     H
H       0.5124   0.9875   0.4739     H
N       0.5282   0.0205  0.08593     N
N       0.5282   0.4795  0.58593     N
N       0.5282   0.5205  0.91407     N
N       0.5282   0.9795  0.41407     N
C       0.5434    0.011   0.0416     C
C       0.5434    0.489   0.5416     C
C       0.5434    0.511   0.9584     C
C       0.5434    0.989   0.4584     C
S      0.54422  0.12155  0.14836     S
S      0.54422  0.37845  0.64836     S
S      0.54422  0.62155  0.85164     S
S      0.54422  0.87845  0.35164     S
Cu     0.55969  0.06391    0.618    Cu
Cu     0.55969  0.43609    0.118    Cu
Cu     0.55969  0.56391    0.382    Cu
Cu     0.55969  0.93609    0.882    Cu
H       0.5748   0.0466    0.562     H
H       0.5748   0.4534    0.062     H
H       0.5748   0.5466    0.438     H
H       0.5748   0.9534    0.938     H
C       0.6217   0.0031  0.41271     C
C       0.6217   0.4969  0.91271     C
C       0.6217   0.5031  0.58729     C
C       0.6217   0.9969  0.08729     C
S      0.62845  0.20578  0.60164     S
S      0.62845  0.29422  0.10164     S
S      0.62845  0.70578  0.39836     S
S      0.62845  0.79422  0.89836     S
C       0.6396   0.0114   0.4569     C
C       0.6396   0.4886   0.9569     C
C       0.6396   0.5114   0.5431     C
C       0.6396   0.9886   0.0431     C
C       0.6497   0.0412  0.87651     C
N       0.6497   0.4588  0.37651     N
C       0.6497   0.5412  0.12349     C
N       0.6497   0.9588  0.62349     N
H       0.6498   0.0094   0.3969     H
H       0.6498   0.4906   0.8969     H
H       0.6498   0.5094   0.6031     H
H       0.6498   0.9906   0.1031     H
N       0.6515   0.0285  0.50173     N
N       0.6515   0.4715  0.00173     N
N       0.6515   0.5285  0.49827     N
N       0.6515   0.9715  0.99827     N
C       0.6803   0.0188  0.43337     C
C       0.6803   0.4812  0.93337     C
C       0.6803   0.5188  0.56663     C
C       0.6803   0.9812  0.06663     C
Cu     0.68609  0.19031    0.132    Cu
Cu     0.68609  0.30969    0.632    Cu
Cu     0.68609  0.69031    0.868    Cu
Cu     0.68609  0.80969    0.368    Cu
C        0.699   0.0236  0.47989     C
C        0.699   0.4764  0.97989     C
C        0.699   0.5236  0.52011     C
C        0.699   0.9764  0.02011     C
H       0.7034   0.1752    0.188     H
H       0.7034   0.3248    0.688     H
H       0.7034   0.6752    0.812     H
H       0.7034   0.8248    0.312     H
N       0.7047   0.0284   0.5225     N
N       0.7047   0.4716   0.0225     N
N       0.7047   0.5284   0.4775     N
N       0.7047   0.9716   0.9775     N
N       0.7088   0.1003  0.87349     N
C       0.7088   0.3997  0.37349     C
N       0.7088   0.6003  0.12651     N
C       0.7088   0.8997  0.62651     C
H       0.7171   0.0035   0.3185     H
H       0.7171   0.4965   0.8185     H
H       0.7171   0.5035   0.6815     H
H       0.7171   0.9965   0.1815     H
N       0.7215   0.0985  0.24827     N
N       0.7215   0.4015  0.74827     N
N       0.7215   0.5985  0.75173     N
N       0.7215   0.9015  0.25173     N
N       0.7216   0.0453   0.2275     N
N       0.7216   0.4547   0.7275     N
N       0.7216   0.5453   0.7725     N
N       0.7216   0.9547   0.2725     N
C       0.7234   0.2401  0.18657     C
C       0.7234   0.2599  0.68657     C
C       0.7234   0.7401  0.81343     C
C       0.7234   0.7599  0.31343     C
C       0.7264    0.051  0.27011     C
C       0.7264    0.449  0.77011     C
C       0.7264    0.551  0.72989     C
C       0.7264    0.949  0.22989     C
N       0.7295   0.2218  0.66407     N
N       0.7295   0.2782  0.16407     N
N       0.7295   0.7218  0.33593     N
N       0.7295   0.7782  0.83593     N
C       0.7312   0.0697  0.31663     C
C       0.7312   0.4303  0.81663     C
C       0.7312   0.5697  0.68337     C
C       0.7312   0.9303  0.18337     C
H       0.7375   0.2376   0.7239     H
H       0.7375   0.2624   0.2239     H
H       0.7375   0.7376   0.2761     H
H       0.7375   0.7624   0.7761     H
C       0.7386   0.1104   0.2931     C
C       0.7386   0.3896   0.7931     C
C       0.7386   0.6104   0.7069     C
C       0.7386   0.8896   0.2069     C
C        0.739   0.2066   0.7084     C
C        0.739   0.2934   0.2084     C
C        0.739   0.7066   0.2916     C
C        0.739   0.7934   0.7916     C
H       0.7406   0.1002   0.3531     H
H       0.7406   0.3998   0.8531     H
H       0.7406   0.6002   0.6469     H
H       0.7406   0.8998   0.1469     H
H       0.7465   0.0329   0.4315     H
H       0.7465   0.4671   0.9315     H
H       0.7465   0.5329   0.5685     H
H       0.7465   0.9671   0.0685     H
C       0.7469   0.1283  0.33729     C
C       0.7469   0.3717  0.83729     C
C       0.7469   0.6283  0.66271     C
C       0.7469   0.8717  0.16271     C
C       0.7531   0.1283  0.66271     C
C       0.7531   0.3717  0.16271     C
C       0.7531   0.6283  0.33729     C
C       0.7531   0.8717  0.83729     C
H       0.7535   0.0329   0.5685     H
H       0.7535   0.4671   0.0685     H
H       0.7535   0.5329   0.4315     H
H       0.7535   0.9671   0.9315     H
H       0.7594   0.1002   0.6469     H
H       0.7594   0.3998   0.1469     H
H       0.7594   0.6002   0.3531     H
H       0.7594   0.8998   0.8531     H
C        0.761   0.2066   0.2916     C
C        0.761   0.2934   0.7916     C
C        0.761   0.7066   0.7084     C
C        0.761   0.7934   0.2084     C
C       0.7614   0.1104   0.7069     C
C       0.7614   0.3896   0.2069     C
C       0.7614   0.6104   0.2931     C
C       0.7614   0.8896   0.7931     C
H       0.7625   0.2376   0.2761     H
H       0.7625   0.2624   0.7761     H
H       0.7625   0.7376   0.7239     H
H       0.7625   0.7624   0.2239     H
C       0.7688   0.0697  0.68337     C
C       0.7688   0.4303  0.18337     C
C       0.7688   0.5697  0.31663     C
C       0.7688   0.9303  0.81663     C
N       0.7705   0.2218  0.33593     N
N       0.7705   0.2782  0.83593     N
N       0.7705   0.7218  0.66407     N
N       0.7705   0.7782  0.16407     N
C       0.7736    0.051  0.72989     C
C       0.7736    0.449  0.22989     C
C       0.7736    0.551  0.27011     C
C       0.7736    0.949  0.77011     C
C       0.7766   0.2401  0.81343     C
C       0.7766   0.2599  0.31343     C
C       0.7766   0.7401  0.18657     C
C       0.7766   0.7599  0.68657     C
N       0.7784   0.0453   0.7725     N
N       0.7784   0.4547   0.2725     N
N       0.7784   0.5453   0.2275     N
N       0.7784   0.9547   0.7275     N
N       0.7785   0.0985  0.75173     N
N       0.7785   0.4015  0.25173     N
N       0.7785   0.5985  0.24827     N
N       0.7785   0.9015  0.74827     N
H       0.7829   0.0035   0.6815     H
H       0.7829   0.4965   0.1815     H
H       0.7829   0.5035   0.3185     H
H       0.7829   0.9965   0.8185     H
C       0.7912   0.1003  0.12651     C
N       0.7912   0.3997  0.62651     N
C       0.7912   0.6003  0.87349     C
N       0.7912   0.8997  0.37349     N
N       0.7953   0.0284   0.4775     N
N       0.7953   0.4716   0.9775     N
N       0.7953   0.5284   0.5225     N
N       0.7953   0.9716   0.0225     N
H       0.7966   0.1752    0.812     H
H       0.7966   0.3248    0.312     H
H       0.7966   0.6752    0.188     H
H       0.7966   0.8248    0.688     H
C        0.801   0.0236  0.52011     C
C        0.801   0.4764  0.02011     C
C        0.801   0.5236  0.47989     C
C        0.801   0.9764  0.97989     C
Cu     0.81391  0.19031    0.868    Cu
Cu     0.81391  0.30969    0.368    Cu
Cu     0.81391  0.69031    0.132    Cu
Cu     0.81391  0.80969    0.632    Cu
C       0.8197   0.0188  0.56663     C
C       0.8197   0.4812  0.06663     C
C       0.8197   0.5188  0.43337     C
C       0.8197   0.9812  0.93337     C
N       0.8485   0.0285  0.49827     N
N       0.8485   0.4715  0.99827     N
N       0.8485   0.5285  0.50173     N
N       0.8485   0.9715  0.00173     N
H       0.8502   0.0094   0.6031     H
H       0.8502   0.4906   0.1031     H
H       0.8502   0.5094   0.3969     H
H       0.8502   0.9906   0.8969     H
N       0.8503   0.0412  0.12349     N
C       0.8503   0.4588  0.62349     C
N       0.8503   0.5412  0.87651     N
C       0.8503   0.9588  0.37651     C
C       0.8604   0.0114   0.5431     C
C       0.8604   0.4886   0.0431     C
C       0.8604   0.5114   0.4569     C
C       0.8604   0.9886   0.9569     C
S      0.87155  0.20578  0.39836     S
S      0.87155  0.29422  0.89836     S
S      0.87155  0.70578  0.60164     S
S      0.87155  0.79422  0.10164     S
C       0.8783   0.0031  0.58729     C
C       0.8783   0.4969  0.08729     C
C       0.8783   0.5031  0.41271     C
C       0.8783   0.9969  0.91271     C
H       0.9252   0.0466    0.438     H
H       0.9252   0.4534    0.938     H
H       0.9252   0.5466    0.562     H
H       0.9252   0.9534    0.062     H
Cu     0.94031  0.06391    0.382    Cu
Cu     0.94031  0.43609    0.882    Cu
Cu     0.94031  0.56391    0.618    Cu
Cu     0.94031  0.93609    0.118    Cu
S      0.95578  0.12155  0.85164     S
S      0.95578  0.37845  0.35164     S
S      0.95578  0.62155  0.14836     S
S      0.95578  0.87845  0.64836     S
C       0.9566    0.011   0.9584     C
C       0.9566    0.489   0.4584     C
C       0.9566    0.511   0.0416     C
C       0.9566    0.989   0.5416     C
N       0.9718   0.0205  0.91407     N
N       0.9718   0.4795  0.41407     N
N       0.9718   0.5205  0.08593     N
N       0.9718   0.9795  0.58593     N
H       0.9876   0.0125   0.9739     H
H       0.9876   0.4875   0.4739     H
H       0.9876   0.5125   0.0261     H
H       0.9876   0.9875   0.5261     H
C       0.9901   0.0266  0.43657     C
C       0.9901   0.4734  0.93657     C
C       0.9901   0.5266  0.56343     C
C       0.9901   0.9734  0.06343     C
