data_I
_chemical_name_common  '/home/zhangsd/repos/MofS-CGCNN/ML/data/SSD/clean_cifs/KUNMUD_clean'
_cell_length_a 15.93330
_cell_length_b 15.93330
_cell_length_c 21.13120
_cell_angle_alpha 90.00000
_cell_angle_beta  90.00000
_cell_angle_gamma 90.00000
_space_group_name_H-M_alt      'P 1'


loop_
_space_group_symop_operation_xyz
  'x, y, z' 

loop_
_atom_site_label
_atom_site_fract_x
_atom_site_fract_y
_atom_site_fract_z
_atom_site_type_symbol
C       0.0033   0.8769   0.4298     C
H       0.0034   0.7575   0.0759     H
N       0.0076   0.9604   0.4316     N
N       0.0079   0.0547   0.1089     N
H       0.0102   0.1981   0.0425     H
C       0.0112    0.829   0.7117     C
C       0.0216   0.7597   0.7521     C
N       0.0237    0.812   0.9937     N
H       0.0287   0.3449   0.2857     H
C       0.0347   0.7534   0.0388     C
C       0.0369   0.7829   0.5207     C
H       0.0372   0.2557   0.8621     H
C       0.0373   0.3004    0.258     C
N       0.0396   0.9924   0.0684     N
H       0.0401   0.1158   0.6545     H
H       0.0524   0.8701   0.7082     H
N       0.0547   0.0079   0.8911     N
C       0.0575   0.8153   0.4605     C
N       0.0594   0.1448    0.889     N
Cd     0.06023  0.06023      0.5    Cd
H       0.0621   0.8403   0.9074     H
C       0.0633   0.1663   0.1772     C
C       0.0694   0.8019     0.94     C
H       0.0708   0.7551   0.7756     H
C       0.0712   0.0941   0.1337     C
H       0.0757    0.699   0.5859     H
N       0.0831   0.2259   0.8705     N
C       0.0888   0.7218   0.5466     C
C       0.0896   0.6881   0.0326     C
C       0.0899   0.1422   0.6433     C
C       0.0941   0.0712   0.8663     C
H       0.0942   0.6492   0.0652     H
H       0.0948   0.2173   0.7205     H
H       0.1115   0.2503   0.9018     H
C       0.1122   0.2964   0.2223     C
H       0.1158   0.0401   0.3455     H
N       0.1196   0.1284   0.4109     N
C       0.1228   0.2045   0.6832     C
C       0.1228   0.2276   0.1828     C
C       0.1231   0.9967   0.0702     C
C       0.1251   0.7389   0.9316     C
C       0.1281   0.7862   0.4291     C
N       0.1284   0.1196   0.5891     N
H       0.1299   0.9476   0.7918     H
H       0.1371   0.2308   0.4583     H
C       0.1393   0.6782   0.9783     C
H        0.141   0.8079   0.3894     H
C       0.1422   0.0899   0.3567     C
N       0.1448   0.0594    0.111     N
H       0.1492   0.4058   0.3152     H
H       0.1545   0.3057   0.7836     H
H       0.1547   0.7358   0.8938     H
C       0.1548   0.2014   0.4227     C
H       0.1551   0.5287   0.0357     H
C       0.1597   0.6943   0.5148     C
H       0.1597   0.9379   0.5926     H
C       0.1663   0.0633   0.8228     C
C        0.171   0.9888   0.7883     C
H        0.172    0.223   0.1594     H
C       0.1782   0.3607   0.2283     C
C         0.18   0.7254   0.4551     C
C       0.1847   0.9425   0.0395     C
N        0.188   0.9763   0.5063     N
C       0.1881   0.4104   0.2826     C
H       0.1921    0.859   0.1106     H
C       0.1941   0.2464    0.669     C
C       0.1943   0.3403   0.7648     C
H       0.1943   0.6545   0.5336     H
H       0.1981   0.0102   0.9575     H
C       0.1981   0.9306     0.56     C
H        0.199   0.4243   0.8359     H
C       0.1996   0.5373    0.008     C
C       0.2014   0.1548   0.5773     C
C       0.2036   0.6122   0.9723     C
C       0.2045   0.1228   0.3168     C
H         0.21   0.7397   0.1451     H
C       0.2138   0.8719   0.0709     C
C       0.2171   0.9631   0.9793     C
H       0.2173   0.0948   0.2795     H
C       0.2175   0.2377   0.3848     C
C       0.2218   0.4112   0.7966     C
H        0.223    0.172   0.8406     H
C       0.2254     0.32   0.7051     C
N       0.2259   0.0831   0.1295     N
C       0.2276   0.1228   0.8172     C
H       0.2308   0.1371   0.5417     H
H       0.2358   0.3453   0.1438     H
C       0.2377   0.2175   0.6152     C
C       0.2389   0.3749   0.1816     C
H       0.2397     0.29   0.3951     H
C       0.2403   0.9784   0.7479     C
H       0.2425   0.9966   0.4241     H
H       0.2443   0.5372   0.6121     H
H       0.2449   0.9292   0.7244     H
C       0.2464   0.1941    0.331     C
C       0.2466   0.9653   0.4612     C
H       0.2497   0.6115   0.6518     H
H       0.2503   0.1115   0.0982     H
C       0.2534   0.4653   0.2888     C
C       0.2536   0.6941    0.419     C
H       0.2551   0.4292   0.0256     H
H       0.2557   0.0372   0.1379     H
H       0.2575   0.4966   0.3259     H
C       0.2597   0.4784   0.0021     C
H       0.2603     0.79   0.3549     H
C       0.2611   0.8749   0.5684     C
C       0.2623   0.7175   0.1348     C
H       0.2642   0.8453   0.6062     H
H       0.2692   0.6371   0.2083     H
C       0.2724   0.6228   0.9328     C
N       0.2741   0.5831   0.6205     N
C       0.2746     0.82   0.0449     C
H        0.277    0.672   0.9094     H
C       0.2782   0.9112   0.9534     C
C       0.2825   0.7377   0.3652     C
H       0.2827   0.5948   0.4705     H
C       0.2829   0.4631   0.7707     C
C       0.2862   0.3719   0.6791     C
H         0.29   0.2397   0.6049     H
C       0.2955   0.6228   0.4332     C
C       0.2964   0.1122   0.7777     C
C       0.2986   0.6548   0.1727     C
C       0.3004   0.0373    0.742     C
H        0.301   0.9243   0.9141     H
C       0.3019   0.4306     0.19     C
H       0.3019   0.5102   0.7925     H
H       0.3057   0.1545   0.2164     H
C       0.3057   0.8403   0.9852     C
C       0.3059   0.7464    0.081     C
H       0.3079    0.359   0.6394     H
C       0.3119   0.9104   0.4674     C
N        0.312   0.4763   0.2437     N
C       0.3153   0.4425   0.7105     C
C         0.32   0.2254   0.2949     C
C       0.3218   0.8607   0.5217     C
H        0.328    0.723   0.5906     H
C        0.329   0.4888   0.9617     C
C       0.3337   0.5633   0.9272     C
C       0.3403   0.1943   0.2352     C
H       0.3403   0.4379   0.1574     H
H       0.3449   0.0287   0.7143     H
C       0.3452   0.7014   0.3273     C
H       0.3453   0.2358   0.8562     H
H       0.3455   0.8057   0.9664     H
H       0.3508   0.9058   0.4348     H
N       0.3552   0.5594    0.639     N
C       0.3578   0.5899   0.3933     C
H        0.359   0.3079   0.3606     H
C       0.3607   0.1782   0.7717     C
H       0.3629   0.7308   0.2917     H
H       0.3701   0.4476   0.9582     H
N       0.3716   0.6196   0.1609     N
C       0.3719   0.2862   0.3209     C
C       0.3749   0.2389   0.8184     C
C       0.3769   0.4967   0.6798     C
C       0.3772   0.7045   0.0668     C
C       0.3772   0.7276   0.5672     C
N       0.3804   0.6284   0.3391     N
H       0.3842   0.5401   0.4045     H
C       0.3878   0.7964   0.5277     C
H       0.3885   0.7503   0.8482     H
H       0.4052   0.7173   0.0295     H
H       0.4058   0.1492   0.6848     H
C       0.4059   0.5712   0.8837     C
C       0.4101   0.6422   0.1067     C
C       0.4104   0.1881   0.7174     C
C       0.4112   0.2218   0.2034     C
N       0.4169   0.7259   0.8795     N
H       0.4243    0.199   0.1641     H
C       0.4288   0.5941   0.6163     C
H       0.4292   0.2551   0.9744     H
C       0.4306   0.3019     0.81     C
C       0.4367   0.6663   0.5728     C
H       0.4379   0.3403   0.8426     H
Cd     0.43977  0.56023     0.25    Cd
N       0.4406   0.6448    0.861     N
C       0.4425   0.3153   0.2895     C
N       0.4453   0.5079   0.8589     N
H       0.4476   0.3701   0.0418     H
H       0.4599   0.6158   0.0955     H
N       0.4604   0.4924   0.6816     N
C       0.4627   0.8004    0.492     C
H       0.4628   0.7557   0.8879     H
C       0.4631   0.2829   0.2293     C
C       0.4653   0.2534   0.7112     C
H       0.4713   0.8449   0.4643     H
N       0.4763    0.312   0.7563     N
C       0.4784   0.2597   0.9979     C
C       0.4888    0.329   0.0383     C
H       0.4898   0.6981   0.7075     H
N       0.4921   0.5547   0.6411     N
N       0.4924   0.4604   0.3184     N
H       0.4966   0.2575   0.6741     H
C       0.4967   0.3769   0.3202     C
C       0.5033   0.6231   0.8202     C
H       0.5034   0.7425   0.1741     H
N       0.5076   0.5396   0.8184     N
N       0.5079   0.4453   0.1411     N
H       0.5102   0.3019   0.2075     H
C       0.5112    0.671   0.5383     C
C       0.5216   0.7403   0.4979     C
N       0.5237    0.688   0.2563     N
H       0.5287   0.1551   0.9643     H
C       0.5347   0.7466   0.2112     C
C       0.5369   0.7171   0.7293     C
H       0.5372   0.2443   0.3879     H
C       0.5373   0.1996    0.992     C
N       0.5396   0.5076   0.1816     N
H       0.5401   0.3842   0.5955     H
H       0.5524   0.6299   0.5418     H
N       0.5547   0.4921   0.3589     N
C       0.5575   0.6847   0.7895     C
N       0.5594   0.3552    0.361     N
Cd     0.56023  0.43977     0.75    Cd
H       0.5621   0.6597   0.3426     H
C       0.5633   0.3337   0.0728     C
C       0.5694   0.6981     0.31     C
H       0.5708   0.7449   0.4744     H
C       0.5712   0.4059   0.1163     C
H       0.5757    0.801   0.6641     H
N       0.5831   0.2741   0.3795     N
C       0.5888   0.7782   0.7034     C
C       0.5896   0.8119   0.2174     C
C       0.5899   0.3578   0.6067     C
C       0.5941   0.4288   0.3837     C
H       0.5942   0.8508   0.1848     H
H       0.5948   0.2827   0.5295     H
H       0.6115   0.2497   0.3482     H
C       0.6122   0.2036   0.0277     C
H       0.6158   0.4599   0.9045     H
N       0.6196   0.3716   0.8391     N
C       0.6228   0.2724   0.0672     C
C       0.6228   0.2955   0.5668     C
C       0.6231   0.5033   0.1798     C
C       0.6251   0.7611   0.3184     C
C       0.6281   0.7138   0.8209     C
N       0.6284   0.3804   0.6609     N
H       0.6299   0.5524   0.4582     H
H       0.6371   0.2692   0.7917     H
C       0.6393   0.8218   0.2717     C
H        0.641   0.6921   0.8606     H
C       0.6422   0.4101   0.8933     C
N       0.6448   0.4406    0.139     N
H       0.6492   0.0942   0.9348     H
H       0.6545   0.1943   0.4664     H
H       0.6547   0.7642   0.3562     H
C       0.6548   0.2986   0.8273     C
H       0.6551   0.9713   0.2143     H
H       0.6597   0.5621   0.6574     H
C       0.6597   0.8057   0.7352     C
C       0.6663   0.4367   0.4272     C
C        0.671   0.5112   0.4617     C
H        0.672    0.277   0.0906     H
C       0.6782   0.1393   0.0217     C
C         0.68   0.7746   0.7949     C
C       0.6847   0.5575   0.2105     C
N        0.688   0.5237   0.7437     N
C       0.6881   0.0896   0.9674     C
H       0.6921    0.641   0.1394     H
C       0.6941   0.2536    0.581     C
C       0.6943   0.1597   0.4852     C
H       0.6943   0.8455   0.7164     H
H       0.6981   0.4898   0.2925     H
C       0.6981   0.5694     0.69     C
H        0.699   0.0757   0.4141     H
C       0.6996   0.9627    0.242     C
C       0.7014   0.3452   0.6727     C
C       0.7036   0.8878   0.2777     C
C       0.7045   0.3772   0.9332     C
H         0.71   0.7603   0.1049     H
C       0.7138   0.6281   0.1791     C
C       0.7171   0.5369   0.2707     C
H       0.7173   0.4052   0.9705     H
C       0.7175   0.2623   0.8652     C
C       0.7218   0.0888   0.4534     C
H        0.723    0.328   0.4094     H
C       0.7254     0.18   0.5449     C
N       0.7259   0.4169   0.1205     N
C       0.7276   0.3772   0.4328     C
H       0.7308   0.3629   0.7083     H
H       0.7358   0.1547   0.1062     H
C       0.7377   0.2825   0.6348     C
C       0.7389   0.1251   0.0684     C
H       0.7397     0.21   0.8549     H
C       0.7403   0.5216   0.5021     C
H       0.7425   0.5034   0.8259     H
H       0.7443   0.9628   0.6379     H
H       0.7449   0.5708   0.5256     H
C       0.7464   0.3059    0.919     C
C       0.7466   0.5347   0.7888     C
H       0.7497   0.8885   0.5982     H
H       0.7503   0.3885   0.1518     H
C       0.7534   0.0347   0.9612     C
C       0.7536   0.8059    0.831     C
H       0.7551   0.0708   0.2244     H
H       0.7557   0.4628   0.1121     H
H       0.7575   0.0034   0.9241     H
C       0.7597   0.0216   0.2479     C
H       0.7603     0.71   0.8951     H
C       0.7611   0.6251   0.6816     C
C       0.7623   0.7825   0.1152     C
H       0.7642   0.6547   0.6438     H
H       0.7692   0.8629   0.0417     H
C       0.7724   0.8772   0.3172     C
N       0.7741   0.9169   0.6295     N
C       0.7746     0.68   0.2051     C
H        0.777    0.828   0.3406     H
C       0.7782   0.5888   0.2966     C
C       0.7825   0.7623   0.8848     C
H       0.7827   0.9052   0.7795     H
C       0.7829   0.0369   0.4793     C
C       0.7862   0.1281   0.5709     C
H         0.79   0.2603   0.6451     H
C       0.7955   0.8772   0.8168     C
C       0.7964   0.3878   0.4723     C
C       0.7986   0.8452   0.0773     C
C       0.8004   0.4627    0.508     C
H        0.801   0.5757   0.3359     H
C       0.8019   0.0694     0.06     C
H       0.8019   0.9898   0.4575     H
H       0.8057   0.3455   0.0336     H
C       0.8057   0.6597   0.2648     C
C       0.8059   0.7536    0.169     C
H       0.8079    0.141   0.6106     H
C       0.8119   0.5896   0.7826     C
N        0.812   0.0237   0.0063     N
C       0.8153   0.0575   0.5395     C
C         0.82   0.2746   0.9551     C
C       0.8218   0.6393   0.7283     C
H        0.828    0.777   0.6594     H
C        0.829   0.0112   0.2883     C
C       0.8337   0.9367   0.3228     C
H       0.8403   0.0621   0.0926     H
C       0.8403   0.3057   0.0148     C
H       0.8449   0.4713   0.5357     H
C       0.8452   0.7986   0.9227     C
H       0.8453   0.2642   0.3938     H
H       0.8455   0.6943   0.2836     H
H       0.8508   0.5942   0.8152     H
N       0.8552   0.9406    0.611     N
C       0.8578   0.9101   0.8567     C
H        0.859   0.1921   0.8894     H
C       0.8607   0.3218   0.4783     C
H       0.8629   0.7692   0.9583     H
H       0.8701   0.0524   0.2918     H
N       0.8716   0.8804   0.0891     N
C       0.8719   0.2138   0.9291     C
C       0.8749   0.2611   0.4316     C
C       0.8769   0.0033   0.5702     C
C       0.8772   0.7724   0.6828     C
C       0.8772   0.7955   0.1832     C
N       0.8804   0.8716   0.9109     N
H       0.8842   0.9599   0.8455     H
C       0.8878   0.7036   0.7223     C
H       0.8885   0.7497   0.4018     H
H       0.9052   0.7827   0.2205     H
H       0.9058   0.3508   0.5652     H
C       0.9059   0.9288   0.3663     C
C       0.9101   0.8578   0.1433     C
C       0.9104   0.3119   0.5326     C
C       0.9112   0.2782   0.0466     C
N       0.9169   0.7741   0.3705     N
H       0.9243    0.301   0.0859     H
C       0.9288   0.9059   0.6337     C
H       0.9292   0.2449   0.2756     H
C       0.9306   0.1981     0.44     C
C       0.9367   0.8337   0.6772     C
H       0.9379   0.1597   0.4074     H
Cd     0.93977  0.93977      0.0    Cd
N       0.9406   0.8552    0.389     N
C       0.9425   0.1847   0.9605     C
N       0.9453   0.9921   0.3911     N
H       0.9476   0.1299   0.2082     H
H       0.9599   0.8842   0.1545     H
N       0.9604   0.0076   0.5684     N
C       0.9627   0.6996    0.758     C
H       0.9628   0.7443   0.3621     H
C       0.9631   0.2171   0.0207     C
C       0.9653   0.2466   0.5388     C
H       0.9713   0.6551   0.7857     H
N       0.9763    0.188   0.4937     N
C       0.9784   0.2403   0.2521     C
C       0.9888    0.171   0.2117     C
H       0.9898   0.8019   0.5425     H
N       0.9921   0.9453   0.6089     N
N       0.9924   0.0396   0.9316     N
H       0.9966   0.2425   0.5759     H
C       0.9967   0.1231   0.9298     C
