data_I
_chemical_name_common  '/home/zhangsd/repos/MofS-CGCNN/ML/data/SSD/clean_cifs/LALFUB_clean'
_cell_length_a  6.09150
_cell_length_b  9.96100
_cell_length_c 13.36100
_cell_angle_alpha 68.87000
_cell_angle_beta  81.01000
_cell_angle_gamma 76.72000
_space_group_name_H-M_alt      'P 1'


loop_
_space_group_symop_operation_xyz
  'x, y, z' 

loop_
_atom_site_label
_atom_site_fract_x
_atom_site_fract_y
_atom_site_fract_z
_atom_site_type_symbol
H       0.0102   0.4989   0.7688     H
O       0.0205   0.2156   0.8477     O
H        0.082   0.4209   0.1632     H
O       0.0929   0.4341   0.2209     O
N       0.0938   0.5467   0.3935     N
C        0.115   0.3986   0.5783     C
H       0.1723   0.9548   0.9732     H
H       0.2019   0.3265   0.6308     H
C       0.2107   0.2328   0.8582     C
C       0.2114   0.4448   0.4726     C
O       0.2755   0.6373   0.0135     O
O       0.2852   0.3516   0.8151     O
C       0.3088   0.9711   0.9851     C
Eu     0.33172  0.61438  0.19609    Eu
C       0.3669   0.1045   0.9314     C
C       0.4089   0.5605   0.9665     C
O       0.4151   0.5693   0.8707     O
O       0.4321   0.7099   0.4898     O
N       0.4391   0.8648   0.0532     N
C       0.4498   0.3827   0.4396     C
O       0.4864    0.569   0.6573     O
O       0.5136    0.431   0.3427     O
C       0.5502   0.6173   0.5604     C
N       0.5609   0.1352   0.9468     N
O       0.5679   0.2901   0.5102     O
O       0.5849   0.4307   0.1293     O
C       0.5911   0.4395   0.0335     C
C       0.6331   0.8955   0.0686     C
Eu     0.66828  0.38562  0.80391    Eu
C       0.6912   0.0289   0.0149     C
O       0.7148   0.6484   0.1849     O
O       0.7245   0.3627   0.9865     O
C       0.7886   0.5552   0.5274     C
C       0.7893   0.7672   0.1418     C
H       0.7981   0.6735   0.3692     H
H       0.8277   0.0452   0.0268     H
C        0.885   0.6014   0.4217     C
N       0.9062   0.4533   0.6065     N
O       0.9071   0.5659   0.7791     O
H        0.918   0.5791   0.8368     H
O       0.9795   0.7844   0.1523     O
H       0.9898   0.5011   0.2312     H
