data_I
_chemical_name_common  '/home/zhangsd/repos/MofS-CGCNN/ML/data/SSD/clean_cifs/LAVTUZ_clean'
_cell_length_a 10.24000
_cell_length_b 10.24000
_cell_length_c 14.42000
_cell_angle_alpha 90.00000
_cell_angle_beta  90.00000
_cell_angle_gamma 90.00000
_space_group_name_H-M_alt      'P 1'


loop_
_space_group_symop_operation_xyz
  'x, y, z' 

loop_
_atom_site_label
_atom_site_fract_x
_atom_site_fract_y
_atom_site_fract_z
_atom_site_type_symbol
C       0.0357      0.5     0.25     C
H        0.059   0.4251   0.3791     H
H        0.059   0.5749   0.1209     H
C       0.1042   0.4554   0.3275     C
C       0.1042   0.5446   0.1725     C
C       0.1116      0.5     0.75     C
O        0.166   0.4261   0.6914     O
O        0.166   0.5739   0.8086     O
C       0.2398   0.4565   0.3274     C
C       0.2398   0.5435   0.1726     C
O       0.2598   0.4049   0.4876     O
O       0.2598   0.5951   0.0124     O
C       0.3081      0.5     0.25     C
C       0.3178    0.411    0.411     C
C       0.3178    0.589    0.089     C
Yb     0.35215  0.35215    0.625    Yb
Yb     0.35215  0.64785    0.875    Yb
O       0.3876   0.4338   0.8502     O
O       0.3876   0.5662   0.6498     O
H       0.3989      0.5     0.25     H
O       0.4049   0.2598   0.7624     O
O       0.4049   0.7402   0.7376     O
C        0.411   0.3178    0.839     C
C        0.411   0.6822    0.661     C
H       0.4251    0.059   0.8709     H
H       0.4251    0.941   0.6291     H
O       0.4261    0.166   0.5586     O
O       0.4261    0.834   0.9414     O
O       0.4338   0.3876   0.3998     O
O       0.4338   0.6124   0.1002     O
C       0.4554   0.1042   0.9225     C
C       0.4554   0.8958   0.5775     C
C       0.4565   0.2398   0.9226     C
C       0.4565   0.7602   0.5774     C
C          0.5   0.0357      0.0     C
C          0.5   0.1116      0.5     C
C          0.5   0.3081      0.0     C
H          0.5   0.3989      0.0     H
H          0.5   0.6011      0.5     H
C          0.5   0.6919      0.5     C
C          0.5   0.8884      0.0     C
C          0.5   0.9643      0.5     C
C       0.5435   0.2398   0.0774     C
C       0.5435   0.7602   0.4226     C
C       0.5446   0.1042   0.0775     C
C       0.5446   0.8958   0.4225     C
O       0.5662   0.3876   0.6002     O
O       0.5662   0.6124   0.8998     O
O       0.5739    0.166   0.4414     O
O       0.5739    0.834   0.0586     O
H       0.5749    0.059   0.1291     H
H       0.5749    0.941   0.3709     H
C        0.589   0.3178    0.161     C
C        0.589   0.6822    0.339     C
O       0.5951   0.2598   0.2376     O
O       0.5951   0.7402   0.2624     O
H       0.6011      0.5     0.75     H
O       0.6124   0.4338   0.1498     O
O       0.6124   0.5662   0.3502     O
Yb     0.64785  0.35215    0.375    Yb
Yb     0.64785  0.64785    0.125    Yb
C       0.6822    0.411    0.589     C
C       0.6822    0.589    0.911     C
C       0.6919      0.5     0.75     C
O       0.7402   0.4049   0.5124     O
O       0.7402   0.5951   0.9876     O
C       0.7602   0.4565   0.6726     C
C       0.7602   0.5435   0.8274     C
O        0.834   0.4261   0.3086     O
O        0.834   0.5739   0.1914     O
C       0.8884      0.5     0.25     C
C       0.8958   0.4554   0.6725     C
C       0.8958   0.5446   0.8275     C
H        0.941   0.4251   0.6209     H
H        0.941   0.5749   0.8791     H
C       0.9643      0.5     0.75     C
