data_I
_chemical_name_common  '/home/zhangsd/repos/MofS-CGCNN/ML/data/SSD/clean_cifs/LAWFUN_clean'
_cell_length_a 17.02980
_cell_length_b 18.89040
_cell_length_c 16.76110
_cell_angle_alpha 90.00000
_cell_angle_beta  112.44700
_cell_angle_gamma 90.00000
_space_group_name_H-M_alt      'P 1'


loop_
_space_group_symop_operation_xyz
  'x, y, z' 

loop_
_atom_site_label
_atom_site_fract_x
_atom_site_fract_y
_atom_site_fract_z
_atom_site_type_symbol
H       0.0198   0.2391   0.3256     H
H       0.0198   0.7609   0.8256     H
O      0.03291  0.38226  0.34054     O
O      0.03291  0.61774  0.84054     O
C       0.0336  0.13676  0.29395     C
C       0.0336  0.86324  0.79395     C
C      0.03646  0.45406  0.45868     C
C      0.03646  0.54594  0.95868     C
C      0.04747    0.444  0.04958     C
C      0.04747    0.556  0.54958     C
C      0.05063  0.19658  0.34618     C
C      0.05063  0.80342  0.84618     C
H        0.072   0.0346   0.2934     H
H        0.072   0.9654   0.7934     H
C      0.07665  0.40677  0.41375     C
C      0.07665  0.59323  0.91375     C
H       0.0801   0.3611   0.1222     H
H       0.0801   0.6389   0.6222     H
C      0.08141  0.07645  0.32723     C
C      0.08141  0.92355  0.82723     C
Li      0.0821   0.3833    0.247    Li
Li      0.0821   0.6167    0.747    Li
C      0.08395  0.48951  0.00877     C
C      0.08395  0.51049  0.50877     C
H       0.0933   0.1125    0.041     H
H       0.0933   0.8875    0.541     H
H       0.0956   0.1937   0.0632     H
H       0.0956   0.8063   0.5632     H
N       0.0985   0.3922   0.0944     N
N       0.0985   0.6078   0.5944     N
C      0.11257  0.19348  0.42803     C
C      0.11257  0.80652  0.92803     C
H       0.1194   0.2578   0.1231     H
H       0.1194   0.7422   0.6231     H
H       0.1234   0.2346   0.4633     H
H       0.1234   0.7654   0.9633     H
N       0.1239   0.2123   0.1144     N
N       0.1239   0.7877   0.6144     N
N       0.1319   0.0823   0.0729     N
N       0.1319   0.9177   0.5729     N
H       0.1338   0.0392   0.0539     H
H       0.1338   0.9608   0.5539     H
C      0.14267  0.07761   0.4097     C
C      0.14267  0.92239   0.9097     C
O      0.14348  0.29964  0.24782     O
O      0.14348  0.70036  0.74782     O
H       0.1507   0.3892   0.0961     H
H       0.1507   0.6108   0.5961     H
O      0.15492  0.39447  0.45399     O
O      0.15492  0.60553  0.95399     O
O      0.15573   0.4614  0.27384     O
O      0.15573   0.5386  0.77384     O
H        0.156   0.4449   0.6683     H
H        0.156   0.5551   0.1683     H
N      0.15835  0.13508  0.46021     N
N      0.15835  0.86492  0.96021     N
N       0.1623   0.4681   0.0115     N
N       0.1623   0.5319   0.5115     N
H       0.1751    0.036   0.4316     H
H       0.1751    0.964   0.9316     H
C      0.17542  0.16997    0.181     C
C      0.17542  0.83003    0.681     C
H       0.1823   0.3352   0.6228     H
H       0.1823   0.6648   0.1228     H
H       0.1849   0.4284   0.0377     H
H       0.1849   0.5716   0.5377     H
H       0.1897   0.4941    0.987     H
H       0.1897   0.5059    0.487     H
C       0.1902  0.10297   0.1538     C
C       0.1902  0.89703   0.6538     C
C      0.19931   0.4158  0.70699     C
C      0.19931   0.5842  0.20699     C
C      0.20541  0.26363  0.29422     C
C      0.20541  0.73637  0.79422     C
C      0.21456  0.35059  0.67995     C
C      0.21456  0.64941  0.17995     C
O      0.21846  0.03949  0.61749     O
O      0.21846  0.96051  0.11749     O
C      0.22292  0.19315  0.26407     C
C      0.22292  0.80685  0.76407     C
C      0.22534  0.48939  0.31606     C
C      0.22534  0.51061  0.81606     C
O      0.24283   0.2172  0.63086     O
O      0.24283   0.7828  0.13086     O
C      0.24594   0.4401  0.78989     C
C      0.24594   0.5599  0.28989     C
Zn     0.24828  0.37168  0.41939    Zn
Zn     0.24828  0.62832  0.91939    Zn
Zn     0.25172  0.12832  0.58061    Zn
Zn     0.25172  0.87168  0.08061    Zn
C      0.25406   0.0599  0.21011     C
C      0.25406   0.9401  0.71011     C
O      0.25717   0.2828  0.36914     O
O      0.25717   0.7172  0.86914     O
C      0.27466  0.01061  0.68394     C
C      0.27466  0.98939  0.18394     C
C      0.27708  0.30685  0.73593     C
C      0.27708  0.69315  0.23593     C
O      0.28154  0.46051  0.38251     O
O      0.28154  0.53949  0.88251     O
C      0.28544  0.14941  0.32005     C
C      0.28544  0.85059  0.82005     C
C      0.29459  0.23637  0.70578     C
C      0.29459  0.76363  0.20578     C
C      0.30069   0.0842  0.29301     C
C      0.30069   0.9158  0.79301     C
C       0.3098  0.39703   0.8462     C
C       0.3098  0.60297   0.3462     C
H       0.3103   0.0059    0.013     H
H       0.3103   0.9941    0.513     H
H       0.3151   0.0716   0.9623     H
H       0.3151   0.9284   0.4623     H
H       0.3177   0.1648   0.3772     H
H       0.3177   0.8352   0.8772     H
C      0.32458  0.33003    0.819     C
C      0.32458  0.66997    0.319     C
H       0.3249    0.464   0.5684     H
H       0.3249    0.536   0.0684     H
N       0.3377   0.0319   0.9885     N
N       0.3377   0.9681   0.4885     N
N      0.34165  0.36492  0.53979     N
N      0.34165  0.63508  0.03979     N
H        0.344   0.0551   0.3317     H
H        0.344   0.9449   0.8317     H
O      0.34427   0.0386  0.72616     O
O      0.34427   0.9614  0.22616     O
O      0.34508  0.10553  0.54601     O
O      0.34508  0.89447  0.04601     O
H       0.3493   0.1108   0.9039     H
H       0.3493   0.8892   0.4039     H
O      0.35652  0.20036  0.75218     O
O      0.35652  0.79964  0.25218     O
C      0.35733  0.42239   0.5903     C
C      0.35733  0.57761   0.0903     C
H       0.3662   0.4608   0.9461     H
H       0.3662   0.5392   0.4461     H
N       0.3681   0.4177   0.9271     N
N       0.3681   0.5823   0.4271     N
N       0.3761   0.2877   0.8856     N
N       0.3761   0.7123   0.3856     N
H       0.3766   0.2654   0.5367     H
H       0.3766   0.7346   0.0367     H
H       0.3806   0.2422   0.8769     H
H       0.3806   0.7578   0.3769     H
C      0.38743  0.30652  0.57197     C
C      0.38743  0.69348  0.07197     C
N       0.4015   0.1078   0.9056     N
N       0.4015   0.8922   0.4056     N
H       0.4044   0.3063   0.9368     H
H       0.4044   0.6937   0.4368     H
H       0.4067   0.3875    0.959     H
H       0.4067   0.6125    0.459     H
C      0.41605  0.01049  0.99123     C
C      0.41605  0.98951  0.49123     C
Li      0.4179   0.1167    0.753    Li
Li      0.4179   0.8833    0.253    Li
C      0.41859  0.42355  0.67277     C
C      0.41859  0.57645  0.17277     C
H       0.4199   0.1389   0.8778     H
H       0.4199   0.8611   0.3778     H
C      0.42335  0.09323  0.58625     C
C      0.42335  0.90677  0.08625     C
H        0.428   0.4654   0.7066     H
H        0.428   0.5346   0.2066     H
C      0.44937  0.30342  0.65382     C
C      0.44937  0.69658  0.15382     C
C      0.45253    0.056  0.95042     C
C      0.45253    0.944  0.45042     C
C      0.46354  0.04594  0.54132     C
C      0.46354  0.95406  0.04132     C
C       0.4664  0.36324  0.70605     C
C       0.4664  0.63676  0.20605     C
O      0.46709  0.11774  0.65946     O
O      0.46709  0.88226  0.15946     O
H       0.4802   0.2609   0.6744     H
H       0.4802   0.7391   0.1744     H
H       0.5198   0.2609   0.8256     H
H       0.5198   0.7391   0.3256     H
O      0.53291  0.11774  0.84054     O
O      0.53291  0.88226  0.34054     O
C       0.5336  0.36324  0.79395     C
C       0.5336  0.63676  0.29395     C
C      0.53646  0.04594  0.95868     C
C      0.53646  0.95406  0.45868     C
C      0.54747    0.056  0.54958     C
C      0.54747    0.944  0.04958     C
C      0.55063  0.30342  0.84618     C
C      0.55063  0.69658  0.34618     C
H        0.572   0.4654   0.7934     H
H        0.572   0.5346   0.2934     H
C      0.57665  0.09323  0.91375     C
C      0.57665  0.90677  0.41375     C
H       0.5801   0.1389   0.6222     H
H       0.5801   0.8611   0.1222     H
C      0.58141  0.42355  0.82723     C
C      0.58141  0.57645  0.32723     C
Li      0.5821   0.1167    0.747    Li
Li      0.5821   0.8833    0.247    Li
C      0.58395  0.01049  0.50877     C
C      0.58395  0.98951  0.00877     C
H       0.5933   0.3875    0.541     H
H       0.5933   0.6125    0.041     H
H       0.5956   0.3063   0.5632     H
H       0.5956   0.6937   0.0632     H
N       0.5985   0.1078   0.5944     N
N       0.5985   0.8922   0.0944     N
C      0.61257  0.30652  0.92803     C
C      0.61257  0.69348  0.42803     C
H       0.6194   0.2422   0.6231     H
H       0.6194   0.7578   0.1231     H
H       0.6234   0.2654   0.9633     H
H       0.6234   0.7346   0.4633     H
N       0.6239   0.2877   0.6144     N
N       0.6239   0.7123   0.1144     N
N       0.6319   0.4177   0.5729     N
N       0.6319   0.5823   0.0729     N
H       0.6338   0.4608   0.5539     H
H       0.6338   0.5392   0.0539     H
C      0.64267  0.42239   0.9097     C
C      0.64267  0.57761   0.4097     C
O      0.64348  0.20036  0.74782     O
O      0.64348  0.79964  0.24782     O
H       0.6507   0.1108   0.5961     H
H       0.6507   0.8892   0.0961     H
O      0.65492  0.10553  0.95399     O
O      0.65492  0.89447  0.45399     O
O      0.65573   0.0386  0.77384     O
O      0.65573   0.9614  0.27384     O
H        0.656   0.0551   0.1683     H
H        0.656   0.9449   0.6683     H
N      0.65835  0.36492  0.96021     N
N      0.65835  0.63508  0.46021     N
N       0.6623   0.0319   0.5115     N
N       0.6623   0.9681   0.0115     N
H       0.6751    0.464   0.9316     H
H       0.6751    0.536   0.4316     H
C      0.67542  0.33003    0.681     C
C      0.67542  0.66997    0.181     C
H       0.6823   0.1648   0.1228     H
H       0.6823   0.8352   0.6228     H
H       0.6849   0.0716   0.5377     H
H       0.6849   0.9284   0.0377     H
H       0.6897   0.0059    0.487     H
H       0.6897   0.9941    0.987     H
C       0.6902  0.39703   0.6538     C
C       0.6902  0.60297   0.1538     C
C      0.69931   0.0842  0.20699     C
C      0.69931   0.9158  0.70699     C
C      0.70541  0.23637  0.79422     C
C      0.70541  0.76363  0.29422     C
C      0.71456  0.14941  0.17995     C
C      0.71456  0.85059  0.67995     C
O      0.71846  0.46051  0.11749     O
O      0.71846  0.53949  0.61749     O
C      0.72292  0.30685  0.76407     C
C      0.72292  0.69315  0.26407     C
C      0.72534  0.01061  0.81606     C
C      0.72534  0.98939  0.31606     C
O      0.74283   0.2828  0.13086     O
O      0.74283   0.7172  0.63086     O
C      0.74594   0.0599  0.28989     C
C      0.74594   0.9401  0.78989     C
Zn     0.74828  0.12832  0.91939    Zn
Zn     0.74828  0.87168  0.41939    Zn
Zn     0.75172  0.37168  0.08061    Zn
Zn     0.75172  0.62832  0.58061    Zn
C      0.75406   0.4401  0.71011     C
C      0.75406   0.5599  0.21011     C
O      0.75717   0.2172  0.86914     O
O      0.75717   0.7828  0.36914     O
C      0.77466  0.48939  0.18394     C
C      0.77466  0.51061  0.68394     C
C      0.77708  0.19315  0.23593     C
C      0.77708  0.80685  0.73593     C
O      0.78154  0.03949  0.88251     O
O      0.78154  0.96051  0.38251     O
C      0.78544  0.35059  0.82005     C
C      0.78544  0.64941  0.32005     C
C      0.79459  0.26363  0.20578     C
C      0.79459  0.73637  0.70578     C
C      0.80069   0.4158  0.79301     C
C      0.80069   0.5842  0.29301     C
C       0.8098  0.10297   0.3462     C
C       0.8098  0.89703   0.8462     C
H       0.8103   0.4941    0.513     H
H       0.8103   0.5059    0.013     H
H       0.8151   0.4284   0.4623     H
H       0.8151   0.5716   0.9623     H
H       0.8177   0.3352   0.8772     H
H       0.8177   0.6648   0.3772     H
C      0.82458  0.16997    0.319     C
C      0.82458  0.83003    0.819     C
H       0.8249    0.036   0.0684     H
H       0.8249    0.964   0.5684     H
N       0.8377   0.4681   0.4885     N
N       0.8377   0.5319   0.9885     N
N      0.84165  0.13508  0.03979     N
N      0.84165  0.86492  0.53979     N
H        0.844   0.4449   0.8317     H
H        0.844   0.5551   0.3317     H
O      0.84427   0.4614  0.22616     O
O      0.84427   0.5386  0.72616     O
O      0.84508  0.39447  0.04601     O
O      0.84508  0.60553  0.54601     O
H       0.8493   0.3892   0.4039     H
H       0.8493   0.6108   0.9039     H
O      0.85652  0.29964  0.25218     O
O      0.85652  0.70036  0.75218     O
C      0.85733  0.07761   0.0903     C
C      0.85733  0.92239   0.5903     C
H       0.8662   0.0392   0.4461     H
H       0.8662   0.9608   0.9461     H
N       0.8681   0.0823   0.4271     N
N       0.8681   0.9177   0.9271     N
N       0.8761   0.2123   0.3856     N
N       0.8761   0.7877   0.8856     N
H       0.8766   0.2346   0.0367     H
H       0.8766   0.7654   0.5367     H
H       0.8806   0.2578   0.3769     H
H       0.8806   0.7422   0.8769     H
C      0.88743  0.19348  0.07197     C
C      0.88743  0.80652  0.57197     C
N       0.9015   0.3922   0.4056     N
N       0.9015   0.6078   0.9056     N
H       0.9044   0.1937   0.4368     H
H       0.9044   0.8063   0.9368     H
H       0.9067   0.1125    0.459     H
H       0.9067   0.8875    0.959     H
C      0.91605  0.48951  0.49123     C
C      0.91605  0.51049  0.99123     C
Li      0.9179   0.3833    0.253    Li
Li      0.9179   0.6167    0.753    Li
C      0.91859  0.07645  0.17277     C
C      0.91859  0.92355  0.67277     C
H       0.9199   0.3611   0.3778     H
H       0.9199   0.6389   0.8778     H
C      0.92335  0.40677  0.08625     C
C      0.92335  0.59323  0.58625     C
H        0.928   0.0346   0.2066     H
H        0.928   0.9654   0.7066     H
C      0.94937  0.19658  0.15382     C
C      0.94937  0.80342  0.65382     C
C      0.95253    0.444  0.45042     C
C      0.95253    0.556  0.95042     C
C      0.96354  0.45406  0.04132     C
C      0.96354  0.54594  0.54132     C
C       0.9664  0.13676  0.20605     C
C       0.9664  0.86324  0.70605     C
O      0.96709  0.38226  0.15946     O
O      0.96709  0.61774  0.65946     O
H       0.9802   0.2391   0.1744     H
H       0.9802   0.7609   0.6744     H
