data_I
_chemical_name_common  '/home/zhangsd/repos/MofS-CGCNN/ML/data/SSD/clean_cifs/LEDWUN_clean'
_cell_length_a  7.58170
_cell_length_b 10.47870
_cell_length_c 21.66300
_cell_angle_alpha 90.00000
_cell_angle_beta  90.00000
_cell_angle_gamma 90.00000
_space_group_name_H-M_alt      'P 1'


loop_
_space_group_symop_operation_xyz
  'x, y, z' 

loop_
_atom_site_label
_atom_site_fract_x
_atom_site_fract_y
_atom_site_fract_z
_atom_site_type_symbol
H       0.0046   0.4682    0.913     H
C       0.0112   0.4866  0.00709     C
C       0.0122   0.7068  0.24789     C
H       0.0168    0.041    0.404     H
H       0.0269   0.8004   0.2512     H
C        0.033   0.1301  0.08177     C
C       0.0361    0.018  0.55324     C
C       0.0375   0.6469  0.31099     C
C       0.0485   0.1946  0.13798     C
C         0.05   0.0624  0.44504     C
C       0.0655   0.5197  0.42036     C
N       0.0709  0.25491  0.65418     N
H        0.073   0.4751   0.4584     H
H       0.0826    0.253   0.6964     H
H       0.0838   0.4147   0.0152     H
H       0.0894   0.1618   0.0457     H
H       0.1041   0.6742   0.2195     H
H       0.1043    0.335   0.6413     H
H       0.1172   0.2702   0.1409     H
C       0.1361   0.5367  0.31773     C
C       0.1432   0.1231  0.56323     C
N       0.1514  0.47209  0.37151     N
N       0.1529  0.16354  0.45369     N
N       0.1634   0.1783  0.27796     N
H       0.1676   0.0914   0.2837     H
H       0.1835   0.7997   0.1268     H
H       0.1964   0.5046   0.2826     H
C        0.197   0.1929  0.51245     C
C       0.1973   0.1619   0.6279     C
H       0.2022   0.0853   0.6546     H
Ag      0.2268  0.72955    0.869    Ag
H       0.2308   0.7344   0.0192     H
H       0.2438   0.1969   0.2474     H
H       0.2562   0.8031   0.7474     H
H       0.2692   0.2656   0.5192     H
Ag      0.2732  0.27045    0.369    Ag
H       0.2978   0.9147   0.1546     H
C       0.3027   0.8381   0.1279     C
C        0.303   0.8071  0.01245     C
H       0.3036   0.4954   0.7826     H
H       0.3165   0.2003   0.6268     H
H       0.3324   0.9086   0.7837     H
N       0.3366   0.8217  0.77796     N
N       0.3471  0.83646  0.95369     N
N       0.3486  0.52791  0.87151     N
C       0.3568   0.8769  0.06323     C
C       0.3639   0.4633  0.81773     C
H       0.3828   0.7298   0.6409     H
H       0.3957    0.665   0.1413     H
H       0.3959   0.3258   0.7195     H
H       0.4106   0.8382   0.5457     H
H       0.4162   0.5853   0.5152     H
H       0.4174    0.747   0.1964     H
H        0.427   0.5249   0.9584     H
N       0.4291  0.74509  0.15418     N
C       0.4345   0.4803  0.92036     C
C         0.45   0.9376  0.94504     C
C       0.4515   0.8054  0.63798     C
C       0.4625   0.3531  0.81099     C
C       0.4639    0.982  0.05324     C
C        0.467   0.8699  0.58177     C
H       0.4731   0.1996   0.7512     H
H       0.4832    0.959    0.904     H
C       0.4878   0.2932  0.74789     C
C       0.4888   0.5134  0.50709     C
H       0.4954   0.5318    0.413     H
H       0.5046   0.0318    0.087     H
C       0.5112   0.0134  0.99291     C
C       0.5122   0.7932  0.75211     C
H       0.5168    0.459    0.596     H
H       0.5269   0.6996   0.7488     H
C        0.533   0.3699  0.91823     C
C       0.5361    0.482  0.44676     C
C       0.5375   0.8531  0.68901     C
C       0.5485   0.3054  0.86202     C
C         0.55   0.4376  0.55496     C
C       0.5655   0.9803  0.57964     C
N       0.5709  0.24509  0.34582     N
H        0.573   0.0249   0.5416     H
H       0.5826    0.247   0.3036     H
H       0.5838   0.0853   0.9848     H
H       0.5894   0.3382   0.9543     H
H       0.6041   0.8258   0.7805     H
H       0.6043    0.165   0.3587     H
H       0.6172   0.2298   0.8591     H
C       0.6361   0.9633  0.68227     C
C       0.6432   0.3769  0.43677     C
N       0.6514  0.02791  0.62849     N
N       0.6529  0.33646  0.54631     N
N       0.6634   0.3217  0.72204     N
H       0.6676   0.4086   0.7163     H
H       0.6835   0.7003   0.8732     H
H       0.6964   0.9954   0.7174     H
C        0.697   0.3071  0.48755     C
C       0.6973   0.3381   0.3721     C
H       0.7022   0.4147   0.3454     H
Ag      0.7268  0.77045    0.131    Ag
H       0.7308   0.7656   0.9808     H
H       0.7438   0.3031   0.7526     H
H       0.7562   0.6969   0.2526     H
H       0.7692   0.2344   0.4808     H
Ag      0.7732  0.22955    0.631    Ag
H       0.7978   0.5853   0.8454     H
C       0.8027   0.6619   0.8721     C
C        0.803   0.6929  0.98755     C
H       0.8036   0.0046   0.2174     H
H       0.8165   0.2997   0.3732     H
H       0.8324   0.5914   0.2163     H
N       0.8366   0.6783  0.22204     N
N       0.8471  0.66354  0.04631     N
N       0.8486  0.97209  0.12849     N
C       0.8568   0.6231  0.93677     C
C       0.8639   0.0367  0.18227     C
H       0.8828   0.7702   0.3591     H
H       0.8957    0.835   0.8587     H
H       0.8959   0.1742   0.2805     H
H       0.9106   0.6618   0.4543     H
H       0.9162   0.9147   0.4848     H
H       0.9174    0.753   0.8036     H
H        0.927   0.9751   0.0416     H
N       0.9291  0.75491  0.84582     N
C       0.9345   0.0197  0.07964     C
C         0.95   0.5624  0.05496     C
C       0.9515   0.6946  0.36202     C
C       0.9625   0.1469  0.18901     C
C       0.9639    0.518  0.94676     C
C        0.967   0.6301  0.41823     C
H       0.9731   0.3004   0.2488     H
H       0.9832    0.541    0.096     H
C       0.9878   0.2068  0.25211     C
C       0.9888   0.9866  0.49291     C
H       0.9954   0.9682    0.587     H
