data_I
_chemical_name_common  '/home/zhangsd/repos/MofS-CGCNN/ML/data/SSD/clean_cifs/LEQVIN_clean'
_cell_length_a  8.80300
_cell_length_b  8.80300
_cell_length_c 25.29200
_cell_angle_alpha 90.00000
_cell_angle_beta  90.00000
_cell_angle_gamma 120.00000
_space_group_name_H-M_alt      'P 1'


loop_
_space_group_symop_operation_xyz
  'x, y, z' 

loop_
_atom_site_label
_atom_site_fract_x
_atom_site_fract_y
_atom_site_fract_z
_atom_site_type_symbol
Fe         0.0      0.0  0.31106    Fe
Fe         0.0      0.0      0.5    Fe
Fe         0.0      0.0  0.68894    Fe
O      0.00113  0.81397  0.64388     O
O      0.00547  0.81693  0.26389     O
O      0.02407  0.20113  0.45605     O
H      0.04067  0.76233  0.40193     H
P      0.04553   0.4892  0.07029     P
H        0.055    0.626   0.0686     H
H      0.09567  0.38833  0.26473     H
P      0.11034   0.2878  0.40362     P
O       0.1322   0.4896  0.12272     O
O       0.1448   0.6612  0.93056     O
O      0.14617  0.66553  0.31054     O
O       0.1473   0.4795  0.02279     O
O      0.15027  0.47813  0.40277     O
P      0.15587    0.777  0.26304     P
O      0.15627  0.69073  0.21061     O
O      0.17707  0.97593  0.45605     O
P      0.17747  0.88966  0.40362     P
O      0.18307  0.18853  0.26389     O
O      0.18603  0.18717  0.64388     O
O      0.18717  0.00113  0.35612     O
O      0.18853  0.00547  0.73611     O
O      0.20113  0.17707  0.54395     O
P        0.223  0.37886  0.26304     P
H      0.23767  0.27833  0.40193     H
H      0.27833  0.04067  0.59807     H
P       0.2878  0.17747  0.59638     P
H      0.29267  0.90433  0.26473     H
O      0.30927  0.46553  0.21061     O
O      0.32787  0.84973  0.40277     O
O       0.3322   0.8527  0.02279     O
Fe     0.33333  0.66667  0.16667    Fe
Fe     0.33333  0.66667   0.3556    Fe
Fe     0.33333  0.66667  0.97773    Fe
O      0.33447  0.48063  0.31054     O
O       0.3388   0.4836  0.93056     O
O       0.3574   0.8678  0.12272     O
H        0.374    0.429   0.0686     H
P      0.37886  0.15587  0.73696     P
H      0.38833  0.29267  0.73527     H
H        0.429    0.055   0.9314     H
P      0.44367  0.95447  0.07029     P
O      0.46553  0.15627  0.78939     O
O      0.47813  0.32787  0.59723     O
O       0.4795   0.3322  0.97721     O
O      0.48063  0.14617  0.68946     O
O       0.4836   0.1448  0.06944     O
P       0.4892  0.44367  0.92971     P
O       0.4896   0.3574  0.87728     O
O       0.5104   0.6426  0.12272     O
P       0.5108  0.55633  0.07029     P
O       0.5164   0.8552  0.93056     O
O      0.51937  0.85383  0.31054     O
O       0.5205   0.6678  0.02279     O
O      0.52187  0.67213  0.40277     O
O      0.53447  0.84373  0.21061     O
P      0.55633  0.04553  0.92971     P
H        0.571    0.945   0.0686     H
H      0.61167  0.70733  0.26473     H
P      0.62114  0.84413  0.26304     P
H        0.626    0.571   0.9314     H
O       0.6426   0.1322  0.87728     O
O       0.6612   0.5164  0.06944     O
O      0.66553  0.51937  0.68946     O
Fe     0.66667  0.33333  0.02227    Fe
Fe     0.66667  0.33333   0.6444    Fe
Fe     0.66667  0.33333  0.83333    Fe
O       0.6678   0.1473  0.97721     O
O      0.67213  0.15027  0.59723     O
O      0.69073  0.53447  0.78939     O
H      0.70733  0.09567  0.73527     H
P       0.7122  0.82253  0.40362     P
H      0.72167  0.95933  0.40193     H
H      0.76233  0.72167  0.59807     H
P        0.777  0.62114  0.73696     P
O      0.79887  0.82293  0.45605     O
O      0.81147  0.99453  0.26389     O
O      0.81283  0.99887  0.64388     O
O      0.81397  0.81283  0.35612     O
O      0.81693  0.81147  0.73611     O
P      0.82253  0.11034  0.59638     P
O      0.82293  0.02407  0.54395     O
O      0.84373  0.30927  0.78939     O
P      0.84413    0.223  0.73696     P
O      0.84973  0.52187  0.59723     O
O       0.8527   0.5205  0.97721     O
O      0.85383  0.33447  0.68946     O
O       0.8552   0.3388  0.06944     O
O       0.8678   0.5104  0.87728     O
P      0.88966   0.7122  0.59638     P
H      0.90433  0.61167  0.73527     H
H        0.945    0.374   0.9314     H
P      0.95447   0.5108  0.92971     P
H      0.95933  0.23767  0.59807     H
O      0.97593  0.79887  0.54395     O
O      0.99453  0.18307  0.73611     O
O      0.99887  0.18603  0.35612     O
