data_I
_chemical_name_common  '/home/zhangsd/repos/MofS-CGCNN/ML/data/SSD/clean_cifs/LETDEU_clean'
_cell_length_a 28.67820
_cell_length_b 28.67820
_cell_length_c  6.52700
_cell_angle_alpha 90.00000
_cell_angle_beta  90.00000
_cell_angle_gamma 90.00000
_space_group_name_H-M_alt      'P 1'


loop_
_space_group_symop_operation_xyz
  'x, y, z' 

loop_
_atom_site_label
_atom_site_fract_x
_atom_site_fract_y
_atom_site_fract_z
_atom_site_type_symbol
N       0.0094  0.13267   0.8411     N
N       0.0094  0.36733   0.3411     N
N       0.0094  0.63267   0.1589     N
N       0.0094  0.86733   0.6589     N
C       0.0147   0.0883   0.8113     C
C       0.0147   0.4117   0.3113     C
C       0.0147   0.5883   0.1887     C
C       0.0147   0.9117   0.6887     C
N      0.02466  0.06398   0.2979     N
N      0.02466  0.43602   0.7979     N
N      0.02466  0.56398   0.7021     N
N      0.02466  0.93602   0.2021     N
Cu     0.03116      0.0     0.25    Cu
Cu     0.03116      0.5     0.75    Cu
N      0.03905  0.13889   0.3484     N
N      0.03905  0.36111   0.8484     N
N      0.03905  0.63889   0.6516     N
N      0.03905  0.86111   0.1516     N
H       0.0446   0.0742   0.7998     H
H       0.0446   0.4258   0.2998     H
H       0.0446   0.5742   0.2002     H
H       0.0446   0.9258   0.7002     H
Cu      0.0528  0.18155  0.86733    Cu
Cu      0.0528  0.31845  0.36733    Cu
Cu      0.0528  0.68155  0.13267    Cu
Cu      0.0528  0.81845  0.63267    Cu
C       0.0575   0.0981   0.3215     C
C       0.0575   0.4019   0.8215     C
C       0.0575   0.5981   0.6785     C
C       0.0575   0.9019   0.1785     C
Cu     0.06845   0.1972  0.38267    Cu
Cu     0.06845   0.3028  0.88267    Cu
Cu     0.06845   0.6972  0.61733    Cu
Cu     0.06845   0.8028  0.11733    Cu
H       0.0901   0.0925   0.3185     H
H       0.0901   0.4075   0.8185     H
H       0.0901   0.5925   0.6815     H
H       0.0901   0.9075   0.1815     H
N      0.11111  0.21095   0.9016     N
N      0.11111  0.28905   0.4016     N
N      0.11111  0.71095   0.0984     N
N      0.11111  0.78905   0.5984     N
N      0.11733   0.2406   0.4089     N
N      0.11733   0.2594   0.9089     N
N      0.11733   0.7406   0.5911     N
N      0.11733   0.7594   0.0911     N
C       0.1519   0.1925   0.9285     C
C       0.1519   0.3075   0.4285     C
C       0.1519   0.6925   0.0715     C
C       0.1519   0.8075   0.5715     C
H       0.1575   0.1599   0.9315     H
H       0.1575   0.3401   0.4315     H
H       0.1575   0.6599   0.0685     H
H       0.1575   0.8401   0.5685     H
C       0.1617   0.2353   0.4387     C
C       0.1617   0.2647   0.9387     C
C       0.1617   0.7353   0.5613     C
C       0.1617   0.7647   0.0613     C
H       0.1758   0.2054   0.4502     H
H       0.1758   0.2946   0.9502     H
H       0.1758   0.7054   0.5498     H
H       0.1758   0.7946   0.0498     H
N      0.18602  0.22534   0.9521     N
N      0.18602  0.27466   0.4521     N
N      0.18602  0.72534   0.0479     N
N      0.18602  0.77466   0.5479     N
Cu        0.25  0.21884      0.0    Cu
Cu        0.25  0.28116      0.5    Cu
Cu        0.25  0.71884      0.0    Cu
Cu        0.25  0.78116      0.5    Cu
N      0.31398  0.22534   0.0479     N
N      0.31398  0.27466   0.5479     N
N      0.31398  0.72534   0.9521     N
N      0.31398  0.77466   0.4521     N
H       0.3242   0.2054   0.5498     H
H       0.3242   0.2946   0.0498     H
H       0.3242   0.7054   0.4502     H
H       0.3242   0.7946   0.9502     H
C       0.3383   0.2353   0.5613     C
C       0.3383   0.2647   0.0613     C
C       0.3383   0.7353   0.4387     C
C       0.3383   0.7647   0.9387     C
H       0.3425   0.1599   0.0685     H
H       0.3425   0.3401   0.5685     H
H       0.3425   0.6599   0.9315     H
H       0.3425   0.8401   0.4315     H
C       0.3481   0.1925   0.0715     C
C       0.3481   0.3075   0.5715     C
C       0.3481   0.6925   0.9285     C
C       0.3481   0.8075   0.4285     C
N      0.38267   0.2406   0.5911     N
N      0.38267   0.2594   0.0911     N
N      0.38267   0.7406   0.4089     N
N      0.38267   0.7594   0.9089     N
N      0.38889  0.21095   0.0984     N
N      0.38889  0.28905   0.5984     N
N      0.38889  0.71095   0.9016     N
N      0.38889  0.78905   0.4016     N
H       0.4099   0.0925   0.6815     H
H       0.4099   0.4075   0.1815     H
H       0.4099   0.5925   0.3185     H
H       0.4099   0.9075   0.8185     H
Cu     0.43155   0.1972  0.61733    Cu
Cu     0.43155   0.3028  0.11733    Cu
Cu     0.43155   0.6972  0.38267    Cu
Cu     0.43155   0.8028  0.88267    Cu
C       0.4425   0.0981   0.6785     C
C       0.4425   0.4019   0.1785     C
C       0.4425   0.5981   0.3215     C
C       0.4425   0.9019   0.8215     C
Cu      0.4472  0.18155  0.13267    Cu
Cu      0.4472  0.31845  0.63267    Cu
Cu      0.4472  0.68155  0.86733    Cu
Cu      0.4472  0.81845  0.36733    Cu
H       0.4554   0.0742   0.2002     H
H       0.4554   0.4258   0.7002     H
H       0.4554   0.5742   0.7998     H
H       0.4554   0.9258   0.2998     H
N      0.46095  0.13889   0.6516     N
N      0.46095  0.36111   0.1516     N
N      0.46095  0.63889   0.3484     N
N      0.46095  0.86111   0.8484     N
Cu     0.46884      0.0     0.75    Cu
Cu     0.46884      0.5     0.25    Cu
N      0.47534  0.06398   0.7021     N
N      0.47534  0.43602   0.2021     N
N      0.47534  0.56398   0.2979     N
N      0.47534  0.93602   0.7979     N
C       0.4853   0.0883   0.1887     C
C       0.4853   0.4117   0.6887     C
C       0.4853   0.5883   0.8113     C
C       0.4853   0.9117   0.3113     C
N       0.4906  0.13267   0.1589     N
N       0.4906  0.36733   0.6589     N
N       0.4906  0.63267   0.8411     N
N       0.4906  0.86733   0.3411     N
N       0.5094  0.13267   0.6589     N
N       0.5094  0.36733   0.1589     N
N       0.5094  0.63267   0.3411     N
N       0.5094  0.86733   0.8411     N
C       0.5147   0.0883   0.6887     C
C       0.5147   0.4117   0.1887     C
C       0.5147   0.5883   0.3113     C
C       0.5147   0.9117   0.8113     C
N      0.52466  0.06398   0.2021     N
N      0.52466  0.43602   0.7021     N
N      0.52466  0.56398   0.7979     N
N      0.52466  0.93602   0.2979     N
Cu     0.53116      0.0     0.25    Cu
Cu     0.53116      0.5     0.75    Cu
N      0.53905  0.13889   0.1516     N
N      0.53905  0.36111   0.6516     N
N      0.53905  0.63889   0.8484     N
N      0.53905  0.86111   0.3484     N
H       0.5446   0.0742   0.7002     H
H       0.5446   0.4258   0.2002     H
H       0.5446   0.5742   0.2998     H
H       0.5446   0.9258   0.7998     H
Cu      0.5528  0.18155  0.63267    Cu
Cu      0.5528  0.31845  0.13267    Cu
Cu      0.5528  0.68155  0.36733    Cu
Cu      0.5528  0.81845  0.86733    Cu
C       0.5575   0.0981   0.1785     C
C       0.5575   0.4019   0.6785     C
C       0.5575   0.5981   0.8215     C
C       0.5575   0.9019   0.3215     C
Cu     0.56845   0.1972  0.11733    Cu
Cu     0.56845   0.3028  0.61733    Cu
Cu     0.56845   0.6972  0.88267    Cu
Cu     0.56845   0.8028  0.38267    Cu
H       0.5901   0.0925   0.1815     H
H       0.5901   0.4075   0.6815     H
H       0.5901   0.5925   0.8185     H
H       0.5901   0.9075   0.3185     H
N      0.61111  0.21095   0.5984     N
N      0.61111  0.28905   0.0984     N
N      0.61111  0.71095   0.4016     N
N      0.61111  0.78905   0.9016     N
N      0.61733   0.2406   0.0911     N
N      0.61733   0.2594   0.5911     N
N      0.61733   0.7406   0.9089     N
N      0.61733   0.7594   0.4089     N
C       0.6519   0.1925   0.5715     C
C       0.6519   0.3075   0.0715     C
C       0.6519   0.6925   0.4285     C
C       0.6519   0.8075   0.9285     C
H       0.6575   0.1599   0.5685     H
H       0.6575   0.3401   0.0685     H
H       0.6575   0.6599   0.4315     H
H       0.6575   0.8401   0.9315     H
C       0.6617   0.2353   0.0613     C
C       0.6617   0.2647   0.5613     C
C       0.6617   0.7353   0.9387     C
C       0.6617   0.7647   0.4387     C
H       0.6758   0.2054   0.0498     H
H       0.6758   0.2946   0.5498     H
H       0.6758   0.7054   0.9502     H
H       0.6758   0.7946   0.4502     H
N      0.68602  0.22534   0.5479     N
N      0.68602  0.27466   0.0479     N
N      0.68602  0.72534   0.4521     N
N      0.68602  0.77466   0.9521     N
Cu        0.75  0.21884      0.5    Cu
Cu        0.75  0.28116      0.0    Cu
Cu        0.75  0.71884      0.5    Cu
Cu        0.75  0.78116      0.0    Cu
N      0.81398  0.22534   0.4521     N
N      0.81398  0.27466   0.9521     N
N      0.81398  0.72534   0.5479     N
N      0.81398  0.77466   0.0479     N
H       0.8242   0.2054   0.9502     H
H       0.8242   0.2946   0.4502     H
H       0.8242   0.7054   0.0498     H
H       0.8242   0.7946   0.5498     H
C       0.8383   0.2353   0.9387     C
C       0.8383   0.2647   0.4387     C
C       0.8383   0.7353   0.0613     C
C       0.8383   0.7647   0.5613     C
H       0.8425   0.1599   0.4315     H
H       0.8425   0.3401   0.9315     H
H       0.8425   0.6599   0.5685     H
H       0.8425   0.8401   0.0685     H
C       0.8481   0.1925   0.4285     C
C       0.8481   0.3075   0.9285     C
C       0.8481   0.6925   0.5715     C
C       0.8481   0.8075   0.0715     C
N      0.88267   0.2406   0.9089     N
N      0.88267   0.2594   0.4089     N
N      0.88267   0.7406   0.0911     N
N      0.88267   0.7594   0.5911     N
N      0.88889  0.21095   0.4016     N
N      0.88889  0.28905   0.9016     N
N      0.88889  0.71095   0.5984     N
N      0.88889  0.78905   0.0984     N
H       0.9099   0.0925   0.8185     H
H       0.9099   0.4075   0.3185     H
H       0.9099   0.5925   0.1815     H
H       0.9099   0.9075   0.6815     H
Cu     0.93155   0.1972  0.88267    Cu
Cu     0.93155   0.3028  0.38267    Cu
Cu     0.93155   0.6972  0.11733    Cu
Cu     0.93155   0.8028  0.61733    Cu
C       0.9425   0.0981   0.8215     C
C       0.9425   0.4019   0.3215     C
C       0.9425   0.5981   0.1785     C
C       0.9425   0.9019   0.6785     C
Cu      0.9472  0.18155  0.36733    Cu
Cu      0.9472  0.31845  0.86733    Cu
Cu      0.9472  0.68155  0.63267    Cu
Cu      0.9472  0.81845  0.13267    Cu
H       0.9554   0.0742   0.2998     H
H       0.9554   0.4258   0.7998     H
H       0.9554   0.5742   0.7002     H
H       0.9554   0.9258   0.2002     H
N      0.96095  0.13889   0.8484     N
N      0.96095  0.36111   0.3484     N
N      0.96095  0.63889   0.1516     N
N      0.96095  0.86111   0.6516     N
Cu     0.96884      0.0     0.75    Cu
Cu     0.96884      0.5     0.25    Cu
N      0.97534  0.06398   0.7979     N
N      0.97534  0.43602   0.2979     N
N      0.97534  0.56398   0.2021     N
N      0.97534  0.93602   0.7021     N
C       0.9853   0.0883   0.3113     C
C       0.9853   0.4117   0.8113     C
C       0.9853   0.5883   0.6887     C
C       0.9853   0.9117   0.1887     C
N       0.9906  0.13267   0.3411     N
N       0.9906  0.36733   0.8411     N
N       0.9906  0.63267   0.6589     N
N       0.9906  0.86733   0.1589     N
