data_I
_chemical_name_common  '/home/zhangsd/repos/MofS-CGCNN/ML/data/SSD/clean_cifs/LETDUK_clean'
_cell_length_a  7.40220
_cell_length_b 11.08530
_cell_length_c 19.29320
_cell_angle_alpha 90.00000
_cell_angle_beta  90.00000
_cell_angle_gamma 90.00000
_space_group_name_H-M_alt      'P 1'


loop_
_space_group_symop_operation_xyz
  'x, y, z' 

loop_
_atom_site_label
_atom_site_fract_x
_atom_site_fract_y
_atom_site_fract_z
_atom_site_type_symbol
Cu         0.0      0.0  0.91473    Cu
Cu         0.0      0.5  0.41473    Cu
H         0.01   0.6462   0.5562     H
H         0.01   0.8538   0.0562     H
H       0.0163   0.6368   0.2721     H
H       0.0163   0.8632   0.7721     H
C        0.104   0.1248   0.7843     C
C        0.104   0.3752   0.2843     C
C       0.1094   0.1308    0.044     C
C       0.1094   0.3692    0.544     C
N        0.155   0.0689   0.9877     N
N        0.155   0.4311   0.4877     N
N       0.1598    0.067   0.8401     N
N       0.1598    0.433   0.3401     N
N         0.25   0.1646    0.747     N
N         0.25   0.1693   0.0817     N
Cu        0.25   0.2445  0.66273    Cu
Cu        0.25   0.2555  0.16273    Cu
N         0.25   0.3307   0.5817     N
N         0.25   0.3354    0.247     N
N       0.3402    0.067   0.8401     N
N       0.3402    0.433   0.3401     N
N        0.345   0.0689   0.9877     N
N        0.345   0.4311   0.4877     N
C       0.3906   0.1308    0.044     C
C       0.3906   0.3692    0.544     C
C        0.396   0.1248   0.7843     C
C        0.396   0.3752   0.2843     C
H       0.4837   0.6368   0.2721     H
H       0.4837   0.8632   0.7721     H
H         0.49   0.6462   0.5562     H
H         0.49   0.8538   0.0562     H
Cu         0.5      0.0  0.91473    Cu
Cu         0.5      0.5  0.41473    Cu
H         0.51   0.1462   0.0562     H
H         0.51   0.3538   0.5562     H
H       0.5163   0.1368   0.7721     H
H       0.5163   0.3632   0.2721     H
C        0.604   0.6248   0.2843     C
C        0.604   0.8752   0.7843     C
C       0.6094   0.6308    0.544     C
C       0.6094   0.8692    0.044     C
N        0.655   0.5689   0.4877     N
N        0.655   0.9311   0.9877     N
N       0.6598    0.567   0.3401     N
N       0.6598    0.933   0.8401     N
N         0.75   0.6646    0.247     N
N         0.75   0.6693   0.5817     N
Cu        0.75   0.7445  0.16273    Cu
Cu        0.75   0.7555  0.66273    Cu
N         0.75   0.8307   0.0817     N
N         0.75   0.8354    0.747     N
N       0.8402    0.567   0.3401     N
N       0.8402    0.933   0.8401     N
N        0.845   0.5689   0.4877     N
N        0.845   0.9311   0.9877     N
C       0.8906   0.6308    0.544     C
C       0.8906   0.8692    0.044     C
C        0.896   0.6248   0.2843     C
C        0.896   0.8752   0.7843     C
H       0.9837   0.1368   0.7721     H
H       0.9837   0.3632   0.2721     H
H         0.99   0.1462   0.0562     H
H         0.99   0.3538   0.5562     H
