data_I
_chemical_name_common  '/home/zhangsd/repos/MofS-CGCNN/ML/data/SSD/clean_cifs/LEYREO_clean'
_cell_length_a 30.64400
_cell_length_b 15.66470
_cell_length_c 22.02300
_cell_angle_alpha 90.00000
_cell_angle_beta  133.13500
_cell_angle_gamma 90.00000
_space_group_name_H-M_alt      'P 1'


loop_
_space_group_symop_operation_xyz
  'x, y, z' 

loop_
_atom_site_label
_atom_site_fract_x
_atom_site_fract_y
_atom_site_fract_z
_atom_site_type_symbol
H       0.0114   0.1365   0.9604     H
H       0.0114   0.8635   0.4604     H
O       0.0203   0.2839   0.6136     O
O       0.0203   0.7161   0.1136     O
C       0.0345   0.2912     0.93     C
C       0.0345   0.7088     0.43     C
C       0.0531   0.1455   0.9951     C
C       0.0531   0.8545   0.4951     C
O       0.0595   0.3564   0.9306     O
O       0.0595   0.6436   0.4306     O
C       0.0742   0.2198   0.9876     C
C       0.0742   0.7802   0.4876     C
H       0.0795    0.034   0.0582     H
H       0.0795    0.966   0.5582     H
C       0.0932   0.0855   0.0531     C
C       0.0932   0.9145   0.5531     C
Pr     0.11052  0.36318  0.67293    Pr
Pr     0.11052  0.63682  0.17293    Pr
O       0.1225   0.3835   0.7952     O
O       0.1225   0.6165   0.2952     O
N       0.1333   0.2339    0.036     N
N       0.1333   0.7661    0.536     N
O       0.1341   0.4729   0.6176     O
O       0.1341   0.5271   0.1176     O
C        0.149   0.4457   0.8456     C
C        0.149   0.5543   0.3456     C
C       0.1539   0.1008   0.1041     C
C       0.1539   0.8992   0.6041     C
O       0.1571   0.4535   0.9086     O
O       0.1571   0.5465   0.4086     O
N       0.1618   0.4986   0.2578     N
N       0.1618   0.5014   0.7578     N
C       0.1627   0.4588   0.1544     C
C       0.1627   0.5412   0.6544     C
Pr     0.16873  0.37141  0.01395    Pr
Pr     0.16873  0.62859  0.51395    Pr
C       0.1723    0.176   0.0932     C
C       0.1723    0.824   0.5932     C
O       0.1741   0.4033   0.1263     O
O       0.1741   0.5967   0.6263     O
C       0.1747   0.4875   0.3286     C
C       0.1747   0.5125   0.8286     C
H       0.1825   0.0609   0.1459     H
H       0.1825   0.9391   0.6459     H
C       0.1849   0.4451    0.239     C
C       0.1849   0.5549    0.739     C
C       0.2124   0.4234   0.3832     C
C       0.2124   0.5766   0.8832     C
H       0.2199   0.4153   0.4325     H
H       0.2199   0.5847   0.9325     H
O       0.2236   0.3483   0.7946     O
O       0.2236   0.6517   0.2946     O
C        0.226   0.3826   0.2932     C
C        0.226   0.6174   0.7932     C
H       0.2341   0.1721    0.595     H
H       0.2341   0.8279    0.095     H
C       0.2368   0.1994    0.146     C
C       0.2368   0.8006    0.646     C
C        0.239   0.3712   0.3667     C
C        0.239   0.6288   0.8667     C
H       0.2446   0.3486   0.2806     H
H       0.2446   0.6514   0.7806     H
O        0.247   0.2679   0.1277     O
O        0.247   0.7321   0.6277     O
O        0.253   0.2321   0.8723     O
O        0.253   0.7679   0.3723     O
H       0.2554   0.1514   0.7194     H
H       0.2554   0.8486   0.2194     H
C        0.261   0.1288   0.6333     C
C        0.261   0.8712   0.1333     C
C       0.2632   0.3006    0.854     C
C       0.2632   0.6994    0.354     C
H       0.2659   0.3279    0.405     H
H       0.2659   0.6721    0.905     H
C        0.274   0.1174   0.7068     C
C        0.274   0.8826   0.2068     C
O       0.2764   0.1517   0.2054     O
O       0.2764   0.8483   0.7054     O
H       0.2801   0.0847   0.5675     H
H       0.2801   0.9153   0.0675     H
C       0.2876   0.0766   0.6168     C
C       0.2876   0.9234   0.1168     C
C       0.3151   0.0549    0.761     C
C       0.3151   0.9451    0.261     C
H       0.3175   0.4391   0.8541     H
H       0.3175   0.5609   0.3541     H
C       0.3253   0.0125   0.6714     C
C       0.3253   0.9875   0.1714     C
O       0.3259   0.0967   0.8737     O
O       0.3259   0.9033   0.3737     O
C       0.3277    0.324   0.9068     C
C       0.3277    0.676   0.4068     C
Pr     0.33127  0.12859  0.98605    Pr
Pr     0.33127  0.87141  0.48605    Pr
C       0.3373   0.0412   0.8456     C
C       0.3373   0.9588   0.3456     C
N       0.3382   0.0014   0.7422     N
N       0.3382   0.9986   0.2422     N
O       0.3429   0.0465   0.0914     O
O       0.3429   0.9535   0.5914     O
C       0.3461   0.3992   0.8959     C
C       0.3461   0.6008   0.3959     C
C        0.351   0.0543   0.1544     C
C        0.351   0.9457   0.6544     C
O       0.3659   0.0271   0.3824     O
O       0.3659   0.9729   0.8824     O
N       0.3667   0.2661    0.964     N
N       0.3667   0.7339    0.464     N
O       0.3775   0.1165   0.2048     O
O       0.3775   0.8835   0.7048     O
Pr     0.38948  0.13682  0.32707    Pr
Pr     0.38948  0.86318  0.82707    Pr
C       0.4068   0.4145   0.9469     C
C       0.4068   0.5855   0.4469     C
H       0.4205    0.466   0.9418     H
H       0.4205    0.534   0.4418     H
C       0.4258   0.2802   0.0124     C
C       0.4258   0.7198   0.5124     C
O       0.4405   0.1436   0.0694     O
O       0.4405   0.8564   0.5694     O
C       0.4469   0.3545   0.0049     C
C       0.4469   0.6455   0.5049     C
C       0.4655   0.2088     0.07     C
C       0.4655   0.7912     0.57     C
O       0.4797   0.2161   0.3864     O
O       0.4797   0.7839   0.8864     O
H       0.4886   0.3635   0.0396     H
H       0.4886   0.6365   0.5396     H
H       0.5114   0.3635   0.4604     H
H       0.5114   0.6365   0.9604     H
O       0.5203   0.2161   0.1136     O
O       0.5203   0.7839   0.6136     O
C       0.5345   0.2088     0.43     C
C       0.5345   0.7912     0.93     C
C       0.5531   0.3545   0.4951     C
C       0.5531   0.6455   0.9951     C
O       0.5595   0.1436   0.4306     O
O       0.5595   0.8564   0.9306     O
C       0.5742   0.2802   0.4876     C
C       0.5742   0.7198   0.9876     C
H       0.5795    0.466   0.5582     H
H       0.5795    0.534   0.0582     H
C       0.5932   0.4145   0.5531     C
C       0.5932   0.5855   0.0531     C
Pr     0.61052  0.13682  0.17293    Pr
Pr     0.61052  0.86318  0.67293    Pr
O       0.6225   0.1165   0.2952     O
O       0.6225   0.8835   0.7952     O
N       0.6333   0.2661    0.536     N
N       0.6333   0.7339    0.036     N
O       0.6341   0.0271   0.1176     O
O       0.6341   0.9729   0.6176     O
C        0.649   0.0543   0.3456     C
C        0.649   0.9457   0.8456     C
C       0.6539   0.3992   0.6041     C
C       0.6539   0.6008   0.1041     C
O       0.6571   0.0465   0.4086     O
O       0.6571   0.9535   0.9086     O
N       0.6618   0.0014   0.7578     N
N       0.6618   0.9986   0.2578     N
C       0.6627   0.0412   0.6544     C
C       0.6627   0.9588   0.1544     C
Pr     0.66873  0.12859  0.51395    Pr
Pr     0.66873  0.87141  0.01395    Pr
C       0.6723    0.324   0.5932     C
C       0.6723    0.676   0.0932     C
O       0.6741   0.0967   0.6263     O
O       0.6741   0.9033   0.1263     O
C       0.6747   0.0125   0.8286     C
C       0.6747   0.9875   0.3286     C
H       0.6825   0.4391   0.6459     H
H       0.6825   0.5609   0.1459     H
C       0.6849   0.0549    0.739     C
C       0.6849   0.9451    0.239     C
C       0.7124   0.0766   0.8832     C
C       0.7124   0.9234   0.3832     C
H       0.7199   0.0847   0.9325     H
H       0.7199   0.9153   0.4325     H
O       0.7236   0.1517   0.2946     O
O       0.7236   0.8483   0.7946     O
C        0.726   0.1174   0.7932     C
C        0.726   0.8826   0.2932     C
H       0.7341   0.3279    0.095     H
H       0.7341   0.6721    0.595     H
C       0.7368   0.3006    0.646     C
C       0.7368   0.6994    0.146     C
C        0.739   0.1288   0.8667     C
C        0.739   0.8712   0.3667     C
H       0.7446   0.1514   0.7806     H
H       0.7446   0.8486   0.2806     H
O        0.747   0.2321   0.6277     O
O        0.747   0.7679   0.1277     O
O        0.753   0.2679   0.3723     O
O        0.753   0.7321   0.8723     O
H       0.7554   0.3486   0.2194     H
H       0.7554   0.6514   0.7194     H
C        0.761   0.3712   0.1333     C
C        0.761   0.6288   0.6333     C
C       0.7632   0.1994    0.354     C
C       0.7632   0.8006    0.854     C
H       0.7659   0.1721    0.905     H
H       0.7659   0.8279    0.405     H
C        0.774   0.3826   0.2068     C
C        0.774   0.6174   0.7068     C
O       0.7764   0.3483   0.7054     O
O       0.7764   0.6517   0.2054     O
H       0.7801   0.4153   0.0675     H
H       0.7801   0.5847   0.5675     H
C       0.7876   0.4234   0.1168     C
C       0.7876   0.5766   0.6168     C
C       0.8151   0.4451    0.261     C
C       0.8151   0.5549    0.761     C
H       0.8175   0.0609   0.3541     H
H       0.8175   0.9391   0.8541     H
C       0.8253   0.4875   0.1714     C
C       0.8253   0.5125   0.6714     C
O       0.8259   0.4033   0.3737     O
O       0.8259   0.5967   0.8737     O
C       0.8277    0.176   0.4068     C
C       0.8277    0.824   0.9068     C
Pr     0.83127  0.37141  0.48605    Pr
Pr     0.83127  0.62859  0.98605    Pr
C       0.8373   0.4588   0.3456     C
C       0.8373   0.5412   0.8456     C
N       0.8382   0.4986   0.2422     N
N       0.8382   0.5014   0.7422     N
O       0.8429   0.4535   0.5914     O
O       0.8429   0.5465   0.0914     O
C       0.8461   0.1008   0.3959     C
C       0.8461   0.8992   0.8959     C
C        0.851   0.4457   0.6544     C
C        0.851   0.5543   0.1544     C
O       0.8659   0.4729   0.8824     O
O       0.8659   0.5271   0.3824     O
N       0.8667   0.2339    0.464     N
N       0.8667   0.7661    0.964     N
O       0.8775   0.3835   0.7048     O
O       0.8775   0.6165   0.2048     O
Pr     0.88948  0.36318  0.82707    Pr
Pr     0.88948  0.63682  0.32707    Pr
C       0.9068   0.0855   0.4469     C
C       0.9068   0.9145   0.9469     C
H       0.9205    0.034   0.4418     H
H       0.9205    0.966   0.9418     H
C       0.9258   0.2198   0.5124     C
C       0.9258   0.7802   0.0124     C
O       0.9405   0.3564   0.5694     O
O       0.9405   0.6436   0.0694     O
C       0.9469   0.1455   0.5049     C
C       0.9469   0.8545   0.0049     C
C       0.9655   0.2912     0.57     C
C       0.9655   0.7088     0.07     C
O       0.9797   0.2839   0.8864     O
O       0.9797   0.7161   0.3864     O
H       0.9886   0.1365   0.5396     H
H       0.9886   0.8635   0.0396     H
