data_I
_chemical_name_common  '/home/zhangsd/repos/MofS-CGCNN/ML/data/SSD/clean_cifs/LICKAL_clean'
_cell_length_a  9.65500
_cell_length_b  9.34400
_cell_length_c 30.96500
_cell_angle_alpha 90.00000
_cell_angle_beta  93.85900
_cell_angle_gamma 90.00000
_space_group_name_H-M_alt      'P 1'


loop_
_space_group_symop_operation_xyz
  'x, y, z' 

loop_
_atom_site_label
_atom_site_fract_x
_atom_site_fract_y
_atom_site_fract_z
_atom_site_type_symbol
C       0.0035   0.5184  0.06961     C
C       0.0035   0.9816  0.56961     C
H       0.0132   0.6136   0.0616     H
H       0.0132   0.8864   0.5616     H
C       0.0273   0.7399   0.4078     C
C       0.0273   0.7601   0.9078     C
N       0.0367   0.6118  0.79854     N
N       0.0367   0.8882  0.29854     N
H        0.039   0.6442   0.4007     H
H        0.039   0.8558   0.9007     H
C       0.0675   0.6565  0.20385     C
C       0.0675   0.8435  0.70385     C
H       0.0695   0.6973   0.7996     H
H       0.0695   0.8027   0.2996     H
C       0.0704   0.1339   0.3088     C
C       0.0704   0.3661   0.8088     C
C       0.0962   0.1905  0.60302     C
C       0.0962   0.3095  0.10302     C
C       0.0969   0.0921  0.71381     C
C       0.0969   0.4079  0.21381     C
H       0.1027   0.7492   0.2044     H
H       0.1027   0.7508   0.7044     H
O       0.1043   0.6149  0.30894     O
O       0.1043   0.8851  0.80894     O
C       0.1149   0.0484  0.59123     C
C       0.1149   0.4516  0.09123     C
N       0.1194   0.5473  0.94054     N
N       0.1194   0.9527  0.44054     N
C       0.1207   0.5026   0.8093     C
C       0.1207   0.9974   0.3093     C
H       0.1281   0.2104   0.3169     H
H       0.1281   0.2896   0.8169     H
C       0.1331   0.6843   0.9295     C
C       0.1331   0.8157   0.4295     C
H       0.1522    0.171   0.7213     H
H       0.1522    0.329   0.2213     H
C       0.1545   0.5428  0.21569     C
C       0.1545   0.9572  0.71569     C
H       0.1677   0.2391   0.6184     H
H       0.1677   0.2609   0.1184     H
H        0.214   0.5195   0.8171     H
H        0.214   0.9805   0.3171     H
H       0.2168   0.6276   0.1148     H
H       0.2168   0.8724   0.6148     H
H        0.217   0.7303   0.9366     H
H        0.217   0.7697   0.4366     H
C        0.245   0.5319  0.10713     C
C        0.245   0.9681  0.60713     C
P      0.25474   0.5725   0.3171     P
P      0.25474   0.9275   0.8171     P
O       0.2718   0.0899  0.81846     O
O       0.2718   0.4101  0.31846     O
H       0.2808   0.0141   0.6337     H
H       0.2808   0.4859   0.1337     H
Zn     0.29856  0.04825  0.46183    Zn
Zn     0.29856  0.45175  0.96183    Zn
O       0.3021   0.1527  0.51562     O
O       0.3021   0.3473  0.01562     O
C       0.3064   0.5618  0.22764     C
C       0.3064   0.9382  0.72764     C
O       0.3096   0.7122  0.77046     O
O       0.3096   0.7878  0.27046     O
O       0.3243   0.6436  0.35751     O
O       0.3243   0.8564  0.85751     O
O       0.3258    0.654   0.0455     O
O       0.3258    0.846   0.5455     O
H       0.3463   0.6142   0.2045     H
H       0.3463   0.8858   0.7045     H
C       0.3482   0.6395  0.27075     C
C       0.3482   0.8605  0.77075     C
H       0.3491   0.0322   0.7288     H
H       0.3491   0.4678   0.2288     H
H       0.3515   0.6696   0.7522     H
H       0.3515   0.8304   0.2522     H
H       0.3618   0.6361   0.0229     H
H       0.3618   0.8639   0.5229     H
C       0.3676   0.5474   0.0777     C
C       0.3676   0.9526   0.5777     C
O       0.3742   0.1688  0.41776     O
O       0.3742   0.3312  0.91776     O
O       0.4015   0.1691  0.26313     O
O       0.4015   0.3309  0.76313     O
O       0.4084   0.2157  0.18378     O
O       0.4084   0.2843  0.68378     O
P       0.4133  0.12327  0.55168     P
O       0.4133   0.2377   0.5865     O
O       0.4133   0.2623   0.0865     O
P       0.4133  0.37673  0.05168     P
O       0.4281   0.5122  0.86051     O
O       0.4281   0.9878  0.36051     O
O       0.4317   0.5384  0.71295     O
O       0.4317   0.9616  0.21295     O
Zn     0.44079  0.18859  0.80764    Zn
Zn     0.44079  0.31141  0.30764    Zn
O       0.4435   0.6043  0.96596     O
O       0.4435   0.8957  0.46596     O
P      0.46114  0.12142  0.22151     P
P      0.46114  0.37858  0.72151     P
O       0.4672   0.7357  0.13919     O
O       0.4672   0.7643  0.63919     O
Zn     0.46953   0.7149  0.85904    Zn
Zn     0.46953   0.7851  0.35905    Zn
P      0.48104  0.11306  0.38801     P
P      0.48104  0.38694  0.88801     P
P      0.51896  0.61306  0.11199     P
P      0.51896  0.88694  0.61199     P
Zn     0.53047   0.2149  0.64096    Zn
Zn     0.53047   0.2851  0.14095    Zn
O       0.5328   0.2357  0.36081     O
O       0.5328   0.2643  0.86081     O
P      0.53886  0.62142  0.27849     P
P      0.53886  0.87858  0.77849     P
O       0.5565   0.1043  0.53404     O
O       0.5565   0.3957  0.03404     O
Zn     0.55921  0.68859  0.69236    Zn
Zn     0.55921  0.81141  0.19236    Zn
O       0.5683   0.0384  0.78705     O
O       0.5683   0.4616  0.28705     O
O       0.5719   0.0122  0.63949     O
O       0.5719   0.4878  0.13949     O
P       0.5867  0.62327  0.94832     P
O       0.5867   0.7377   0.9135     O
O       0.5867   0.7623   0.4135     O
P       0.5867  0.87673  0.44832     P
O       0.5916   0.7157  0.31622     O
O       0.5916   0.7843  0.81622     O
O       0.5985   0.6691  0.23687     O
O       0.5985   0.8309  0.73687     O
O       0.6258   0.6688  0.08224     O
O       0.6258   0.8312  0.58224     O
C       0.6324   0.0474   0.4223     C
C       0.6324   0.4526   0.9223     C
H       0.6382   0.1361   0.4771     H
H       0.6382   0.3639   0.9771     H
H       0.6485   0.1696   0.7478     H
H       0.6485   0.3304   0.2478     H
H       0.6509   0.5322   0.7712     H
H       0.6509   0.9678   0.2712     H
C       0.6518   0.1395  0.22925     C
C       0.6518   0.3605  0.72925     C
H       0.6537   0.1142   0.2955     H
H       0.6537   0.3858   0.7955     H
O       0.6742    0.154   0.4545     O
O       0.6742    0.346   0.9545     O
O       0.6757   0.1436  0.14249     O
O       0.6757   0.3564  0.64249     O
O       0.6904   0.2122  0.72954     O
O       0.6904   0.2878  0.22954     O
C       0.6936   0.0618  0.27236     C
C       0.6936   0.4382  0.77236     C
O       0.6979   0.6527  0.98438     O
O       0.6979   0.8473  0.48438     O
Zn     0.70144  0.54825  0.03817    Zn
Zn     0.70144  0.95175  0.53817    Zn
H       0.7192   0.5141   0.8663     H
H       0.7192   0.9859   0.3663     H
O       0.7282   0.5899  0.68154     O
O       0.7282   0.9101  0.18154     O
P      0.74526   0.0725   0.1829     P
P      0.74526   0.4275   0.6829     P
C        0.755   0.0319  0.39287     C
C        0.755   0.4681  0.89287     C
H        0.783   0.2303   0.5634     H
H        0.783   0.2697   0.0634     H
H       0.7832   0.1276   0.3852     H
H       0.7832   0.3724   0.8852     H
H        0.786   0.0195   0.6829     H
H        0.786   0.4805   0.1829     H
H       0.8323   0.7391   0.8816     H
H       0.8323   0.7609   0.3816     H
C       0.8455   0.0428  0.28431     C
C       0.8455   0.4572  0.78431     C
H       0.8478    0.671   0.7787     H
H       0.8478    0.829   0.2787     H
C       0.8669   0.1843   0.5705     C
C       0.8669   0.3157   0.0705     C
H       0.8719   0.7104   0.1831     H
H       0.8719   0.7896   0.6831     H
C       0.8793   0.0026   0.6907     C
C       0.8793   0.4974   0.1907     C
N       0.8806   0.0473  0.55946     N
N       0.8806   0.4527  0.05946     N
C       0.8851   0.5484  0.90877     C
C       0.8851   0.9516  0.40877     C
O       0.8957   0.1149  0.19106     O
O       0.8957   0.3851  0.69106     O
H       0.8973   0.2492   0.2956     H
H       0.8973   0.2508   0.7956     H
C       0.9031   0.5921  0.78619     C
C       0.9031   0.9079  0.28619     C
C       0.9038   0.6905  0.89698     C
C       0.9038   0.8095  0.39698     C
C       0.9296   0.6339   0.1912     C
C       0.9296   0.8661   0.6912     C
H       0.9305   0.1973   0.7004     H
H       0.9305   0.3027   0.2004     H
C       0.9325   0.1565  0.29615     C
C       0.9325   0.3435  0.79615     C
H        0.961   0.1442   0.0993     H
H        0.961   0.3558   0.5993     H
N       0.9633   0.1118  0.70146     N
N       0.9633   0.3882  0.20146     N
C       0.9727   0.2399   0.0922     C
C       0.9727   0.2601   0.5922     C
H       0.9868   0.1136   0.4384     H
H       0.9868   0.3864   0.9384     H
C       0.9965   0.0184  0.43039     C
C       0.9965   0.4816  0.93039     C
