data_I
_chemical_name_common  '/home/zhangsd/repos/MofS-CGCNN/ML/data/SSD/clean_cifs/LIFSEA_clean'
_cell_length_a 22.02800
_cell_length_b 12.60700
_cell_length_c 23.17900
_cell_angle_alpha 90.00000
_cell_angle_beta  103.76000
_cell_angle_gamma 90.00000
_space_group_name_H-M_alt      'P 1'


loop_
_space_group_symop_operation_xyz
  'x, y, z' 

loop_
_atom_site_label
_atom_site_fract_x
_atom_site_fract_y
_atom_site_fract_z
_atom_site_type_symbol
F          0.0  0.08244     0.25     F
Cd         0.0  0.09919     0.75    Cd
N          0.0    0.289     0.75     N
C          0.0   0.3706     0.25     C
C          0.0   0.4901     0.25     C
C          0.0   0.5099     0.75     C
C          0.0   0.6294     0.75     C
N          0.0    0.711     0.25     N
Cd         0.0  0.90081     0.25    Cd
F          0.0  0.91756     0.75     F
H       0.0015    0.219   0.3508     H
H       0.0015    0.781   0.8508     H
C      0.00783   0.1108  0.55454     C
C      0.00783   0.8892  0.05454     C
C      0.01749   0.1898  0.07101     C
C      0.01749   0.8102  0.57101     C
C      0.01789   0.0968  0.61473     C
C      0.01789   0.9032  0.11473     C
H       0.0215   0.2103   0.4517     H
H       0.0215   0.7897   0.9517     H
N      0.02603  0.11254  0.85514     N
N      0.02603  0.88746  0.35514     N
C      0.02975   0.1944  0.13172     C
C      0.02975   0.8056  0.63172     C
H       0.0401   0.0991   0.5358     H
H       0.0401   0.9009   0.0358     H
C      0.05048   0.1426  0.97841     C
C      0.05048   0.8574  0.47841     C
O      0.05083  0.32607  0.27125     O
O      0.05083  0.67393  0.77125     O
C      0.05113   0.3446  0.77542     C
C      0.05113   0.6554  0.27542     C
C      0.05313   0.4536  0.77673     C
C      0.05313   0.5464  0.27673     C
H       0.0574   0.0752   0.6357     H
H       0.0574   0.9248   0.1357     H
C      0.06288   0.1547  0.04345     C
C      0.06288   0.8453  0.54345     C
C      0.08195   0.1447  0.88701     C
C      0.08195   0.8553  0.38701     C
N      0.08441   0.1653  0.16716     N
N      0.08441   0.8347  0.66716     N
H       0.0873   0.3075   0.7932     H
H       0.0873   0.6925   0.2932     H
H       0.0896   0.4889   0.7953     H
H       0.0896   0.5111   0.2953     H
C      0.09608     0.16  0.94738     C
C      0.09608     0.84  0.44738     C
Cd     0.09752  0.16775   0.2706    Cd
Cd     0.09752  0.83225   0.7706    Cd
O      0.09944  0.11748  0.74409     O
O      0.09944  0.88252  0.24409     O
H       0.1131   0.1575    0.867     H
H       0.1131   0.8425    0.367     H
H       0.1149   0.3378   0.3766     H
H       0.1149   0.6622   0.8766     H
C      0.12066   0.1282   0.0802     C
C      0.12066   0.8718   0.5802     C
C      0.12876   0.1342  0.14071     C
C      0.12876   0.8658  0.64071     C
C      0.12897    0.279  0.40022     C
C      0.12897    0.721  0.90022     C
N      0.12946  0.18454  0.37386     N
N      0.12946  0.81546  0.87386     N
H       0.1359   0.1819   0.9672     H
H       0.1359   0.8181   0.4672     H
H       0.1441   0.3886   0.2248     H
H       0.1441   0.6114   0.7248     H
H       0.1473   0.3597   0.4771     H
H       0.1473   0.6403   0.9771     H
C      0.14847   0.2926  0.46079     C
C      0.14847   0.7074  0.96079     C
C      0.14994   0.0689  0.75909     C
C      0.14994   0.9311  0.25909     C
C       0.1524   0.1033  0.40887     C
C       0.1524   0.8967  0.90887     C
H       0.1534   0.1068   0.0639     H
H       0.1534   0.8932   0.5639     H
H       0.1554   0.0377   0.3914     H
H       0.1554   0.9623   0.8914     H
H        0.156   0.1983   0.5812     H
H        0.156   0.8017   0.0812     H
O      0.15759  0.02158  0.28069     O
O      0.15759  0.97842  0.78069     O
H       0.1623   0.2548   0.7078     H
H       0.1623   0.7452   0.2078     H
H       0.1675   0.1155   0.1646     H
H       0.1675   0.8845   0.6646     H
C      0.16978    0.207  0.49751     C
C      0.16978    0.793  0.99751     C
C       0.1719   0.1114  0.46968     C
C       0.1719   0.8886  0.96968     C
C      0.18374   0.3597  0.23886     C
C      0.18374   0.6403  0.73886     C
H       0.1867   0.0516   0.4921     H
H       0.1867   0.9484   0.9921     H
N      0.18853  0.26637   0.2667     N
N      0.18853  0.73363   0.7667     N
C       0.1899   0.2178  0.56396     C
C       0.1899   0.7822  0.06396     C
C      0.20129   0.2236  0.72155     C
C      0.20129   0.7764  0.22155     C
H       0.2017     0.29   0.5741     H
H       0.2017     0.71   0.0741     H
C      0.20679   0.1272  0.75005     C
C      0.20679   0.8728  0.25005     C
H        0.225    0.172    0.579     H
H        0.225    0.828    0.079     H
H       0.2288   0.4805   0.2107     H
H       0.2288   0.5195   0.7107     H
C      0.23419   0.4153  0.22991     C
C      0.23419   0.5847  0.72991     C
C      0.24533   0.2266  0.28629     C
C      0.24533   0.7734  0.78629     C
H       0.2495    0.162   0.3063     H
H       0.2495    0.838   0.8063     H
H       0.2505    0.338   0.6937     H
H       0.2505    0.662   0.1937     H
C      0.25467   0.2734  0.71371     C
C      0.25467   0.7266  0.21371     C
C      0.26581   0.0847  0.77009     C
C      0.26581   0.9153  0.27009     C
H       0.2712   0.0195   0.7893     H
H       0.2712   0.9805   0.2893     H
H        0.275    0.328    0.421     H
H        0.275    0.672    0.921     H
C      0.29321   0.3728  0.24995     C
C      0.29321   0.6272  0.74995     C
H       0.2983     0.21   0.4259     H
H       0.2983     0.79   0.9259     H
C      0.29871   0.2764  0.27845     C
C      0.29871   0.7236  0.77845     C
C       0.3101   0.2822  0.43604     C
C       0.3101   0.7178  0.93604     C
N      0.31147  0.23363   0.7333     N
N      0.31147  0.76637   0.2333     N
H       0.3133   0.4484   0.5079     H
H       0.3133   0.5516   0.0079     H
C      0.31626   0.1403  0.76114     C
C      0.31626   0.8597  0.26114     C
C       0.3281   0.3886  0.53032     C
C       0.3281   0.6114  0.03032     C
C      0.33022    0.293  0.50249     C
C      0.33022    0.707  0.00249     C
H       0.3325   0.3845   0.8354     H
H       0.3325   0.6155   0.3354     H
H       0.3377   0.2452   0.2922     H
H       0.3377   0.7548   0.7922     H
O      0.34241  0.47842  0.71931     O
O      0.34241  0.52158  0.21931     O
H        0.344   0.3017   0.4188     H
H        0.344   0.6983   0.9188     H
H       0.3446   0.4623   0.6086     H
H       0.3446   0.5377   0.1086     H
H       0.3466   0.3932   0.9361     H
H       0.3466   0.6068   0.4361     H
C       0.3476   0.3967  0.59113     C
C       0.3476   0.6033  0.09113     C
C      0.35006   0.4311  0.24091     C
C      0.35006   0.5689  0.74091     C
C      0.35153   0.2074  0.53921     C
C      0.35153   0.7926  0.03921     C
H       0.3527   0.1403   0.5229     H
H       0.3527   0.8597   0.0229     H
H       0.3559   0.1114   0.7752     H
H       0.3559   0.8886   0.2752     H
H       0.3641   0.3181   0.0328     H
H       0.3641   0.6819   0.5328     H
N      0.37054  0.31546  0.62614     N
N      0.37054  0.68454  0.12614     N
C      0.37103    0.221  0.59978     C
C      0.37103    0.779  0.09978     C
C      0.37124   0.3658  0.85929     C
C      0.37124   0.6342  0.35929     C
C      0.37934   0.3718   0.9198     C
C      0.37934   0.6282   0.4198     C
H       0.3851   0.1622   0.6234     H
H       0.3851   0.8378   0.1234     H
H       0.3869   0.3425    0.133     H
H       0.3869   0.6575    0.633     H
O      0.40056  0.38252  0.25591     O
O      0.40056  0.61748  0.75591     O
Cd     0.40248  0.33225   0.7294    Cd
Cd     0.40248  0.66775   0.2294    Cd
C      0.40392     0.34  0.05262     C
C      0.40392     0.66  0.55262     C
H       0.4104   0.0111   0.2047     H
H       0.4104   0.9889   0.7047     H
H       0.4127   0.1925   0.2068     H
H       0.4127   0.8075   0.7068     H
N      0.41559   0.3347  0.83284     N
N      0.41559   0.6653  0.33284     N
C      0.41805   0.3553  0.11299     C
C      0.41805   0.6447  0.61299     C
C      0.43712   0.3453  0.95655     C
C      0.43712   0.6547  0.45655     C
H       0.4426   0.4248   0.3643     H
H       0.4426   0.5752   0.8643     H
C      0.44687   0.0464  0.22327     C
C      0.44687   0.9536  0.72327     C
C      0.44887   0.1554  0.22458     C
C      0.44887   0.8446  0.72458     C
O      0.44917  0.17393  0.72875     O
O      0.44917  0.82607  0.22875     O
C      0.44952   0.3574  0.02159     C
C      0.44952   0.6426  0.52159     C
H       0.4599   0.4009   0.4642     H
H       0.4599   0.5991   0.9642     H
C      0.47025   0.3056  0.86828     C
C      0.47025   0.6944  0.36828     C
N      0.47397  0.38746  0.14486     N
N      0.47397  0.61254  0.64486     N
H       0.4785   0.2897   0.5483     H
H       0.4785   0.7103   0.0483     H
C      0.48211   0.4032  0.38527     C
C      0.48211   0.5968  0.88527     C
C      0.48251   0.3102  0.92899     C
C      0.48251   0.6898  0.42899     C
C      0.49217   0.3892  0.44546     C
C      0.49217   0.6108  0.94546     C
H       0.4985    0.281   0.6492     H
H       0.4985    0.719   0.1492     H
C          0.5   0.0099     0.75     C
C          0.5   0.1294     0.75     C
N          0.5    0.211     0.25     N
Cd         0.5  0.40081     0.25    Cd
F          0.5  0.41756     0.75     F
F          0.5  0.58244     0.25     F
Cd         0.5  0.59919     0.75    Cd
N          0.5    0.789     0.75     N
C          0.5   0.8706     0.25     C
C          0.5   0.9901     0.25     C
H       0.5015    0.281   0.8508     H
H       0.5015    0.719   0.3508     H
C      0.50783   0.3892  0.05454     C
C      0.50783   0.6108  0.55454     C
C      0.51749   0.3102  0.57101     C
C      0.51749   0.6898  0.07101     C
C      0.51789   0.4032  0.11473     C
C      0.51789   0.5968  0.61473     C
H       0.5215   0.2897   0.9517     H
H       0.5215   0.7103   0.4517     H
N      0.52603  0.38746  0.35514     N
N      0.52603  0.61254  0.85514     N
C      0.52975   0.3056  0.63172     C
C      0.52975   0.6944  0.13172     C
H       0.5401   0.4009   0.0358     H
H       0.5401   0.5991   0.5358     H
C      0.55048   0.3574  0.47841     C
C      0.55048   0.6426  0.97841     C
O      0.55083  0.17393  0.77125     O
O      0.55083  0.82607  0.27125     O
C      0.55113   0.1554  0.27542     C
C      0.55113   0.8446  0.77542     C
C      0.55313   0.0464  0.27673     C
C      0.55313   0.9536  0.77673     C
H       0.5574   0.4248   0.1357     H
H       0.5574   0.5752   0.6357     H
C      0.56288   0.3453  0.54345     C
C      0.56288   0.6547  0.04345     C
C      0.58195   0.3553  0.38701     C
C      0.58195   0.6447  0.88701     C
N      0.58441   0.3347  0.66716     N
N      0.58441   0.6653  0.16716     N
H       0.5873   0.1925   0.2932     H
H       0.5873   0.8075   0.7932     H
H       0.5896   0.0111   0.2953     H
H       0.5896   0.9889   0.7953     H
C      0.59608     0.34  0.44738     C
C      0.59608     0.66  0.94738     C
Cd     0.59752  0.33225   0.7706    Cd
Cd     0.59752  0.66775   0.2706    Cd
O      0.59944  0.38252  0.24409     O
O      0.59944  0.61748  0.74409     O
H       0.6131   0.3425    0.367     H
H       0.6131   0.6575    0.867     H
H       0.6149   0.1622   0.8766     H
H       0.6149   0.8378   0.3766     H
C      0.62066   0.3718   0.5802     C
C      0.62066   0.6282   0.0802     C
C      0.62876   0.3658  0.64071     C
C      0.62876   0.6342  0.14071     C
C      0.62897    0.221  0.90022     C
C      0.62897    0.779  0.40022     C
N      0.62946  0.31546  0.87386     N
N      0.62946  0.68454  0.37386     N
H       0.6359   0.3181   0.4672     H
H       0.6359   0.6819   0.9672     H
H       0.6441   0.1114   0.7248     H
H       0.6441   0.8886   0.2248     H
H       0.6473   0.1403   0.9771     H
H       0.6473   0.8597   0.4771     H
C      0.64847   0.2074  0.96079     C
C      0.64847   0.7926  0.46079     C
C      0.64994   0.4311  0.25909     C
C      0.64994   0.5689  0.75909     C
C       0.6524   0.3967  0.90887     C
C       0.6524   0.6033  0.40887     C
H       0.6534   0.3932   0.5639     H
H       0.6534   0.6068   0.0639     H
H       0.6554   0.4623   0.8914     H
H       0.6554   0.5377   0.3914     H
H        0.656   0.3017   0.0812     H
H        0.656   0.6983   0.5812     H
O      0.65759  0.47842  0.78069     O
O      0.65759  0.52158  0.28069     O
H       0.6623   0.2452   0.2078     H
H       0.6623   0.7548   0.7078     H
H       0.6675   0.3845   0.6646     H
H       0.6675   0.6155   0.1646     H
C      0.66978    0.293  0.99751     C
C      0.66978    0.707  0.49751     C
C       0.6719   0.3886  0.96968     C
C       0.6719   0.6114  0.46968     C
C      0.68374   0.1403  0.73886     C
C      0.68374   0.8597  0.23886     C
H       0.6867   0.4484   0.9921     H
H       0.6867   0.5516   0.4921     H
N      0.68853  0.23363   0.7667     N
N      0.68853  0.76637   0.2667     N
C       0.6899   0.2822  0.06396     C
C       0.6899   0.7178  0.56396     C
C      0.70129   0.2764  0.22155     C
C      0.70129   0.7236  0.72155     C
H       0.7017     0.21   0.0741     H
H       0.7017     0.79   0.5741     H
C      0.70679   0.3728  0.25005     C
C      0.70679   0.6272  0.75005     C
H        0.725    0.328    0.079     H
H        0.725    0.672    0.579     H
H       0.7288   0.0195   0.7107     H
H       0.7288   0.9805   0.2107     H
C      0.73419   0.0847  0.72991     C
C      0.73419   0.9153  0.22991     C
C      0.74533   0.2734  0.78629     C
C      0.74533   0.7266  0.28629     C
H       0.7495    0.338   0.8063     H
H       0.7495    0.662   0.3063     H
H       0.7505    0.162   0.1937     H
H       0.7505    0.838   0.6937     H
C      0.75467   0.2266  0.21371     C
C      0.75467   0.7734  0.71371     C
C      0.76581   0.4153  0.27009     C
C      0.76581   0.5847  0.77009     C
H       0.7712   0.4805   0.2893     H
H       0.7712   0.5195   0.7893     H
H        0.775    0.172    0.921     H
H        0.775    0.828    0.421     H
C      0.79321   0.1272  0.74995     C
C      0.79321   0.8728  0.24995     C
H       0.7983     0.29   0.9259     H
H       0.7983     0.71   0.4259     H
C      0.79871   0.2236  0.77845     C
C      0.79871   0.7764  0.27845     C
C       0.8101   0.2178  0.93604     C
C       0.8101   0.7822  0.43604     C
N      0.81147  0.26637   0.2333     N
N      0.81147  0.73363   0.7333     N
H       0.8133   0.0516   0.0079     H
H       0.8133   0.9484   0.5079     H
C      0.81626   0.3597  0.26114     C
C      0.81626   0.6403  0.76114     C
C       0.8281   0.1114  0.03032     C
C       0.8281   0.8886  0.53032     C
C      0.83022    0.207  0.00249     C
C      0.83022    0.793  0.50249     C
H       0.8325   0.1155   0.3354     H
H       0.8325   0.8845   0.8354     H
H       0.8377   0.2548   0.7922     H
H       0.8377   0.7452   0.2922     H
O      0.84241  0.02158  0.21931     O
O      0.84241  0.97842  0.71931     O
H        0.844   0.1983   0.9188     H
H        0.844   0.8017   0.4188     H
H       0.8446   0.0377   0.1086     H
H       0.8446   0.9623   0.6086     H
H       0.8466   0.1068   0.4361     H
H       0.8466   0.8932   0.9361     H
C       0.8476   0.1033  0.09113     C
C       0.8476   0.8967  0.59113     C
C      0.85006   0.0689  0.74091     C
C      0.85006   0.9311  0.24091     C
C      0.85153   0.2926  0.03921     C
C      0.85153   0.7074  0.53921     C
H       0.8527   0.3597   0.0229     H
H       0.8527   0.6403   0.5229     H
H       0.8559   0.3886   0.2752     H
H       0.8559   0.6114   0.7752     H
H       0.8641   0.1819   0.5328     H
H       0.8641   0.8181   0.0328     H
N      0.87054  0.18454  0.12614     N
N      0.87054  0.81546  0.62614     N
C      0.87103    0.279  0.09978     C
C      0.87103    0.721  0.59978     C
C      0.87124   0.1342  0.35929     C
C      0.87124   0.8658  0.85929     C
C      0.87934   0.1282   0.4198     C
C      0.87934   0.8718   0.9198     C
H       0.8851   0.3378   0.1234     H
H       0.8851   0.6622   0.6234     H
H       0.8869   0.1575    0.633     H
H       0.8869   0.8425    0.133     H
O      0.90056  0.11748  0.75591     O
O      0.90056  0.88252  0.25591     O
Cd     0.90247  0.16775   0.2294    Cd
Cd     0.90247  0.83225   0.7294    Cd
C      0.90392     0.16  0.55262     C
C      0.90392     0.84  0.05262     C
H       0.9104   0.4889   0.7047     H
H       0.9104   0.5111   0.2047     H
H       0.9127   0.3075   0.7068     H
H       0.9127   0.6925   0.2068     H
N      0.91559   0.1653  0.33284     N
N      0.91559   0.8347  0.83284     N
C      0.91805   0.1447  0.61299     C
C      0.91805   0.8553  0.11299     C
C      0.93712   0.1547  0.45655     C
C      0.93712   0.8453  0.95655     C
H       0.9426   0.0752   0.8643     H
H       0.9426   0.9248   0.3643     H
C      0.94687   0.4536  0.72327     C
C      0.94687   0.5464  0.22327     C
C      0.94887   0.3446  0.72458     C
C      0.94887   0.6554  0.22458     C
O      0.94917  0.32607  0.22875     O
O      0.94917  0.67393  0.72875     O
C      0.94952   0.1426  0.52159     C
C      0.94952   0.8574  0.02159     C
H       0.9599   0.0991   0.9642     H
H       0.9599   0.9009   0.4642     H
C      0.97025   0.1944  0.36828     C
C      0.97025   0.8056  0.86828     C
N      0.97397  0.11254  0.64486     N
N      0.97397  0.88746  0.14486     N
H       0.9785   0.2103   0.0483     H
H       0.9785   0.7897   0.5483     H
C      0.98211   0.0968  0.88527     C
C      0.98211   0.9032  0.38527     C
C      0.98251   0.1898  0.42899     C
C      0.98251   0.8102  0.92899     C
C      0.99217   0.1108  0.94546     C
C      0.99217   0.8892  0.44546     C
H       0.9985    0.219   0.1492     H
H       0.9985    0.781   0.6492     H
