data_I
_chemical_name_common  '/home/zhangsd/repos/MofS-CGCNN/ML/data/SSD/clean_cifs/LIFSAW_clean'
_cell_length_a 21.89200
_cell_length_b 12.60900
_cell_length_c 23.26300
_cell_angle_alpha 90.00000
_cell_angle_beta  102.89400
_cell_angle_gamma 90.00000
_space_group_name_H-M_alt      'P 1'


loop_
_space_group_symop_operation_xyz
  'x, y, z' 

loop_
_atom_site_label
_atom_site_fract_x
_atom_site_fract_y
_atom_site_fract_z
_atom_site_type_symbol
C          0.0   0.0009     0.75     C
C          0.0   0.1197     0.75     C
N          0.0   0.2199     0.25     N
Cd         0.0  0.40863     0.25    Cd
F          0.0   0.4096     0.75     F
F          0.0   0.5904     0.25     F
Cd         0.0  0.59137     0.75    Cd
N          0.0   0.7801     0.75     N
C          0.0   0.8803     0.25     C
C          0.0   0.9991     0.25     C
H       0.0081   0.2748    0.856     H
H       0.0081   0.7252    0.356     H
C       0.0108   0.3904   0.0567     C
C       0.0108   0.6096   0.5567     C
C       0.0118   0.3072   0.5667     C
C       0.0118   0.6928   0.0667     C
C       0.0201   0.4088   0.1159     C
C       0.0201   0.5912   0.6159     C
C       0.0237   0.2996   0.6269     C
C       0.0237   0.7004   0.1269     C
N       0.0249   0.3967   0.3542     N
N       0.0249   0.6033   0.8542     N
H       0.0273   0.2885    0.956     H
H       0.0273   0.7115    0.456     H
H       0.0438   0.3989    0.038     H
H       0.0438   0.6011    0.538     H
C       0.0466   0.3597   0.4752     C
C       0.0466   0.6403   0.9752     C
O      0.05068   0.1648  0.77186     O
O      0.05068   0.8352  0.27186     O
C        0.052   0.1644   0.2728     C
C        0.052   0.8356   0.7728     C
C       0.0537   0.0555   0.2741     C
C       0.0537   0.9445   0.7741     C
C       0.0585    0.343   0.5398     C
C       0.0585    0.657   0.0398     C
H       0.0596   0.4307   0.1363     H
H       0.0596   0.5693   0.6363     H
N       0.0781   0.3256   0.6623     N
N       0.0781   0.6744   0.1623     N
C       0.0812   0.3654   0.3851     C
C       0.0812   0.6346   0.8851     C
H       0.0886   0.2015   0.2885     H
H       0.0886   0.7985   0.7885     H
H       0.0906   0.0202   0.2909     H
H       0.0906   0.9798   0.7909     H
C       0.0933   0.3469   0.4447     C
C       0.0933   0.6531   0.9447     C
Cd      0.0945  0.32316  0.76545    Cd
Cd      0.0945  0.67684  0.26545    Cd
O      0.09957   0.3926   0.2438     O
O      0.09957   0.6074   0.7438     O
H       0.1133   0.3557   0.3653     H
H       0.1133   0.6443   0.8653     H
C       0.1151   0.3674   0.5765     C
C       0.1151   0.6326   0.0765     C
C       0.1238   0.3569   0.6359     C
C       0.1238   0.6431   0.1359     C
H       0.1275   0.1488   0.8671     H
H       0.1275   0.8512   0.3671     H
H       0.1332   0.3257   0.4645     H
H       0.1332   0.6743   0.9645     H
N       0.1357   0.3021   0.8691     N
N       0.1357   0.6979   0.3691     N
H       0.1425   0.1094   0.7125     H
H       0.1425   0.8906   0.2125     H
H       0.1479   0.3913   0.5605     H
H       0.1479   0.6087   0.0605     H
C       0.1488   0.2048   0.8887     C
C       0.1488   0.7952   0.3887     C
C       0.1497   0.4404   0.2582     C
C       0.1497   0.5596   0.7582     C
O      0.15601   0.4664   0.7768     O
O      0.15601   0.5336   0.2768     O
H       0.1569    0.449   0.8895     H
H       0.1569    0.551   0.3895     H
H       0.1631   0.3722   0.6593     H
H       0.1631   0.6278   0.1593     H
H       0.1645    0.262   0.2034     H
H       0.1645    0.738   0.7034     H
C        0.166   0.3795   0.9019     C
C        0.166   0.6205   0.4019     C
C        0.182   0.1362   0.7294     C
C        0.182   0.8638   0.2294     C
N      0.18528   0.2266   0.7584     N
N      0.18528   0.7734   0.2584     N
C       0.1925    0.182   0.9394     C
C       0.1925    0.818   0.4394     C
H       0.1998   0.1117    0.951     H
H       0.1998   0.8883    0.451     H
C       0.2035   0.2899   0.2213     C
C       0.2035   0.7101   0.7213     C
C       0.2073   0.3825   0.2526     C
C       0.2073   0.6175   0.7526     C
C       0.2103   0.3628   0.9536     C
C       0.2103   0.6372   0.4536     C
C       0.2255   0.2611   0.9733     C
C       0.2255   0.7389   0.4733     C
H       0.2281   0.0165   0.7017     H
H       0.2281   0.9835   0.2017     H
H       0.2299   0.4204    0.975     H
H       0.2299   0.5796    0.475     H
C       0.2332   0.0798   0.7227     C
C       0.2332   0.9202   0.2227     C
C       0.2423    0.262   0.7834     C
C       0.2423    0.738   0.2834     C
H       0.2458   0.3245   0.8051     H
H       0.2458   0.6755   0.3051     H
H       0.2542   0.1755   0.1949     H
H       0.2542   0.8245   0.6949     H
C       0.2577    0.238   0.2166     C
C       0.2577    0.762   0.7166     C
C       0.2668   0.4202   0.2773     C
C       0.2668   0.5798   0.7773     C
H       0.2701   0.0796    0.025     H
H       0.2701   0.9204    0.525     H
H       0.2719   0.4835   0.2983     H
H       0.2719   0.5165   0.7983     H
C       0.2745   0.2389   0.0267     C
C       0.2745   0.7611   0.5267     C
C       0.2897   0.1372   0.0464     C
C       0.2897   0.8628   0.5464     C
C       0.2927   0.1175   0.7474     C
C       0.2927   0.8825   0.2474     C
C       0.2965   0.2101   0.7787     C
C       0.2965   0.7899   0.2787     C
H       0.3002   0.3883    0.049     H
H       0.3002   0.6117    0.549     H
C       0.3075    0.318   0.0606     C
C       0.3075    0.682   0.5606     C
N      0.31472   0.2734   0.2416     N
N      0.31472   0.7266   0.7416     N
C        0.318   0.3638   0.2706     C
C        0.318   0.6362   0.7706     C
C        0.334   0.1205   0.0981     C
C        0.334   0.8795   0.5981     C
H       0.3355    0.238   0.7966     H
H       0.3355    0.762   0.2966     H
H       0.3369   0.1278   0.3407     H
H       0.3369   0.8722   0.8407     H
H       0.3431    0.051   0.1105     H
H       0.3431    0.949   0.6105     H
O      0.34399   0.0336   0.2232     O
O      0.34399   0.9664   0.7232     O
C       0.3503   0.0596   0.7418     C
C       0.3503   0.9404   0.2418     C
C       0.3512   0.2952   0.1113     C
C       0.3512   0.7048   0.6113     C
H       0.3521   0.1087   0.4395     H
H       0.3521   0.8913   0.9395     H
H       0.3575   0.3906   0.2875     H
H       0.3575   0.6094   0.7875     H
N       0.3643   0.1979   0.1309     N
N       0.3643   0.8021   0.6309     N
H       0.3668   0.1743   0.5355     H
H       0.3668   0.8257   0.0355     H
H       0.3725   0.3512   0.1329     H
H       0.3725   0.6488   0.6329     H
C       0.3762   0.1431   0.3641     C
C       0.3762   0.8569   0.8641     C
C       0.3849   0.1326   0.4235     C
C       0.3849   0.8674   0.9235     C
H       0.3867   0.1443   0.6347     H
H       0.3867   0.8557   0.1347     H
O      0.40043   0.1074   0.7562     O
O      0.40043   0.8926   0.2562     O
Cd      0.4055  0.17684  0.23455    Cd
Cd      0.4055  0.82316  0.73455    Cd
C       0.4067   0.1531   0.5553     C
C       0.4067   0.8469   0.0553     C
H       0.4094   0.4798   0.7091     H
H       0.4094   0.5202   0.2091     H
H       0.4114   0.2985   0.7115     H
H       0.4114   0.7015   0.2115     H
C       0.4188   0.1346   0.6149     C
C       0.4188   0.8654   0.1149     C
N       0.4219   0.1744   0.3377     N
N       0.4219   0.8256   0.8377     N
H       0.4404   0.0693   0.8637     H
H       0.4404   0.9307   0.3637     H
C       0.4415    0.157   0.4602     C
C       0.4415    0.843   0.9602     C
C       0.4463   0.4445   0.7259     C
C       0.4463   0.5555   0.2259     C
C        0.448   0.3356   0.7272     C
C        0.448   0.6644   0.2272     C
O      0.44932   0.3352  0.22814     O
O      0.44932   0.6648  0.72814     O
C       0.4534   0.1403   0.5248     C
C       0.4534   0.8597   0.0248     C
H       0.4562   0.1011    0.962     H
H       0.4562   0.8989    0.462     H
H       0.4727   0.2115    0.044     H
H       0.4727   0.7885    0.544     H
N       0.4751   0.1033   0.6458     N
N       0.4751   0.8967   0.1458     N
C       0.4763   0.2004   0.3731     C
C       0.4763   0.7996   0.8731     C
C       0.4799   0.0912   0.8841     C
C       0.4799   0.9088   0.3841     C
C       0.4882   0.1928   0.4333     C
C       0.4882   0.8072   0.9333     C
C       0.4892   0.1096   0.9433     C
C       0.4892   0.8904   0.4433     C
H       0.4919   0.2252    0.144     H
H       0.4919   0.7748    0.644     H
F          0.5   0.0904     0.25     F
Cd         0.5  0.09137     0.75    Cd
N          0.5   0.2801     0.75     N
C          0.5   0.3803     0.25     C
C          0.5   0.4991     0.25     C
C          0.5   0.5009     0.75     C
C          0.5   0.6197     0.75     C
N          0.5   0.7199     0.25     N
Cd         0.5  0.90863     0.25    Cd
F          0.5   0.9096     0.75     F
H       0.5081   0.2252    0.356     H
H       0.5081   0.7748    0.856     H
C       0.5108   0.1096   0.5567     C
C       0.5108   0.8904   0.0567     C
C       0.5118   0.1928   0.0667     C
C       0.5118   0.8072   0.5667     C
C       0.5201   0.0912   0.6159     C
C       0.5201   0.9088   0.1159     C
C       0.5237   0.2004   0.1269     C
C       0.5237   0.7996   0.6269     C
N       0.5249   0.1033   0.8542     N
N       0.5249   0.8967   0.3542     N
H       0.5273   0.2115    0.456     H
H       0.5273   0.7885    0.956     H
H       0.5438   0.1011    0.538     H
H       0.5438   0.8989    0.038     H
C       0.5466   0.1403   0.9752     C
C       0.5466   0.8597   0.4752     C
O      0.55068   0.3352  0.27186     O
O      0.55068   0.6648  0.77186     O
C        0.552   0.3356   0.7728     C
C        0.552   0.6644   0.2728     C
C       0.5537   0.4445   0.7741     C
C       0.5537   0.5555   0.2741     C
C       0.5585    0.157   0.0398     C
C       0.5585    0.843   0.5398     C
H       0.5596   0.0693   0.6363     H
H       0.5596   0.9307   0.1363     H
N       0.5781   0.1744   0.1623     N
N       0.5781   0.8256   0.6623     N
C       0.5812   0.1346   0.8851     C
C       0.5812   0.8654   0.3851     C
H       0.5886   0.2985   0.7885     H
H       0.5886   0.7015   0.2885     H
H       0.5906   0.4798   0.7909     H
H       0.5906   0.5202   0.2909     H
C       0.5933   0.1531   0.9447     C
C       0.5933   0.8469   0.4447     C
Cd      0.5945  0.17684  0.26545    Cd
Cd      0.5945  0.82316  0.76545    Cd
O      0.59957   0.1074   0.7438     O
O      0.59957   0.8926   0.2438     O
H       0.6133   0.1443   0.8653     H
H       0.6133   0.8557   0.3653     H
C       0.6151   0.1326   0.0765     C
C       0.6151   0.8674   0.5765     C
C       0.6238   0.1431   0.1359     C
C       0.6238   0.8569   0.6359     C
H       0.6275   0.3512   0.3671     H
H       0.6275   0.6488   0.8671     H
H       0.6332   0.1743   0.9645     H
H       0.6332   0.8257   0.4645     H
N       0.6357   0.1979   0.3691     N
N       0.6357   0.8021   0.8691     N
H       0.6425   0.3906   0.2125     H
H       0.6425   0.6094   0.7125     H
H       0.6479   0.1087   0.0605     H
H       0.6479   0.8913   0.5605     H
C       0.6488   0.2952   0.3887     C
C       0.6488   0.7048   0.8887     C
C       0.6497   0.0596   0.7582     C
C       0.6497   0.9404   0.2582     C
O      0.65601   0.0336   0.2768     O
O      0.65601   0.9664   0.7768     O
H       0.6569    0.051   0.3895     H
H       0.6569    0.949   0.8895     H
H       0.6631   0.1278   0.1593     H
H       0.6631   0.8722   0.6593     H
H       0.6645    0.238   0.7034     H
H       0.6645    0.762   0.2034     H
C        0.666   0.1205   0.4019     C
C        0.666   0.8795   0.9019     C
C        0.682   0.3638   0.2294     C
C        0.682   0.6362   0.7294     C
N      0.68528   0.2734   0.2584     N
N      0.68528   0.7266   0.7584     N
C       0.6925    0.318   0.4394     C
C       0.6925    0.682   0.9394     C
H       0.6998   0.3883    0.451     H
H       0.6998   0.6117    0.951     H
C       0.7035   0.2101   0.7213     C
C       0.7035   0.7899   0.2213     C
C       0.7073   0.1175   0.7526     C
C       0.7073   0.8825   0.2526     C
C       0.7103   0.1372   0.4536     C
C       0.7103   0.8628   0.9536     C
C       0.7255   0.2389   0.4733     C
C       0.7255   0.7611   0.9733     C
H       0.7281   0.4835   0.2017     H
H       0.7281   0.5165   0.7017     H
H       0.7299   0.0796    0.475     H
H       0.7299   0.9204    0.975     H
C       0.7332   0.4202   0.2227     C
C       0.7332   0.5798   0.7227     C
C       0.7423    0.238   0.2834     C
C       0.7423    0.762   0.7834     C
H       0.7458   0.1755   0.3051     H
H       0.7458   0.8245   0.8051     H
H       0.7542   0.3245   0.6949     H
H       0.7542   0.6755   0.1949     H
C       0.7577    0.262   0.7166     C
C       0.7577    0.738   0.2166     C
C       0.7668   0.0798   0.7773     C
C       0.7668   0.9202   0.2773     C
H       0.7701   0.4204    0.525     H
H       0.7701   0.5796    0.025     H
H       0.7719   0.0165   0.7983     H
H       0.7719   0.9835   0.2983     H
C       0.7745   0.2611   0.5267     C
C       0.7745   0.7389   0.0267     C
C       0.7897   0.3628   0.5464     C
C       0.7897   0.6372   0.0464     C
C       0.7927   0.3825   0.2474     C
C       0.7927   0.6175   0.7474     C
C       0.7965   0.2899   0.2787     C
C       0.7965   0.7101   0.7787     C
H       0.8002   0.1117    0.549     H
H       0.8002   0.8883    0.049     H
C       0.8075    0.182   0.5606     C
C       0.8075    0.818   0.0606     C
N      0.81472   0.2266   0.7416     N
N      0.81472   0.7734   0.2416     N
C        0.818   0.1362   0.7706     C
C        0.818   0.8638   0.2706     C
C        0.834   0.3795   0.5981     C
C        0.834   0.6205   0.0981     C
H       0.8355    0.262   0.2966     H
H       0.8355    0.738   0.7966     H
H       0.8369   0.3722   0.8407     H
H       0.8369   0.6278   0.3407     H
H       0.8431    0.449   0.6105     H
H       0.8431    0.551   0.1105     H
O      0.84399   0.4664   0.7232     O
O      0.84399   0.5336   0.2232     O
C       0.8503   0.4404   0.2418     C
C       0.8503   0.5596   0.7418     C
C       0.8512   0.2048   0.6113     C
C       0.8512   0.7952   0.1113     C
H       0.8521   0.3913   0.9395     H
H       0.8521   0.6087   0.4395     H
H       0.8575   0.1094   0.7875     H
H       0.8575   0.8906   0.2875     H
N       0.8643   0.3021   0.6309     N
N       0.8643   0.6979   0.1309     N
H       0.8668   0.3257   0.0355     H
H       0.8668   0.6743   0.5355     H
H       0.8725   0.1488   0.6329     H
H       0.8725   0.8512   0.1329     H
C       0.8762   0.3569   0.8641     C
C       0.8762   0.6431   0.3641     C
C       0.8849   0.3674   0.9235     C
C       0.8849   0.6326   0.4235     C
H       0.8867   0.3557   0.1347     H
H       0.8867   0.6443   0.6347     H
O      0.90043   0.3926   0.2562     O
O      0.90043   0.6074   0.7562     O
Cd      0.9055  0.32316  0.73455    Cd
Cd      0.9055  0.67684  0.23455    Cd
C       0.9067   0.3469   0.0553     C
C       0.9067   0.6531   0.5553     C
H       0.9094   0.0202   0.2091     H
H       0.9094   0.9798   0.7091     H
H       0.9114   0.2015   0.2115     H
H       0.9114   0.7985   0.7115     H
C       0.9188   0.3654   0.1149     C
C       0.9188   0.6346   0.6149     C
N       0.9219   0.3256   0.8377     N
N       0.9219   0.6744   0.3377     N
H       0.9404   0.4307   0.3637     H
H       0.9404   0.5693   0.8637     H
C       0.9415    0.343   0.9602     C
C       0.9415    0.657   0.4602     C
C       0.9463   0.0555   0.2259     C
C       0.9463   0.9445   0.7259     C
C        0.948   0.1644   0.2272     C
C        0.948   0.8356   0.7272     C
O      0.94932   0.1648  0.72814     O
O      0.94932   0.8352  0.22814     O
C       0.9534   0.3597   0.0248     C
C       0.9534   0.6403   0.5248     C
H       0.9562   0.3989    0.462     H
H       0.9562   0.6011    0.962     H
H       0.9727   0.2885    0.544     H
H       0.9727   0.7115    0.044     H
N       0.9751   0.3967   0.1458     N
N       0.9751   0.6033   0.6458     N
C       0.9763   0.2996   0.8731     C
C       0.9763   0.7004   0.3731     C
C       0.9799   0.4088   0.3841     C
C       0.9799   0.5912   0.8841     C
C       0.9882   0.3072   0.9333     C
C       0.9882   0.6928   0.4333     C
C       0.9892   0.3904   0.4433     C
C       0.9892   0.6096   0.9433     C
H       0.9919   0.2748    0.644     H
H       0.9919   0.7252    0.144     H
