data_I
_chemical_name_common  '/home/zhangsd/repos/MofS-CGCNN/ML/data/SSD/clean_cifs/LOLQIM_clean'
_cell_length_a  9.98200
_cell_length_b 10.00000
_cell_length_c  9.57600
_cell_angle_alpha 97.96000
_cell_angle_beta  114.87000
_cell_angle_gamma 107.67000
_space_group_name_H-M_alt      'P 1'


loop_
_space_group_symop_operation_xyz
  'x, y, z' 

loop_
_atom_site_label
_atom_site_fract_x
_atom_site_fract_y
_atom_site_fract_z
_atom_site_type_symbol
O       0.0028   0.2046   0.6954     O
P       0.0284   0.6595   0.3362     P
P       0.0301   0.8071   0.8461     P
Ge     0.03306  0.11545  0.86359    Ge
O       0.0364   0.0933   0.2445     O
O       0.0473   0.5915   0.1887     O
H       0.0776   0.5027   0.1922     H
O       0.0939   0.8706   0.0283     O
O       0.1125   0.4514   0.6608     O
O       0.1175   0.3481   0.2204     O
O       0.1593   0.7788   0.8213     O
O       0.1864   0.7022   0.4937     O
H       0.2055   0.4406   0.2601     H
Zn     0.20884  0.65898  0.68782    Zn
O       0.2638   0.1943   0.0052     O
O       0.3841   0.0786   0.2199     O
H       0.3924   0.3995   0.3816     H
O       0.3955   0.3338   0.3021     O
P       0.4002   0.2291   0.1746     P
O       0.4427   0.7126   0.8305     O
O       0.5573   0.2874   0.1695     O
P       0.5998   0.7709   0.8254     P
O       0.6045   0.6662   0.6979     O
H       0.6076   0.6005   0.6184     H
O       0.6159   0.9214   0.7801     O
O       0.7362   0.8057   0.9948     O
Zn     0.79116  0.34102  0.31218    Zn
H       0.7945   0.5594   0.7399     H
O       0.8136   0.2978   0.5063     O
O       0.8407   0.2212   0.1787     O
O       0.8825   0.6519   0.7796     O
O       0.8875   0.5486   0.3392     O
O       0.9061   0.1294   0.9717     O
H       0.9224   0.4973   0.8078     H
O       0.9527   0.4085   0.8113     O
O       0.9636   0.9067   0.7555     O
Ge     0.96694  0.88455  0.13641    Ge
P       0.9699   0.1929   0.1539     P
P       0.9716   0.3405   0.6638     P
O       0.9972   0.7954   0.3046     O
