data_I
_chemical_name_common  '/home/zhangsd/repos/MofS-CGCNN/ML/data/SSD/clean_cifs/LUJPUC_clean'
_cell_length_a  9.54000
_cell_length_b 19.81200
_cell_length_c 11.15100
_cell_angle_alpha 90.00000
_cell_angle_beta  113.68400
_cell_angle_gamma 90.00000
_space_group_name_H-M_alt      'P 1'


loop_
_space_group_symop_operation_xyz
  'x, y, z' 

loop_
_atom_site_label
_atom_site_fract_x
_atom_site_fract_y
_atom_site_fract_z
_atom_site_type_symbol
Ni         0.0      0.5      0.0    Ni
C        0.002   0.2078   0.2368     C
C        0.002   0.7922   0.2368     C
O       0.0497   0.2505   0.3311     O
O       0.0497   0.7495   0.3311     O
H       0.0558   0.3209   0.8776     H
H       0.0558   0.6791   0.8776     H
O       0.0614   0.1531   0.2369     O
O       0.0614   0.8469   0.2369     O
C       0.1344    0.292   0.9273     C
C       0.1344    0.708   0.9273     C
C       0.1368   0.2287    0.879     C
C       0.1368   0.7713    0.879     C
O       0.1549   0.4274    0.006     O
O       0.1549   0.5726    0.006     O
C       0.2138   0.3834   0.0916     C
C       0.2138   0.6166   0.0916     C
O       0.2407   0.3909   0.2095     O
O       0.2407   0.6091   0.2095     O
C       0.2437   0.3161    0.048     C
C       0.2437   0.6839    0.048     C
Ni        0.25     0.25      0.5    Ni
Ni        0.25     0.75      0.5    Ni
C       0.2563   0.1839    0.952     C
C       0.2563   0.8161    0.952     C
O       0.2593   0.1091   0.7905     O
O       0.2593   0.8909   0.7905     O
C       0.2862   0.1166   0.9084     C
C       0.2862   0.8834   0.9084     C
O       0.3451   0.0726    0.994     O
O       0.3451   0.9274    0.994     O
C       0.3632   0.2713    0.121     C
C       0.3632   0.7287    0.121     C
C       0.3656    0.208   0.0727     C
C       0.3656    0.792   0.0727     C
O       0.4386   0.3469   0.7631     O
O       0.4386   0.6531   0.7631     O
H       0.4442   0.1791   0.1224     H
H       0.4442   0.8209   0.1224     H
O       0.4503   0.2495   0.6689     O
O       0.4503   0.7505   0.6689     O
C        0.498   0.2922   0.7632     C
C        0.498   0.7078   0.7632     C
Ni         0.5      0.0      0.0    Ni
C        0.502   0.2922   0.2368     C
C        0.502   0.7078   0.2368     C
O       0.5497   0.2495   0.3311     O
O       0.5497   0.7505   0.3311     O
H       0.5558   0.1791   0.8776     H
H       0.5558   0.8209   0.8776     H
O       0.5614   0.3469   0.2369     O
O       0.5614   0.6531   0.2369     O
C       0.6344    0.208   0.9273     C
C       0.6344    0.792   0.9273     C
C       0.6368   0.2713    0.879     C
C       0.6368   0.7287    0.879     C
O       0.6549   0.0726    0.006     O
O       0.6549   0.9274    0.006     O
C       0.7138   0.1166   0.0916     C
C       0.7138   0.8834   0.0916     C
O       0.7407   0.1091   0.2095     O
O       0.7407   0.8909   0.2095     O
C       0.7437   0.1839    0.048     C
C       0.7437   0.8161    0.048     C
Ni        0.75     0.25      0.5    Ni
Ni        0.75     0.75      0.5    Ni
C       0.7563   0.3161    0.952     C
C       0.7563   0.6839    0.952     C
O       0.7593   0.3909   0.7905     O
O       0.7593   0.6091   0.7905     O
C       0.7862   0.3834   0.9084     C
C       0.7862   0.6166   0.9084     C
O       0.8451   0.4274    0.994     O
O       0.8451   0.5726    0.994     O
C       0.8632   0.2287    0.121     C
C       0.8632   0.7713    0.121     C
C       0.8656    0.292   0.0727     C
C       0.8656    0.708   0.0727     C
O       0.9386   0.1531   0.7631     O
O       0.9386   0.8469   0.7631     O
H       0.9442   0.3209   0.1224     H
H       0.9442   0.6791   0.1224     H
O       0.9503   0.2505   0.6689     O
O       0.9503   0.7495   0.6689     O
C        0.998   0.2078   0.7632     C
C        0.998   0.7922   0.7632     C
