data_I
_chemical_name_common  '/home/zhangsd/repos/MofS-CGCNN/ML/data/SSD/clean_cifs/LUMZUO_clean'
_cell_length_a 13.25010
_cell_length_b 13.25010
_cell_length_c 18.49890
_cell_angle_alpha 92.55590
_cell_angle_beta  92.55590
_cell_angle_gamma 112.73200
_space_group_name_H-M_alt      'P 1'


loop_
_space_group_symop_operation_xyz
  'x, y, z' 

loop_
_atom_site_label
_atom_site_fract_x
_atom_site_fract_y
_atom_site_fract_z
_atom_site_type_symbol
Mn         0.0      0.5      0.5    Mn
S      0.01355  0.72905  0.03523     S
W      0.03491  0.44953  0.91082     W
S      0.07732  0.63568  0.87233     S
W      0.07931  0.43035  0.05098     W
C       0.0821   0.3887   0.8121     C
N       0.1179   0.3577   0.7643     N
W      0.12851  0.62889   0.0012     W
N       0.1457   0.6455   0.4941     N
S       0.1587   0.6003  0.12997     S
C         0.17   0.3474   0.1041     C
Mn     0.21243  0.29301  0.69696    Mn
N       0.2194   0.3022   0.1338     N
S      0.22278  0.50842  0.96591     S
C       0.2237   0.7235   0.4969     C
S      0.27095  0.98645  0.46477     S
C       0.2765   0.7763   0.0031     C
Mn     0.29301  0.21243  0.19696    Mn
N       0.3022   0.2194   0.6338     N
C       0.3474     0.17   0.6041     C
N       0.3545   0.8543   0.0059     N
N       0.3577   0.1179   0.2643     N
S      0.36432  0.92268  0.62767     S
W      0.37111  0.87149   0.4988     W
C       0.3887   0.0821   0.3121     C
S       0.3997   0.8413  0.37003     S
W      0.43035  0.07931  0.55098     W
W      0.44953  0.03491  0.41082     W
S      0.49158  0.77722  0.53409     S
Mn         0.5      0.0     -0.0    Mn
S      0.50842  0.22278  0.46591     S
W      0.55047  0.96509  0.58918     W
W      0.56965  0.92069  0.44902     W
S       0.6003   0.1587  0.62997     S
C       0.6113   0.9179   0.6879     C
W      0.62889  0.12851   0.5012     W
S      0.63568  0.07732  0.37233     S
N       0.6423   0.8821   0.7357     N
N       0.6455   0.1457   0.9941     N
C       0.6526     0.83   0.3959     C
N       0.6978   0.7806   0.3662     N
Mn     0.70699  0.78757  0.80304    Mn
C       0.7235   0.2237   0.9969     C
S      0.72905  0.01355  0.53523     S
C       0.7763   0.2765   0.5031     C
S      0.77722  0.49158  0.03409     S
N       0.7806   0.6978   0.8662     N
Mn     0.78757  0.70699  0.30304    Mn
C         0.83   0.6526   0.8959     C
S       0.8413   0.3997  0.87003     S
N       0.8543   0.3545   0.5059     N
W      0.87149  0.37111   0.9988     W
N       0.8821   0.6423   0.2357     N
C       0.9179   0.6113   0.1879     C
W      0.92069  0.56965  0.94902     W
S      0.92268  0.36432  0.12767     S
W      0.96509  0.55047  0.08918     W
S      0.98645  0.27095  0.96477     S
