data_I
_chemical_name_common  '/home/zhangsd/repos/MofS-CGCNN/ML/data/SSD/clean_cifs/LUNBAX_clean'
_cell_length_a 13.18880
_cell_length_b 13.18880
_cell_length_c 18.28600
_cell_angle_alpha 92.73210
_cell_angle_beta  92.73210
_cell_angle_gamma 112.78100
_space_group_name_H-M_alt      'P 1'


loop_
_space_group_symop_operation_xyz
  'x, y, z' 

loop_
_atom_site_label
_atom_site_fract_x
_atom_site_fract_y
_atom_site_fract_z
_atom_site_type_symbol
Fe         0.0      0.5      0.5    Fe
S      0.00803  0.72757   0.0352     S
W       0.0378  0.45066  0.91031     W
S       0.0761   0.6365   0.8714     S
W      0.08149  0.43269  0.05241     W
C       0.0894   0.3906   0.8115     C
N       0.1221   0.3577   0.7621     N
W       0.1274  0.63184  0.00214     W
N       0.1372   0.6484   0.4945     N
S       0.1578    0.604   0.1325     S
C       0.1739   0.3511   0.1078     C
Fe     0.21521  0.29533  0.69598    Fe
C       0.2168   0.7278   0.4953     C
S       0.2259   0.5151   0.9681     S
N       0.2265   0.3103   0.1356     N
C       0.2722   0.7832   0.0047     C
S      0.27243  0.99197   0.4648     S
Fe     0.29533  0.21521  0.19598    Fe
N       0.3103   0.2265   0.6356     N
C       0.3511   0.1739   0.6078     C
N       0.3516   0.8628   0.0055     N
N       0.3577   0.1221   0.2621     N
S       0.3635   0.9239   0.6286     S
W      0.36816   0.8726  0.49786     W
C       0.3906   0.0894   0.3115     C
S        0.396   0.8422   0.3675     S
W      0.43269  0.08149  0.55241     W
W      0.45066   0.0378  0.41031     W
S       0.4849   0.7741   0.5319     S
Fe         0.5     -0.0      0.0    Fe
S       0.5151   0.2259   0.4681     S
W      0.54934   0.9622  0.58969     W
W      0.56731  0.91851  0.44759     W
S        0.604   0.1578   0.6325     S
C       0.6094   0.9106   0.6885     C
W      0.63184   0.1274  0.50214     W
S       0.6365   0.0761   0.3714     S
N       0.6423   0.8779   0.7379     N
N       0.6484   0.1372   0.9945     N
C       0.6489   0.8261   0.3922     C
N       0.6897   0.7735   0.3644     N
Fe     0.70467  0.78479  0.80402    Fe
S      0.72757  0.00803   0.5352     S
C       0.7278   0.2168   0.9953     C
N       0.7735   0.6897   0.8644     N
S       0.7741   0.4849   0.0319     S
C       0.7832   0.2722   0.5047     C
Fe     0.78479  0.70467  0.30402    Fe
C       0.8261   0.6489   0.8922     C
S       0.8422    0.396   0.8675     S
N       0.8628   0.3516   0.5055     N
W       0.8726  0.36816  0.99786     W
N       0.8779   0.6423   0.2379     N
C       0.9106   0.6094   0.1885     C
W      0.91851  0.56731  0.94759     W
S       0.9239   0.3635   0.1286     S
W       0.9622  0.54934  0.08969     W
S      0.99197  0.27243   0.9648     S
