data_I
_chemical_name_common  '/home/zhangsd/repos/MofS-CGCNN/ML/data/SSD/clean_cifs/LUSYEF_clean'
_cell_length_a 18.42840
_cell_length_b 18.42840
_cell_length_c 40.08100
_cell_angle_alpha 90.00000
_cell_angle_beta  90.00000
_cell_angle_gamma 120.00000
_space_group_name_H-M_alt      'P 1'


loop_
_space_group_symop_operation_xyz
  'x, y, z' 

loop_
_atom_site_label
_atom_site_fract_x
_atom_site_fract_y
_atom_site_fract_z
_atom_site_type_symbol
C      0.01983  0.50992  0.54507     C
C      0.02097  0.51048  0.48473     C
C      0.02487  0.51243  0.42153     C
C      0.02597  0.24303  0.30647     C
C      0.02597  0.78293  0.30647     C
O       0.0276   0.4388  0.95695     O
O       0.0276   0.5888  0.95695     O
H      0.03467  0.40883  0.41703     H
H      0.03467  0.62583  0.41703     H
O      0.03817  0.22483  0.33526     O
O      0.03817  0.81333  0.33526     O
H      0.04083  0.29867  0.75037     H
H      0.04083  0.74217  0.75037     H
C      0.04707  0.45873  0.40651     C
C      0.04707  0.58833  0.40651     C
Cu     0.04881  0.52441  0.02667    Cu
C      0.05693  0.24527   0.7089     C
C      0.05693  0.81167   0.7089     C
H       0.0631   0.1262   0.8478     H
H       0.0631   0.9369   0.8478     H
H       0.0755    0.368   0.9163     H
H       0.0755   0.7075   0.9163     H
O      0.07787  0.30573  0.29028     O
O      0.07787  0.77213  0.29028     O
C      0.07833  0.28627  0.73985     C
C      0.07833  0.79207  0.73985     C
C      0.08807  0.47833  0.37556     C
C      0.08807  0.60973  0.37556     C
C       0.0903   0.4496  0.97314     C
C       0.0903   0.6407  0.97314     C
C      0.09225   0.1845   0.8479     C
C      0.09225  0.90775   0.8479     C
H      0.09808  0.19617  0.79887     H
H      0.09808  0.90192  0.79887     H
H      0.09933  0.19867  0.67357     H
H      0.09933  0.90067  0.67357     H
H       0.0998   0.1996   0.8993     H
H       0.0998   0.9002   0.8993     H
C      0.10483  0.55242  0.54587     C
O      0.10547  0.36093  0.37638     O
O      0.10547  0.74453  0.37638     O
C      0.10737  0.55368  0.48543     C
C      0.10757  0.55378  0.36074     C
O       0.1085     0.48  0.00193     O
O       0.1085   0.6285  0.00193     O
C      0.11288  0.22577  0.69408     C
C      0.11288  0.88712  0.69408     C
C      0.11298  0.22597  0.81877     C
C      0.11298  0.88702  0.81877     C
C      0.11425   0.2285   0.8792     C
C      0.11425  0.88575   0.8792     C
C      0.11627  0.42363  0.36019     C
C      0.11627  0.69263  0.36019     C
C       0.1254   0.3804  0.92682     C
C       0.1254    0.745  0.92682     C
H       0.1262   0.0631   0.1522     H
H      0.13373  0.56687  0.56597     H
H      0.13467  0.56733  0.34023     H
H      0.13717  0.56858  0.46553     H
Cu     0.14226  0.28452     0.36    Cu
Cu     0.14226  0.85774     0.36    Cu
C        0.145   0.4214  0.95777     C
C        0.145   0.7236  0.95777     C
O      0.14667  0.44183   0.3314     O
O      0.14667  0.70483   0.3314     O
C      0.14883  0.57442  0.51457     C
C      0.15423  0.30847  0.75487     C
C      0.15423  0.84577  0.75487     C
C      0.15618  0.31237  0.81807     C
C      0.15618  0.84382  0.81807     C
C      0.15675   0.3135   0.8784     C
C      0.15675  0.84325   0.8784     C
C      0.17658  0.35317  0.78827     C
C      0.17658  0.82342  0.78827     C
C      0.17715   0.3543   0.8486     C
C      0.17715  0.82285   0.8486     C
C       0.1791   0.3582   0.9118     C
C       0.1791   0.8209   0.9118     C
C       0.1845  0.09225   0.1521     C
O      0.18667  0.22483  0.33526     O
O      0.18667  0.96183  0.33526     O
C      0.18833  0.24527   0.7089     C
C      0.18833  0.94307   0.7089     C
Cu     0.19107  0.38214  0.30666    Cu
Cu     0.19107  0.80893  0.30666    Cu
H      0.19617  0.09808  0.20113     H
H      0.19867  0.09933  0.32643     H
H       0.1996   0.0998   0.1007     H
H      0.20713  0.60357  0.51447     H
C      0.20793  0.28627  0.73985     C
C      0.20793  0.92167  0.73985     C
C      0.21707  0.24303  0.30647     C
C      0.21707  0.97403  0.30647     C
C      0.21908  0.43817  0.78747     C
C      0.21908  0.78092  0.78747     C
C      0.22035   0.4407   0.8479     C
C      0.22035  0.77965   0.8479     C
C      0.22045   0.4409  0.97259     C
C      0.22045  0.77955  0.97259     C
O      0.22483  0.03817  0.66474     O
O      0.22483  0.18667  0.66474     O
C      0.22577  0.11288  0.30592     C
C      0.22597  0.11298  0.18123     C
O      0.22787  0.30573  0.29028     O
O      0.22787  0.92213  0.29028     O
C       0.2285  0.11425   0.1208     C
H      0.23353  0.46707  0.76737     H
H      0.23353  0.76647  0.76737     H
H        0.234    0.468   0.9931     H
H        0.234    0.766   0.9931     H
H      0.23525   0.4705   0.8678     H
H      0.23525  0.76475   0.8678     H
C      0.24108  0.48217  0.81877     C
C      0.24108  0.75892  0.81877     C
C      0.24303  0.02597  0.69353     C
C      0.24303  0.21707  0.69353     C
C      0.24527  0.05693   0.2911     C
C      0.24527  0.18833   0.2911     C
C        0.255   0.3804  0.92682     C
C        0.255   0.8746  0.92682     C
O      0.25547  0.36093  0.37638     O
O      0.25547  0.89453  0.37638     O
H      0.25783  0.29867  0.75037     H
H      0.25783  0.95917  0.75037     H
H      0.27023  0.54047  0.81887     H
H      0.27023  0.72977  0.81887     H
C       0.2764   0.4214  0.95777     C
C       0.2764    0.855  0.95777     C
Cu     0.28452  0.14226     0.64    Cu
C      0.28627  0.07833  0.26015     C
C      0.28627  0.20793  0.26015     C
H       0.2925    0.368   0.9163     H
H       0.2925   0.9245   0.9163     H
O      0.29517  0.44183   0.3314     O
O      0.29517  0.85333   0.3314     O
H      0.29867  0.04083  0.24963     H
H      0.29867  0.25783  0.24963     H
O      0.30573  0.07787  0.70972     O
O      0.30573  0.22787  0.70972     O
C      0.30737  0.42363  0.36019     C
C      0.30737  0.88373  0.36019     C
C      0.30847  0.15423  0.24513     C
C      0.31237  0.15618  0.18193     C
C       0.3135  0.15675   0.1216     C
C      0.35317  0.17658  0.21173     C
C       0.3543  0.17715   0.1514     C
C       0.3582   0.1791   0.0882     C
C       0.3593   0.4496  0.97314     C
C       0.3593   0.9097  0.97314     C
O      0.36093  0.10547  0.62362     O
O      0.36093  0.25547  0.62362     O
H        0.368   0.0755   0.0837     H
H        0.368   0.2925   0.0837     H
O       0.3715     0.48  0.00193     O
O       0.3715   0.8915  0.00193     O
H      0.37417  0.40883  0.41703     H
H      0.37417  0.96533  0.41703     H
C       0.3804   0.1254  0.07318     C
C       0.3804    0.255  0.07318     C
Cu     0.38214  0.19107  0.69334    Cu
C      0.39027  0.47833  0.37556     C
C      0.39027  0.91193  0.37556     C
H      0.39643  0.60357  0.51447     H
H      0.39643  0.79287  0.51447     H
H      0.40883  0.03467  0.58297     H
H      0.40883  0.37417  0.58297     H
O       0.4112   0.4388  0.95695     O
O       0.4112   0.9724  0.95695     O
C      0.41167  0.45873  0.40651     C
C      0.41167  0.95293  0.40651     C
C       0.4214    0.145  0.04223     C
C       0.4214   0.2764  0.04223     C
C      0.42363  0.11627  0.63981     C
C      0.42363  0.30737  0.63981     C
C      0.42558  0.57442  0.51457     C
C      0.42558  0.85117  0.51457     C
H      0.43142  0.56858  0.46553     H
H      0.43142  0.86283  0.46553     H
H      0.43267  0.56733  0.34023     H
H      0.43267  0.86533  0.34023     H
H      0.43313  0.56687  0.56597     H
H      0.43313  0.86627  0.56597     H
C      0.43817  0.21908  0.21253     C
O       0.4388   0.0276  0.04305     O
O       0.4388   0.4112  0.04305     O
C       0.4407  0.22035   0.1521     C
C       0.4409  0.22045  0.02741     C
O      0.44183  0.14667   0.6686     O
O      0.44183  0.29517   0.6686     O
C      0.44622  0.55378  0.36074     C
C      0.44622  0.89243  0.36074     C
C      0.44632  0.55368  0.48543     C
C      0.44632  0.89263  0.48543     C
C      0.44758  0.55242  0.54587     C
C      0.44758  0.89517  0.54587     C
C       0.4496   0.0903  0.02686     C
C       0.4496   0.3593  0.02686     C
C      0.45873  0.04707  0.59349     C
C      0.45873  0.41167  0.59349     C
H      0.45953  0.72977  0.81887     H
H      0.46707  0.23353  0.23263     H
H        0.468    0.234   0.0069     H
H       0.4705  0.23525   0.1322     H
Cu     0.47559  0.52441  0.02667    Cu
Cu     0.47559  0.95119  0.02667    Cu
C      0.47833  0.08807  0.62444     C
C      0.47833  0.39027  0.62444     C
O         0.48   0.1085  0.99807     O
O         0.48   0.3715  0.99807     O
C      0.48217  0.24108  0.18123     C
C      0.48757  0.51243  0.42153     C
C      0.48757  0.97513  0.42153     C
C      0.48952  0.51048  0.48473     C
C      0.48952  0.97903  0.48473     C
C      0.49008  0.50992  0.54507     C
C      0.49008  0.98017  0.54507     C
C      0.50992  0.01983  0.45493     C
C      0.50992  0.49008  0.45493     C
C      0.51048  0.02097  0.51527     C
C      0.51048  0.48952  0.51527     C
C      0.51243  0.02487  0.57847     C
C      0.51243  0.48757  0.57847     C
C      0.51783  0.75892  0.81877     C
O         0.52   0.6285  0.00193     O
O         0.52   0.8915  0.00193     O
C      0.52167  0.60973  0.37556     C
C      0.52167  0.91193  0.37556     C
Cu     0.52441  0.04881  0.97333    Cu
Cu     0.52441  0.47559  0.97333    Cu
H       0.5295  0.76475   0.8678     H
H        0.532    0.766   0.9931     H
H      0.53293  0.76647  0.76737     H
H      0.54047  0.27023  0.18113     H
C      0.54127  0.58833  0.40651     C
C      0.54127  0.95293  0.40651     C
C       0.5504   0.6407  0.97314     C
C       0.5504   0.9097  0.97314     C
C      0.55242  0.10483  0.45413     C
C      0.55242  0.44758  0.45413     C
C      0.55368  0.10737  0.51457     C
C      0.55368  0.44632  0.51457     C
C      0.55378  0.10757  0.63926     C
C      0.55378  0.44622  0.63926     C
O      0.55817  0.70483   0.3314     O
O      0.55817  0.85333   0.3314     O
C       0.5591  0.77955  0.97259     C
C       0.5593  0.77965   0.8479     C
O       0.5612   0.5888  0.95695     O
O       0.5612   0.9724  0.95695     O
C      0.56183  0.78092  0.78747     C
H      0.56687  0.13373  0.43403     H
H      0.56687  0.43313  0.43403     H
H      0.56733  0.13467  0.65977     H
H      0.56733  0.43267  0.65977     H
H      0.56858  0.13717  0.53447     H
H      0.56858  0.43142  0.53447     H
C      0.57442  0.14883  0.48543     C
C      0.57442  0.42558  0.48543     C
C      0.57637  0.69263  0.36019     C
C      0.57637  0.88373  0.36019     C
C       0.5786   0.7236  0.95777     C
C       0.5786    0.855  0.95777     C
C      0.58833  0.04707  0.59349     C
C      0.58833  0.54127  0.59349     C
O       0.5888   0.0276  0.04305     O
O       0.5888   0.5612  0.04305     O
H      0.59117  0.62583  0.41703     H
H      0.59117  0.96533  0.41703     H
H      0.60357  0.20713  0.48553     H
H      0.60357  0.39643  0.48553     H
C      0.60973  0.08807  0.62444     C
C      0.60973  0.52167  0.62444     C
Cu     0.61786  0.80893  0.30666    Cu
C       0.6196    0.745  0.92682     C
C       0.6196   0.8746  0.92682     C
H      0.62583  0.03467  0.58297     H
H      0.62583  0.59117  0.58297     H
O       0.6285   0.1085  0.99807     O
O       0.6285     0.52  0.99807     O
H        0.632   0.7075   0.9163     H
H        0.632   0.9245   0.9163     H
O      0.63907  0.74453  0.37638     O
O      0.63907  0.89453  0.37638     O
C       0.6407   0.0903  0.02686     C
C       0.6407   0.5504  0.02686     C
C       0.6418   0.8209   0.9118     C
C       0.6457  0.82285   0.8486     C
C      0.64683  0.82342  0.78827     C
C       0.6865  0.84325   0.8784     C
C      0.68763  0.84382  0.81807     C
C      0.69153  0.84577  0.75487     C
C      0.69263  0.11627  0.63981     C
C      0.69263  0.57637  0.63981     C
O      0.69427  0.77213  0.29028     O
O      0.69427  0.92213  0.29028     O
H      0.70133  0.74217  0.75037     H
H      0.70133  0.95917  0.75037     H
O      0.70483  0.14667   0.6686     O
O      0.70483  0.55817   0.6686     O
H       0.7075   0.0755   0.0837     H
H       0.7075    0.632   0.0837     H
C      0.71373  0.79207  0.73985     C
C      0.71373  0.92167  0.73985     C
Cu     0.71548  0.85774     0.36    Cu
C       0.7236    0.145  0.04223     C
C       0.7236   0.5786  0.04223     C
H      0.72977  0.27023  0.18113     H
H      0.72977  0.45953  0.18113     H
H      0.74217  0.04083  0.24963     H
H      0.74217  0.70133  0.24963     H
O      0.74453  0.10547  0.62362     O
O      0.74453  0.63907  0.62362     O
C        0.745   0.1254  0.07318     C
C        0.745   0.6196  0.07318     C
C      0.75473  0.81167   0.7089     C
C      0.75473  0.94307   0.7089     C
C      0.75697  0.78293  0.30647     C
C      0.75697  0.97403  0.30647     C
C      0.75892  0.24108  0.18123     C
C      0.75892  0.51783  0.18123     C
H      0.76475  0.23525   0.1322     H
H      0.76475   0.5295   0.1322     H
H        0.766    0.234   0.0069     H
H        0.766    0.532   0.0069     H
H      0.76647  0.23353  0.23263     H
H      0.76647  0.53293  0.23263     H
C       0.7715  0.88575   0.8792     C
O      0.77213  0.07787  0.70972     O
O      0.77213  0.69427  0.70972     O
C      0.77403  0.88702  0.81877     C
C      0.77423  0.88712  0.69408     C
O      0.77517  0.81333  0.33526     O
O      0.77517  0.96183  0.33526     O
C      0.77955  0.22045  0.02741     C
C      0.77955   0.5591  0.02741     C
C      0.77965  0.22035   0.1521     C
C      0.77965   0.5593   0.1521     C
C      0.78092  0.21908  0.21253     C
C      0.78092  0.56183  0.21253     C
C      0.78293  0.02597  0.69353     C
C      0.78293  0.75697  0.69353     C
C      0.79207  0.07833  0.26015     C
C      0.79207  0.71373  0.26015     C
H      0.79287  0.39643  0.48553     H
H       0.8004   0.9002   0.8993     H
H      0.80133  0.90067  0.67357     H
H      0.80383  0.90192  0.79887     H
Cu     0.80893  0.19107  0.69334    Cu
Cu     0.80893  0.61786  0.69334    Cu
C      0.81167  0.05693   0.2911     C
C      0.81167  0.75473   0.2911     C
O      0.81333  0.03817  0.66474     O
O      0.81333  0.77517  0.66474     O
C       0.8155  0.90775   0.8479     C
C       0.8209   0.1791   0.0882     C
C       0.8209   0.6418   0.0882     C
C      0.82285  0.17715   0.1514     C
C      0.82285   0.6457   0.1514     C
C      0.82342  0.17658  0.21173     C
C      0.82342  0.64683  0.21173     C
C      0.84325  0.15675   0.1216     C
C      0.84325   0.6865   0.1216     C
C      0.84382  0.15618  0.18193     C
C      0.84382  0.68763  0.18193     C
C      0.84577  0.15423  0.24513     C
C      0.84577  0.69153  0.24513     C
C      0.85117  0.42558  0.48543     C
O      0.85333  0.29517   0.6686     O
O      0.85333  0.55817   0.6686     O
C        0.855   0.2764  0.04223     C
C        0.855   0.5786  0.04223     C
Cu     0.85774  0.14226     0.64    Cu
Cu     0.85774  0.71548     0.64    Cu
H      0.86283  0.43142  0.53447     H
H      0.86533  0.43267  0.65977     H
H      0.86627  0.43313  0.43403     H
H       0.8738   0.9369   0.8478     H
C       0.8746    0.255  0.07318     C
C       0.8746   0.6196  0.07318     C
C      0.88373  0.30737  0.63981     C
C      0.88373  0.57637  0.63981     C
C      0.88575  0.11425   0.1208     C
C      0.88575   0.7715   0.1208     C
C      0.88702  0.11298  0.18123     C
C      0.88702  0.77403  0.18123     C
C      0.88712  0.11288  0.30592     C
C      0.88712  0.77423  0.30592     C
O       0.8915   0.3715  0.99807     O
O       0.8915     0.52  0.99807     O
C      0.89243  0.44622  0.63926     C
C      0.89263  0.44632  0.51457     C
O      0.89453  0.25547  0.62362     O
O      0.89453  0.63907  0.62362     O
C      0.89517  0.44758  0.45413     C
H       0.9002   0.0998   0.1007     H
H       0.9002   0.8004   0.1007     H
H      0.90067  0.09933  0.32643     H
H      0.90067  0.80133  0.32643     H
H      0.90192  0.09808  0.20113     H
H      0.90192  0.80383  0.20113     H
C      0.90775  0.09225   0.1521     C
C      0.90775   0.8155   0.1521     C
C       0.9097   0.3593  0.02686     C
C       0.9097   0.5504  0.02686     C
C      0.91193  0.39027  0.62444     C
C      0.91193  0.52167  0.62444     C
C      0.92167  0.20793  0.26015     C
C      0.92167  0.71373  0.26015     C
O      0.92213  0.22787  0.70972     O
O      0.92213  0.69427  0.70972     O
H       0.9245   0.2925   0.0837     H
H       0.9245    0.632   0.0837     H
H       0.9369   0.0631   0.1522     H
H       0.9369   0.8738   0.1522     H
C      0.94307  0.18833   0.2911     C
C      0.94307  0.75473   0.2911     C
Cu     0.95119   0.4756  0.97333    Cu
C      0.95293  0.41167  0.59349     C
C      0.95293  0.54127  0.59349     C
H      0.95917  0.25783  0.24963     H
H      0.95917  0.70133  0.24963     H
O      0.96183  0.18667  0.66474     O
O      0.96183  0.77517  0.66474     O
H      0.96533  0.37417  0.58297     H
H      0.96533  0.59117  0.58297     H
O       0.9724   0.4112  0.04305     O
O       0.9724   0.5612  0.04305     O
C      0.97403  0.21707  0.69353     C
C      0.97403  0.75697  0.69353     C
C      0.97513  0.48757  0.57847     C
C      0.97903  0.48952  0.51527     C
C      0.98017  0.49008  0.45493     C
