data_I
_chemical_name_common  '/home/zhangsd/repos/MofS-CGCNN/ML/data/SSD/clean_cifs/MABLAD_clean'
_cell_length_a  9.52300
_cell_length_b 11.35550
_cell_length_c 25.87400
_cell_angle_alpha 87.40440
_cell_angle_beta  83.79990
_cell_angle_gamma 65.20880
_space_group_name_H-M_alt      'P 1'


loop_
_space_group_symop_operation_xyz
  'x, y, z' 

loop_
_atom_site_label
_atom_site_fract_x
_atom_site_fract_y
_atom_site_fract_z
_atom_site_type_symbol
H       0.0091   0.6564   0.3135     H
H       0.0109   0.5358   0.2426     H
H       0.0214   0.4994   0.8429     H
H       0.0345   0.1334   0.9845     H
H       0.0409   0.7234   0.7143     H
O        0.041   0.6954   0.5656     O
O       0.0447   0.4728   0.0602     O
C       0.0463   0.5372   0.1631     C
C       0.0534   0.2694   0.2956     C
C       0.0656    0.683   0.6132     C
C       0.0679   0.2808   0.3472     C
C       0.0699    0.553   0.2147     C
H       0.0773   0.6432   0.3973     H
C       0.0917   0.5574   0.0675     C
N       0.0934   0.2074   0.0407     N
Co     0.10253  0.60554  0.95575    Co
C       0.1086   0.1148    0.008     C
C       0.1134   0.6274   0.3188     C
C       0.1201   0.5738    0.122     C
O       0.1223   0.6214   0.0322     O
H       0.1341   0.4578   0.4981     H
H       0.1389   0.2578   0.4919     H
C       0.1541   0.6184   0.3694     C
O        0.161   0.6388   0.8735     O
H       0.1651   0.2364   0.2236     H
H       0.1679   0.8666   0.4845     H
H       0.1721   0.0658    0.482     H
C       0.1767   0.2474    0.258     C
C       0.1837    0.595   0.2231     C
H       0.1864   0.2406   0.0967     H
C       0.1951   0.1778   0.0732     C
C       0.1996   0.2712   0.5148     C
O       0.2002   0.6388   0.6265     O
C       0.2005   0.3906   0.5176     C
C       0.2102   0.2712   0.3601     C
C        0.221    0.006   0.5073     C
C       0.2213    0.595   0.2769     C
C       0.2234   0.8852    0.508     C
H       0.2247   0.2798   0.3945     H
H       0.2256   0.3426   0.9008     H
C        0.227    0.994   0.0073     C
C       0.2275   0.6184   0.1306     C
H       0.2357   0.7234   0.7857     H
H       0.2379   0.9342    0.982     H
C       0.2514    0.683   0.8868     C
O       0.2563   0.6214   0.4678     O
C       0.2592   0.6274   0.1812     C
O       0.2636   0.6954   0.9344     O
H       0.2795   0.6432   0.1027     H
C       0.2856   0.1724   0.5449     C
C       0.2909   0.0388   0.5439     C
Co     0.29193  0.60554  0.54425    Co
N        0.292   0.4156   0.5468     N
N       0.2924   0.4156   0.9532     N
N       0.3008   0.7926   0.5407     N
C       0.3017   0.3246   0.9235     C
C       0.3061   0.5738    0.378     C
C       0.3161   0.0578   0.0749     C
C       0.3203   0.2416    0.271     C
C       0.3228   0.7306   0.7956     C
C       0.3274   0.2492   0.3219     C
C       0.3297   0.9612   0.0439     C
H       0.3345   0.6564   0.1865     H
H       0.3391   0.2382   0.1678     H
C       0.3487   0.7192   0.8472     C
C       0.3509   0.5574   0.4325     C
C       0.3729   0.8222   0.5732     C
C       0.3737   0.3246   0.5765     C
C       0.3739   0.9422   0.5749     C
C       0.3771    0.553   0.2853     C
C       0.3786   0.1988   0.5762     C
H       0.3902   0.0428    0.098     H
H       0.3967   0.7422   0.9919     H
H       0.4015   0.7636   0.7236     H
H       0.4081   0.4578   0.0019     H
C       0.4089   0.3906   0.9824     C
C       0.4165   0.5372   0.3369     C
H       0.4217   0.1338   0.9033     H
C       0.4226   0.1988   0.9238     C
H       0.4227   0.2382   0.3322     H
C       0.4234   0.2492   0.1781     C
C       0.4241   0.7526    0.758     C
H        0.427   0.7594   0.5967     H
H       0.4318   0.3426   0.5992     H
H        0.433   0.9572    0.598     H
C       0.4381   0.2416    0.229     C
H       0.4445   0.1338   0.5967     H
H       0.4533   0.5358   0.2574     H
C        0.458   0.8276   0.0449     C
C       0.4708   0.7288   0.0148     C
H       0.4792   0.4994   0.6571     H
C       0.4814   0.7288   0.8601     C
O       0.4825   0.4728   0.4398     O
H       0.4955   0.2798   0.1055     H
H       0.5045   0.7202   0.8945     H
O       0.5175   0.5272   0.5602     O
C       0.5186   0.2712   0.1399     C
H       0.5208   0.5006   0.3429     H
C       0.5292   0.2712   0.9852     C
C        0.542   0.1724   0.9551     C
H       0.5467   0.4642   0.7426     H
H       0.5555   0.8662   0.4033     H
C       0.5619   0.7584    0.771     C
H        0.567   0.0428    0.402     H
H       0.5682   0.6574   0.4008     H
H        0.573   0.2406   0.4033     H
C       0.5759   0.2474    0.242     C
C       0.5766   0.7508   0.8219     C
H       0.5773   0.7618   0.6678     H
C       0.5774   0.8012   0.0762     C
H       0.5783   0.8662   0.0967     H
C       0.5835   0.4628   0.6631     C
C       0.5911   0.6094   0.0176     C
H       0.5919   0.5422   0.9981     H
H       0.5985   0.2364   0.2764     H
H       0.6033   0.2578   0.0081     H
H       0.6098   0.9572    0.902     H
C       0.6214   0.8012   0.4238     C
C       0.6229    0.447   0.7147     C
C       0.6261   0.0578   0.4251     C
C       0.6263   0.6754   0.4235     C
C       0.6271   0.1778   0.4268     C
C       0.6491   0.4426   0.5675     C
C       0.6513   0.2808   0.1528     C
H       0.6609   0.7618   0.8322     H
H       0.6655   0.3436   0.8135     H
C       0.6703   0.0388   0.9561     C
C       0.6726   0.7508   0.6781     C
C       0.6772   0.2694   0.2044     C
C       0.6797   0.7584    0.729     C
C       0.6839   0.9422   0.9251     C
C       0.6939   0.4262    0.622     C
C       0.6983   0.6754   0.0765     C
N       0.6992   0.2074   0.4593     N
N       0.7076   0.5844   0.0468     N
N        0.708   0.5844   0.4532     N
Co     0.70807  0.39446  0.45575    Co
C       0.7091   0.9612   0.4561     C
C       0.7144   0.8276   0.4551     C
H       0.7205   0.3568   0.8973     H
O       0.7364   0.3046   0.0656     O
C       0.7408   0.3726   0.8188     C
O       0.7437   0.3786   0.5322     O
C       0.7486    0.317   0.1132     C
H       0.7621   0.0658    0.018     H
H       0.7643   0.2766   0.2143     H
C       0.7725   0.3816   0.8694     C
C        0.773    0.006   0.9927     C
H       0.7744   0.6574   0.0992     H
H       0.7753   0.7202   0.6055     H
C       0.7766   0.1148    0.492     C
C       0.7787    0.405   0.7231     C
C        0.779    0.994   0.4927     C
C       0.7898   0.7288   0.6399     C
C       0.7995   0.6094   0.4824     C
O       0.7998   0.3612   0.3735     O
C       0.8004   0.7288   0.4852     C
C       0.8049   0.8222   0.9268     C
H       0.8136   0.7594   0.9033     H
C       0.8163    0.405   0.7769     C
C       0.8233   0.7526    0.742     C
H       0.8279   0.9342    0.518     H
H       0.8321   0.1334   0.5155     H
H       0.8349   0.7636   0.7764     H
O        0.839   0.3612   0.1265     O
C       0.8459   0.3816   0.6306     C
H       0.8611   0.7422   0.5081     H
H       0.8659   0.5422   0.5019     H
O       0.8777   0.3786   0.9678     O
C       0.8799   0.4262    0.878     C
C       0.8866   0.3726   0.6812     C
C       0.8914   0.8852    0.992     C
Co     0.89747  0.39446  0.04425    Co
N       0.9066   0.7926   0.9593     N
C       0.9083   0.4426   0.9325     C
H       0.9227   0.3568   0.6027     H
C       0.9301    0.447   0.7853     C
C       0.9321   0.7192   0.6528     C
C       0.9344    0.317   0.3868     C
C       0.9466   0.7306   0.7044     C
C       0.9537   0.4628   0.8369     C
O       0.9553   0.5272   0.9398     O
O        0.959   0.3046   0.4344     O
H       0.9591   0.2766   0.2857     H
H       0.9655   0.8666   0.0155     H
H       0.9786   0.5006   0.1571     H
H       0.9891   0.4642   0.7574     H
H       0.9909   0.3436   0.6865     H
