data_I
_chemical_name_common  '/home/zhangsd/repos/MofS-CGCNN/ML/data/SSD/clean_cifs/MAGVOG11_clean'
_cell_length_a 20.79600
_cell_length_b 19.48500
_cell_length_c  5.97200
_cell_angle_alpha 90.00000
_cell_angle_beta  114.09600
_cell_angle_gamma 90.00000
_space_group_name_H-M_alt      'P 1'


loop_
_space_group_symop_operation_xyz
  'x, y, z' 

loop_
_atom_site_label
_atom_site_fract_x
_atom_site_fract_y
_atom_site_fract_z
_atom_site_type_symbol
Ag         0.0      0.0      0.0    Ag
Ag         0.0      0.0      0.5    Ag
Ag         0.0      0.5      0.0    Ag
Ag         0.0      0.5      0.5    Ag
H       0.0552   0.1458   0.9441     H
H       0.0552   0.8542   0.4441     H
H       0.0619   0.3717   0.5157     H
H       0.0619   0.6283   0.0157     H
H       0.0789   0.4141    0.323     H
H       0.0789   0.5859    0.823     H
H       0.0804   0.0958   0.7879     H
H       0.0804   0.9042   0.2879     H
C       0.0906   0.1124    0.952     C
C       0.0906   0.8876    0.452     C
N       0.0932    0.055    0.119     N
N       0.0932    0.945    0.619     N
C       0.0974   0.3997    0.493     C
C       0.0974   0.6003    0.993     C
H       0.1028   0.0719   0.2692     H
H       0.1028   0.9281   0.7692     H
N        0.112   0.4598    0.651     N
N        0.112   0.5402    0.151     N
H       0.1187   0.2701   0.3875     H
H       0.1187   0.7299   0.8875     H
H       0.1233   0.2248    0.872     H
H       0.1233   0.7752    0.372     H
H       0.1281   0.4487   0.8107     H
H       0.1281   0.5513   0.3107     H
H       0.1285   0.0264   0.1308     H
H       0.1285   0.9736   0.6308     H
H       0.1378   0.3138   0.2245     H
H       0.1378   0.6862   0.7245     H
H       0.1419   0.4892   0.6262     H
H       0.1419   0.5108   0.1262     H
H       0.1499   0.1766   0.7435     H
H       0.1499   0.8234   0.2435     H
N        0.152   0.2989     0.38     N
N        0.152   0.7011     0.88     N
N        0.159   0.1961     0.89     N
N        0.159   0.8039     0.39     N
C       0.1632   0.3575    0.551     C
C       0.1632   0.6425    0.051     C
C       0.1636    0.143    0.067     C
C       0.1636    0.857    0.567     C
H       0.1731   0.1624   0.2273     H
H       0.1731   0.8376   0.7273     H
H       0.1793   0.3401   0.7175     H
H       0.1793   0.6599   0.2175     H
H       0.1995   0.1094   0.0823     H
H       0.1995   0.8906   0.5823     H
H       0.1999   0.3868   0.5434     H
H       0.1999   0.6132   0.0434     H
Ag        0.25     0.25      0.0    Ag
Ag        0.25     0.25      0.5    Ag
Ag        0.25     0.75      0.0    Ag
Ag        0.25     0.75      0.5    Ag
H       0.3001   0.1132   0.4566     H
H       0.3001   0.8868   0.9566     H
H       0.3005   0.3906   0.9177     H
H       0.3005   0.6094   0.4177     H
H       0.3207   0.1599   0.2825     H
H       0.3207   0.8401   0.7825     H
H       0.3269   0.3376   0.7727     H
H       0.3269   0.6624   0.2727     H
C       0.3364    0.357    0.933     C
C       0.3364    0.643    0.433     C
C       0.3368   0.1425    0.449     C
C       0.3368   0.8575    0.949     C
N        0.341   0.3039     0.11     N
N        0.341   0.6961     0.61     N
N        0.348   0.2011     0.62     N
N        0.348   0.7989     0.12     N
H       0.3501   0.3234   0.2565     H
H       0.3501   0.6766   0.7565     H
H       0.3581   0.0108   0.3738     H
H       0.3581   0.9892   0.8738     H
H       0.3622   0.1862   0.7755     H
H       0.3622   0.8138   0.2755     H
H       0.3715   0.4736   0.8692     H
H       0.3715   0.5264   0.3692     H
H       0.3719   0.0513   0.1893     H
H       0.3719   0.9487   0.6893     H
H       0.3767   0.2752    0.128     H
H       0.3767   0.7248    0.628     H
H       0.3813   0.2299   0.6125     H
H       0.3813   0.7701   0.1125     H
N        0.388   0.0402    0.349     N
N        0.388   0.9598    0.849     N
H       0.3972   0.4281   0.7308     H
H       0.3972   0.5719   0.2308     H
C       0.4026   0.1003    0.507     C
C       0.4026   0.8997    0.007     C
N       0.4068    0.445    0.881     N
N       0.4068    0.555    0.381     N
C       0.4094   0.3876    0.048     C
C       0.4094   0.6124    0.548     C
H       0.4196   0.4042   0.2121     H
H       0.4196   0.5958   0.7121     H
H       0.4211   0.0859    0.677     H
H       0.4211   0.9141    0.177     H
H       0.4381   0.1283   0.4843     H
H       0.4381   0.8717   0.9843     H
H       0.4448   0.3542   0.0559     H
H       0.4448   0.6458   0.5559     H
Ag         0.5      0.0      0.0    Ag
Ag         0.5      0.0      0.5    Ag
Ag         0.5      0.5      0.0    Ag
Ag         0.5      0.5      0.5    Ag
H       0.5552   0.3542   0.4441     H
H       0.5552   0.6458   0.9441     H
H       0.5619   0.1283   0.0157     H
H       0.5619   0.8717   0.5157     H
H       0.5789   0.0859    0.823     H
H       0.5789   0.9141    0.323     H
H       0.5804   0.4042   0.2879     H
H       0.5804   0.5958   0.7879     H
C       0.5906   0.3876    0.452     C
C       0.5906   0.6124    0.952     C
N       0.5932    0.445    0.619     N
N       0.5932    0.555    0.119     N
C       0.5974   0.1003    0.993     C
C       0.5974   0.8997    0.493     C
H       0.6028   0.4281   0.7692     H
H       0.6028   0.5719   0.2692     H
N        0.612   0.0402    0.151     N
N        0.612   0.9598    0.651     N
H       0.6187   0.2299   0.8875     H
H       0.6187   0.7701   0.3875     H
H       0.6233   0.2752    0.372     H
H       0.6233   0.7248    0.872     H
H       0.6281   0.0513   0.3107     H
H       0.6281   0.9487   0.8107     H
H       0.6285   0.4736   0.6308     H
H       0.6285   0.5264   0.1308     H
H       0.6378   0.1862   0.7245     H
H       0.6378   0.8138   0.2245     H
H       0.6419   0.0108   0.1262     H
H       0.6419   0.9892   0.6262     H
H       0.6499   0.3234   0.2435     H
H       0.6499   0.6766   0.7435     H
N        0.652   0.2011     0.88     N
N        0.652   0.7989     0.38     N
N        0.659   0.3039     0.39     N
N        0.659   0.6961     0.89     N
C       0.6632   0.1425    0.051     C
C       0.6632   0.8575    0.551     C
C       0.6636    0.357    0.567     C
C       0.6636    0.643    0.067     C
H       0.6731   0.3376   0.7273     H
H       0.6731   0.6624   0.2273     H
H       0.6793   0.1599   0.2175     H
H       0.6793   0.8401   0.7175     H
H       0.6995   0.3906   0.5823     H
H       0.6995   0.6094   0.0823     H
H       0.6999   0.1132   0.0434     H
H       0.6999   0.8868   0.5434     H
Ag        0.75     0.25      0.0    Ag
Ag        0.75     0.25      0.5    Ag
Ag        0.75     0.75      0.0    Ag
Ag        0.75     0.75      0.5    Ag
H       0.8001   0.3868   0.9566     H
H       0.8001   0.6132   0.4566     H
H       0.8005   0.1094   0.4177     H
H       0.8005   0.8906   0.9177     H
H       0.8207   0.3401   0.7825     H
H       0.8207   0.6599   0.2825     H
H       0.8269   0.1624   0.2727     H
H       0.8269   0.8376   0.7727     H
C       0.8364    0.143    0.433     C
C       0.8364    0.857    0.933     C
C       0.8368   0.3575    0.949     C
C       0.8368   0.6425    0.449     C
N        0.841   0.1961     0.61     N
N        0.841   0.8039     0.11     N
N        0.848   0.2989     0.12     N
N        0.848   0.7011     0.62     N
H       0.8501   0.1766   0.7565     H
H       0.8501   0.8234   0.2565     H
H       0.8581   0.4892   0.8738     H
H       0.8581   0.5108   0.3738     H
H       0.8622   0.3138   0.2755     H
H       0.8622   0.6862   0.7755     H
H       0.8715   0.0264   0.3692     H
H       0.8715   0.9736   0.8692     H
H       0.8719   0.4487   0.6893     H
H       0.8719   0.5513   0.1893     H
H       0.8767   0.2248    0.628     H
H       0.8767   0.7752    0.128     H
H       0.8813   0.2701   0.1125     H
H       0.8813   0.7299   0.6125     H
N        0.888   0.4598    0.849     N
N        0.888   0.5402    0.349     N
H       0.8972   0.0719   0.2308     H
H       0.8972   0.9281   0.7308     H
C       0.9026   0.3997    0.007     C
C       0.9026   0.6003    0.507     C
N       0.9068    0.055    0.381     N
N       0.9068    0.945    0.881     N
C       0.9094   0.1124    0.548     C
C       0.9094   0.8876    0.048     C
H       0.9196   0.0958   0.7121     H
H       0.9196   0.9042   0.2121     H
H       0.9211   0.4141    0.177     H
H       0.9211   0.5859    0.677     H
H       0.9381   0.3717   0.9843     H
H       0.9381   0.6283   0.4843     H
H       0.9448   0.1458   0.5559     H
H       0.9448   0.8542   0.0559     H
