data_I
_chemical_name_common  '/home/zhangsd/repos/MofS-CGCNN/ML/data/SSD/clean_cifs/MAGVOG22_clean'
_cell_length_a 10.16450
_cell_length_b 10.70480
_cell_length_c  6.20490
_cell_angle_alpha 90.00000
_cell_angle_beta  114.27700
_cell_angle_gamma 90.00000
_space_group_name_H-M_alt      'P 1'


loop_
_space_group_symop_operation_xyz
  'x, y, z' 

loop_
_atom_site_label
_atom_site_fract_x
_atom_site_fract_y
_atom_site_fract_z
_atom_site_type_symbol
Ag         0.0      0.5      0.0    Ag
Ag         0.0      0.5      0.5    Ag
H        0.099   0.2342   0.4348     H
H        0.099   0.7658   0.9348     H
H       0.1656   0.3245   0.2999     H
H       0.1656   0.6755   0.7999     H
C        0.182   0.2887    0.456     C
C        0.182   0.7113    0.956     C
N       0.1895   0.3912   0.6203     N
N       0.1895   0.6088   0.1203     N
H       0.2052   0.3578   0.7655     H
H       0.2052   0.6422   0.2655     H
H       0.2333   0.0582   0.3603     H
H       0.2333   0.9418   0.8603     H
H       0.2667   0.4418   0.6397     H
H       0.2667   0.5582   0.1397     H
H       0.2948   0.1422   0.2345     H
H       0.2948   0.8578   0.7345     H
N       0.3105   0.1088   0.3797     N
N       0.3105   0.8912   0.8797     N
C        0.318   0.2113    0.544     C
C        0.318   0.7887    0.044     C
H       0.3344   0.1755   0.7001     H
H       0.3344   0.8245   0.2001     H
H        0.401   0.2658   0.5652     H
H        0.401   0.7342   0.0652     H
Ag         0.5      0.0      0.0    Ag
Ag         0.5      0.0      0.5    Ag
H        0.599   0.2658   0.9348     H
H        0.599   0.7342   0.4348     H
H       0.6656   0.1755   0.7999     H
H       0.6656   0.8245   0.2999     H
C        0.682   0.2113    0.956     C
C        0.682   0.7887    0.456     C
N       0.6895   0.1088   0.1203     N
N       0.6895   0.8912   0.6203     N
H       0.7052   0.1422   0.2655     H
H       0.7052   0.8578   0.7655     H
H       0.7333   0.4418   0.8603     H
H       0.7333   0.5582   0.3603     H
H       0.7667   0.0582   0.1397     H
H       0.7667   0.9418   0.6397     H
H       0.7948   0.3578   0.7345     H
H       0.7948   0.6422   0.2345     H
N       0.8105   0.3912   0.8797     N
N       0.8105   0.6088   0.3797     N
C        0.818   0.2887    0.044     C
C        0.818   0.7113    0.544     C
H       0.8344   0.3245   0.2001     H
H       0.8344   0.6755   0.7001     H
H        0.901   0.2342   0.0652     H
H        0.901   0.7658   0.5652     H
