data_I
_chemical_name_common  '/home/zhangsd/repos/MofS-CGCNN/ML/data/SSD/clean_cifs/MAGVOG26_clean'
_cell_length_a 10.25510
_cell_length_b 10.63420
_cell_length_c  6.22960
_cell_angle_alpha 90.00000
_cell_angle_beta  114.56800
_cell_angle_gamma 90.00000
_space_group_name_H-M_alt      'P 1'


loop_
_space_group_symop_operation_xyz
  'x, y, z' 

loop_
_atom_site_label
_atom_site_fract_x
_atom_site_fract_y
_atom_site_fract_z
_atom_site_type_symbol
Ag         0.0      0.5      0.0    Ag
Ag         0.0      0.5      0.5    Ag
H       0.0994    0.234   0.4304     H
H       0.0994    0.766   0.9304     H
H       0.1671   0.3259   0.3001     H
H       0.1671   0.6741   0.8001     H
C       0.1823    0.289   0.4546     C
C       0.1823    0.711   0.9546     C
N       0.1892   0.3909   0.6198     N
N       0.1892   0.6091   0.1198     N
H        0.205   0.3564    0.764     H
H        0.205   0.6436    0.264     H
H       0.2344   0.0576   0.3595     H
H       0.2344   0.9424   0.8595     H
H       0.2656   0.4424   0.6405     H
H       0.2656   0.5576   0.1405     H
H        0.295   0.1436    0.236     H
H        0.295   0.8564    0.736     H
N       0.3108   0.1091   0.3802     N
N       0.3108   0.8909   0.8802     N
C       0.3177    0.211   0.5454     C
C       0.3177    0.789   0.0454     C
H       0.3329   0.1741   0.6999     H
H       0.3329   0.8259   0.1999     H
H       0.4006    0.266   0.5696     H
H       0.4006    0.734   0.0696     H
Ag         0.5      0.0      0.0    Ag
Ag         0.5      0.0      0.5    Ag
H       0.5994    0.266   0.9304     H
H       0.5994    0.734   0.4304     H
H       0.6671   0.1741   0.8001     H
H       0.6671   0.8259   0.3001     H
C       0.6823    0.211   0.9546     C
C       0.6823    0.789   0.4546     C
N       0.6892   0.1091   0.1198     N
N       0.6892   0.8909   0.6198     N
H        0.705   0.1436    0.264     H
H        0.705   0.8564    0.764     H
H       0.7344   0.4424   0.8595     H
H       0.7344   0.5576   0.3595     H
H       0.7656   0.0576   0.1405     H
H       0.7656   0.9424   0.6405     H
H        0.795   0.3564    0.736     H
H        0.795   0.6436    0.236     H
N       0.8108   0.3909   0.8802     N
N       0.8108   0.6091   0.3802     N
C       0.8177    0.289   0.0454     C
C       0.8177    0.711   0.5454     C
H       0.8329   0.3259   0.1999     H
H       0.8329   0.6741   0.6999     H
H       0.9006    0.234   0.0696     H
H       0.9006    0.766   0.5696     H
