data_I
_chemical_name_common  '/home/zhangsd/repos/MofS-CGCNN/ML/data/SSD/clean_cifs/MAGVOG28_clean'
_cell_length_a 10.29970
_cell_length_b 10.61070
_cell_length_c  6.24300
_cell_angle_alpha 90.00000
_cell_angle_beta  114.71300
_cell_angle_gamma 90.00000
_space_group_name_H-M_alt      'P 1'


loop_
_space_group_symop_operation_xyz
  'x, y, z' 

loop_
_atom_site_label
_atom_site_fract_x
_atom_site_fract_y
_atom_site_fract_z
_atom_site_type_symbol
Ag         0.0      0.5      0.0    Ag
Ag         0.0      0.5      0.5    Ag
H       0.1007   0.2345   0.4288     H
H       0.1007   0.7655   0.9288     H
H       0.1681   0.3263   0.3025     H
H       0.1681   0.6737   0.8025     H
C       0.1826   0.2891   0.4545     C
C       0.1826   0.7109   0.9545     C
N       0.1888   0.3905   0.6197     N
N       0.1888   0.6095   0.1197     N
H       0.2041   0.3558   0.7616     H
H       0.2041   0.6442   0.2616     H
H       0.2358   0.0583   0.3583     H
H       0.2358   0.9417   0.8583     H
H       0.2642   0.4417   0.6417     H
H       0.2642   0.5583   0.1417     H
H       0.2959   0.1442   0.2384     H
H       0.2959   0.8558   0.7384     H
N       0.3112   0.1095   0.3803     N
N       0.3112   0.8905   0.8803     N
C       0.3174   0.2109   0.5455     C
C       0.3174   0.7891   0.0455     C
H       0.3319   0.1737   0.6975     H
H       0.3319   0.8263   0.1975     H
H       0.3993   0.2655   0.5712     H
H       0.3993   0.7345   0.0712     H
Ag         0.5      0.0      0.0    Ag
Ag         0.5      0.0      0.5    Ag
H       0.6007   0.2655   0.9288     H
H       0.6007   0.7345   0.4288     H
H       0.6681   0.1737   0.8025     H
H       0.6681   0.8263   0.3025     H
C       0.6826   0.2109   0.9545     C
C       0.6826   0.7891   0.4545     C
N       0.6888   0.1095   0.1197     N
N       0.6888   0.8905   0.6197     N
H       0.7041   0.1442   0.2616     H
H       0.7041   0.8558   0.7616     H
H       0.7358   0.4417   0.8583     H
H       0.7358   0.5583   0.3583     H
H       0.7642   0.0583   0.1417     H
H       0.7642   0.9417   0.6417     H
H       0.7959   0.3558   0.7384     H
H       0.7959   0.6442   0.2384     H
N       0.8112   0.3905   0.8803     N
N       0.8112   0.6095   0.3803     N
C       0.8174   0.2891   0.0455     C
C       0.8174   0.7109   0.5455     C
H       0.8319   0.3263   0.1975     H
H       0.8319   0.6737   0.6975     H
H       0.8993   0.2345   0.0712     H
H       0.8993   0.7655   0.5712     H
