data_I
_chemical_name_common  '/home/zhangsd/repos/MofS-CGCNN/ML/data/SSD/clean_cifs/MAGVOG30_clean'
_cell_length_a 10.34280
_cell_length_b 10.57490
_cell_length_c  6.25970
_cell_angle_alpha 90.00000
_cell_angle_beta  114.85200
_cell_angle_gamma 90.00000
_space_group_name_H-M_alt      'P 1'


loop_
_space_group_symop_operation_xyz
  'x, y, z' 

loop_
_atom_site_label
_atom_site_fract_x
_atom_site_fract_y
_atom_site_fract_z
_atom_site_type_symbol
Ag         0.0      0.5      0.0    Ag
Ag         0.0      0.5      0.5    Ag
H       0.1011   0.2344   0.4266     H
H       0.1011   0.7656   0.9266     H
H       0.1692   0.3271   0.3031     H
H       0.1692   0.6729   0.8031     H
C       0.1829   0.2893   0.4541     C
C       0.1829   0.7107   0.9541     C
N       0.1885   0.3902   0.6193     N
N       0.1885   0.6098   0.1193     N
H       0.2037   0.3549   0.7604     H
H       0.2037   0.6451   0.2604     H
H       0.2364   0.0582   0.3578     H
H       0.2364   0.9418   0.8578     H
H       0.2636   0.4418   0.6422     H
H       0.2636   0.5582   0.1422     H
H       0.2963   0.1451   0.2396     H
H       0.2963   0.8549   0.7396     H
N       0.3115   0.1098   0.3807     N
N       0.3115   0.8902   0.8807     N
C       0.3171   0.2107   0.5459     C
C       0.3171   0.7893   0.0459     C
H       0.3308   0.1729   0.6969     H
H       0.3308   0.8271   0.1969     H
H       0.3989   0.2656   0.5734     H
H       0.3989   0.7344   0.0734     H
Ag         0.5      0.0      0.0    Ag
Ag         0.5      0.0      0.5    Ag
H       0.6011   0.2656   0.9266     H
H       0.6011   0.7344   0.4266     H
H       0.6692   0.1729   0.8031     H
H       0.6692   0.8271   0.3031     H
C       0.6829   0.2107   0.9541     C
C       0.6829   0.7893   0.4541     C
N       0.6885   0.1098   0.1193     N
N       0.6885   0.8902   0.6193     N
H       0.7037   0.1451   0.2604     H
H       0.7037   0.8549   0.7604     H
H       0.7364   0.4418   0.8578     H
H       0.7364   0.5582   0.3578     H
H       0.7636   0.0582   0.1422     H
H       0.7636   0.9418   0.6422     H
H       0.7963   0.3549   0.7396     H
H       0.7963   0.6451   0.2396     H
N       0.8115   0.3902   0.8807     N
N       0.8115   0.6098   0.3807     N
C       0.8171   0.2893   0.0459     C
C       0.8171   0.7107   0.5459     C
H       0.8308   0.3271   0.1969     H
H       0.8308   0.6729   0.6969     H
H       0.8989   0.2344   0.0734     H
H       0.8989   0.7656   0.5734     H
