data_I
_chemical_name_common  '/home/zhangsd/repos/MofS-CGCNN/ML/data/SSD/clean_cifs/MAGVOG35_clean'
_cell_length_a 10.43050
_cell_length_b 10.52720
_cell_length_c  6.29560
_cell_angle_alpha 90.00000
_cell_angle_beta  115.16000
_cell_angle_gamma 90.00000
_space_group_name_H-M_alt      'P 1'


loop_
_space_group_symop_operation_xyz
  'x, y, z' 

loop_
_atom_site_label
_atom_site_fract_x
_atom_site_fract_y
_atom_site_fract_z
_atom_site_type_symbol
Ag         0.0      0.5      0.0    Ag
Ag         0.0      0.5      0.5    Ag
H       0.1028   0.2348   0.4227     H
H       0.1028   0.7652   0.9227     H
H       0.1714   0.3283   0.3067     H
H       0.1714   0.6717   0.8067     H
C       0.1836   0.2896   0.4539     C
C       0.1836   0.7104   0.9539     C
N        0.187   0.3896   0.6186     N
N        0.187   0.6104   0.1186     N
H       0.2013   0.3534   0.7564     H
H       0.2013   0.6466   0.2564     H
H        0.239   0.0588   0.3556     H
H        0.239   0.9412   0.8556     H
H        0.261   0.4412   0.6444     H
H        0.261   0.5588   0.1444     H
H       0.2987   0.1466   0.2436     H
H       0.2987   0.8534   0.7436     H
N        0.313   0.1104   0.3814     N
N        0.313   0.8896   0.8814     N
C       0.3164   0.2104   0.5461     C
C       0.3164   0.7896   0.0461     C
H       0.3286   0.1717   0.6933     H
H       0.3286   0.8283   0.1933     H
H       0.3972   0.2652   0.5773     H
H       0.3972   0.7348   0.0773     H
Ag         0.5      0.0      0.0    Ag
Ag         0.5      0.0      0.5    Ag
H       0.6028   0.2652   0.9227     H
H       0.6028   0.7348   0.4227     H
H       0.6714   0.1717   0.8067     H
H       0.6714   0.8283   0.3067     H
C       0.6836   0.2104   0.9539     C
C       0.6836   0.7896   0.4539     C
N        0.687   0.1104   0.1186     N
N        0.687   0.8896   0.6186     N
H       0.7013   0.1466   0.2564     H
H       0.7013   0.8534   0.7564     H
H        0.739   0.4412   0.8556     H
H        0.739   0.5588   0.3556     H
H        0.761   0.0588   0.1444     H
H        0.761   0.9412   0.6444     H
H       0.7987   0.3534   0.7436     H
H       0.7987   0.6466   0.2436     H
N        0.813   0.3896   0.8814     N
N        0.813   0.6104   0.3814     N
C       0.8164   0.2896   0.0461     C
C       0.8164   0.7104   0.5461     C
H       0.8286   0.3283   0.1933     H
H       0.8286   0.6717   0.6933     H
H       0.8972   0.2348   0.0773     H
H       0.8972   0.7652   0.5773     H
