data_I
_chemical_name_common  '/home/zhangsd/repos/MofS-CGCNN/ML/data/SSD/clean_cifs/MAGVOG07_clean'
_cell_length_a 20.86200
_cell_length_b 19.93100
_cell_length_c  6.18950
_cell_angle_alpha 90.00000
_cell_angle_beta  114.55000
_cell_angle_gamma 90.00000
_space_group_name_H-M_alt      'P 1'


loop_
_space_group_symop_operation_xyz
  'x, y, z' 

loop_
_atom_site_label
_atom_site_fract_x
_atom_site_fract_y
_atom_site_fract_z
_atom_site_type_symbol
Ag         0.0      0.0      0.0    Ag
Ag         0.0      0.0      0.5    Ag
Ag         0.0      0.5      0.0    Ag
Ag         0.0      0.5      0.5    Ag
H       0.0475   0.3648   0.4467     H
H       0.0475   0.6352   0.9467     H
H        0.055   0.1407   0.9446     H
H        0.055   0.8593   0.4446     H
H       0.0709   0.4103   0.2852     H
H       0.0709   0.5897   0.7852     H
H       0.0827   0.0893   0.8089     H
H       0.0827   0.9107   0.3089     H
C       0.0845   0.3941    0.446     C
C       0.0845   0.6059    0.946     C
N       0.0923   0.4508    0.604     N
N       0.0923   0.5492    0.104     N
C       0.0925   0.1095    0.962     C
C       0.0925   0.8905    0.462     C
N       0.0999   0.0575    0.142     N
N       0.0999   0.9425    0.642     N
H       0.1059   0.4361   0.7536     H
H       0.1059   0.5639   0.2536     H
H       0.1068   0.0766    0.282     H
H       0.1068   0.9234    0.782     H
H       0.1146   0.2681   0.3662     H
H       0.1146   0.7319   0.8662     H
H       0.1169   0.2236   0.8733     H
H       0.1169   0.7764   0.3733     H
H       0.1257   0.4789      0.6     H
H       0.1257   0.5211      0.1     H
H       0.1349   0.3115   0.2152     H
H       0.1349   0.6885   0.7152     H
H       0.1366   0.0304   0.1647     H
H       0.1366   0.9696   0.6647     H
H       0.1413   0.1776   0.7393     H
H       0.1413   0.8224   0.2393     H
N       0.1473   0.2974    0.365     N
N       0.1473   0.7026    0.865     N
N       0.1522    0.196    0.883     N
N       0.1522    0.804    0.383     N
C       0.1524   0.3551    0.523     C
C       0.1524   0.6449    0.023     C
C       0.1631   0.1442     0.06     C
C       0.1631   0.8558     0.56     C
H       0.1656   0.3388   0.6834     H
H       0.1656   0.6612   0.1834     H
H       0.1738   0.1635   0.2153     H
H       0.1738   0.8365   0.7153     H
H       0.1894    0.385   0.5252     H
H       0.1894    0.615   0.0252     H
H       0.2006   0.1138   0.0711     H
H       0.2006   0.8862   0.5711     H
Ag        0.25     0.25      0.0    Ag
Ag        0.25     0.25      0.5    Ag
Ag        0.25     0.75      0.0    Ag
Ag        0.25     0.75      0.5    Ag
H       0.2994   0.3862   0.9289     H
H       0.2994   0.6138   0.4289     H
H       0.3106    0.115   0.4748     H
H       0.3106    0.885   0.9748     H
H       0.3262   0.3365   0.7847     H
H       0.3262   0.6635   0.2847     H
H       0.3344   0.1612   0.3166     H
H       0.3344   0.8388   0.8166     H
C       0.3369   0.3558     0.94     C
C       0.3369   0.6442     0.44     C
C       0.3476   0.1449    0.477     C
C       0.3476   0.8551    0.977     C
N       0.3478    0.304    0.117     N
N       0.3478    0.696    0.617     N
N       0.3527   0.2026    0.635     N
N       0.3527   0.7974    0.135     N
H       0.3587   0.3224   0.2607     H
H       0.3587   0.6776   0.7607     H
H       0.3634   0.4696   0.8353     H
H       0.3634   0.5304   0.3353     H
H       0.3651   0.1885   0.7848     H
H       0.3651   0.8115   0.2848     H
H       0.3743   0.0211      0.4     H
H       0.3743   0.9789      0.9     H
H       0.3831   0.2764   0.1267     H
H       0.3831   0.7236   0.6267     H
H       0.3854   0.2319   0.6338     H
H       0.3854   0.7681   0.1338     H
H       0.3932   0.4234    0.718     H
H       0.3932   0.5766    0.218     H
H       0.3941   0.0639   0.2464     H
H       0.3941   0.9361   0.7464     H
N       0.4001   0.4425    0.858     N
N       0.4001   0.5575    0.358     N
C       0.4075   0.3905    0.038     C
C       0.4075   0.6095    0.538     C
N       0.4077   0.0492    0.396     N
N       0.4077   0.9508    0.896     N
C       0.4155   0.1059    0.554     C
C       0.4155   0.8941    0.054     C
H       0.4173   0.4107   0.1911     H
H       0.4173   0.5893   0.6911     H
H       0.4291   0.0897   0.7148     H
H       0.4291   0.9103   0.2148     H
H        0.445   0.3593   0.0554     H
H        0.445   0.6407   0.5554     H
H       0.4525   0.1352   0.5533     H
H       0.4525   0.8648   0.0533     H
Ag         0.5      0.0      0.0    Ag
Ag         0.5      0.0      0.5    Ag
Ag         0.5      0.5      0.0    Ag
Ag         0.5      0.5      0.5    Ag
H       0.5475   0.1352   0.9467     H
H       0.5475   0.8648   0.4467     H
H        0.555   0.3593   0.4446     H
H        0.555   0.6407   0.9446     H
H       0.5709   0.0897   0.7852     H
H       0.5709   0.9103   0.2852     H
H       0.5827   0.4107   0.3089     H
H       0.5827   0.5893   0.8089     H
C       0.5845   0.1059    0.946     C
C       0.5845   0.8941    0.446     C
N       0.5923   0.0492    0.104     N
N       0.5923   0.9508    0.604     N
C       0.5925   0.3905    0.462     C
C       0.5925   0.6095    0.962     C
N       0.5999   0.4425    0.642     N
N       0.5999   0.5575    0.142     N
H       0.6059   0.0639   0.2536     H
H       0.6059   0.9361   0.7536     H
H       0.6068   0.4234    0.782     H
H       0.6068   0.5766    0.282     H
H       0.6146   0.2319   0.8662     H
H       0.6146   0.7681   0.3662     H
H       0.6169   0.2764   0.3733     H
H       0.6169   0.7236   0.8733     H
H       0.6257   0.0211      0.1     H
H       0.6257   0.9789      0.6     H
H       0.6349   0.1885   0.7152     H
H       0.6349   0.8115   0.2152     H
H       0.6366   0.4696   0.6647     H
H       0.6366   0.5304   0.1647     H
H       0.6413   0.3224   0.2393     H
H       0.6413   0.6776   0.7393     H
N       0.6473   0.2026    0.865     N
N       0.6473   0.7974    0.365     N
N       0.6522    0.304    0.383     N
N       0.6522    0.696    0.883     N
C       0.6524   0.1449    0.023     C
C       0.6524   0.8551    0.523     C
C       0.6631   0.3558     0.56     C
C       0.6631   0.6442     0.06     C
H       0.6656   0.1612   0.1834     H
H       0.6656   0.8388   0.6834     H
H       0.6738   0.3365   0.7153     H
H       0.6738   0.6635   0.2153     H
H       0.6894    0.115   0.0252     H
H       0.6894    0.885   0.5252     H
H       0.7006   0.3862   0.5711     H
H       0.7006   0.6138   0.0711     H
Ag        0.75     0.25      0.0    Ag
Ag        0.75     0.25      0.5    Ag
Ag        0.75     0.75      0.0    Ag
Ag        0.75     0.75      0.5    Ag
H       0.7994   0.1138   0.4289     H
H       0.7994   0.8862   0.9289     H
H       0.8106    0.385   0.9748     H
H       0.8106    0.615   0.4748     H
H       0.8262   0.1635   0.2847     H
H       0.8262   0.8365   0.7847     H
H       0.8344   0.3388   0.8166     H
H       0.8344   0.6612   0.3166     H
C       0.8369   0.1442     0.44     C
C       0.8369   0.8558     0.94     C
C       0.8476   0.3551    0.977     C
C       0.8476   0.6449    0.477     C
N       0.8478    0.196    0.617     N
N       0.8478    0.804    0.117     N
N       0.8527   0.2974    0.135     N
N       0.8527   0.7026    0.635     N
H       0.8587   0.1776   0.7607     H
H       0.8587   0.8224   0.2607     H
H       0.8634   0.0304   0.3353     H
H       0.8634   0.9696   0.8353     H
H       0.8651   0.3115   0.2848     H
H       0.8651   0.6885   0.7848     H
H       0.8743   0.4789      0.9     H
H       0.8743   0.5211      0.4     H
H       0.8831   0.2236   0.6267     H
H       0.8831   0.7764   0.1267     H
H       0.8854   0.2681   0.1338     H
H       0.8854   0.7319   0.6338     H
H       0.8932   0.0766    0.218     H
H       0.8932   0.9234    0.718     H
H       0.8941   0.4361   0.7464     H
H       0.8941   0.5639   0.2464     H
N       0.9001   0.0575    0.358     N
N       0.9001   0.9425    0.858     N
C       0.9075   0.1095    0.538     C
C       0.9075   0.8905    0.038     C
N       0.9077   0.4508    0.896     N
N       0.9077   0.5492    0.396     N
C       0.9155   0.3941    0.054     C
C       0.9155   0.6059    0.554     C
H       0.9173   0.0893   0.6911     H
H       0.9173   0.9107   0.1911     H
H       0.9291   0.4103   0.2148     H
H       0.9291   0.5897   0.7148     H
H        0.945   0.1407   0.5554     H
H        0.945   0.8593   0.0554     H
H       0.9525   0.3648   0.0533     H
H       0.9525   0.6352   0.5533     H
