data_I
_chemical_name_common  '/home/zhangsd/repos/MofS-CGCNN/ML/data/SSD/clean_cifs/MAGVOG34_clean'
_cell_length_a 10.42550
_cell_length_b 10.53010
_cell_length_c  6.29430
_cell_angle_alpha 90.00000
_cell_angle_beta  115.13500
_cell_angle_gamma 90.00000
_space_group_name_H-M_alt      'P 1'


loop_
_space_group_symop_operation_xyz
  'x, y, z' 

loop_
_atom_site_label
_atom_site_fract_x
_atom_site_fract_y
_atom_site_fract_z
_atom_site_type_symbol
Ag         0.0      0.5      0.0    Ag
Ag         0.0      0.5      0.5    Ag
H       0.1026   0.2349   0.4233     H
H       0.1026   0.7651   0.9233     H
H       0.1709   0.3283   0.3065     H
H       0.1709   0.6717   0.8065     H
C       0.1834   0.2896   0.4539     C
C       0.1834   0.7104   0.9539     C
N       0.1875   0.3896   0.6189     N
N       0.1875   0.6104   0.1189     N
H       0.2019   0.3536   0.7569     H
H       0.2019   0.6464   0.2569     H
H       0.2386   0.0588   0.3558     H
H       0.2386   0.9412   0.8558     H
H       0.2614   0.4412   0.6442     H
H       0.2614   0.5588   0.1442     H
H       0.2981   0.1464   0.2431     H
H       0.2981   0.8536   0.7431     H
N       0.3125   0.1104   0.3811     N
N       0.3125   0.8896   0.8811     N
C       0.3166   0.2104   0.5461     C
C       0.3166   0.7896   0.0461     C
H       0.3291   0.1717   0.6935     H
H       0.3291   0.8283   0.1935     H
H       0.3974   0.2651   0.5767     H
H       0.3974   0.7349   0.0767     H
Ag         0.5      0.0      0.0    Ag
Ag         0.5      0.0      0.5    Ag
H       0.6026   0.2651   0.9233     H
H       0.6026   0.7349   0.4233     H
H       0.6709   0.1717   0.8065     H
H       0.6709   0.8283   0.3065     H
C       0.6834   0.2104   0.9539     C
C       0.6834   0.7896   0.4539     C
N       0.6875   0.1104   0.1189     N
N       0.6875   0.8896   0.6189     N
H       0.7019   0.1464   0.2569     H
H       0.7019   0.8536   0.7569     H
H       0.7386   0.4412   0.8558     H
H       0.7386   0.5588   0.3558     H
H       0.7614   0.0588   0.1442     H
H       0.7614   0.9412   0.6442     H
H       0.7981   0.3536   0.7431     H
H       0.7981   0.6464   0.2431     H
N       0.8125   0.3896   0.8811     N
N       0.8125   0.6104   0.3811     N
C       0.8166   0.2896   0.0461     C
C       0.8166   0.7104   0.5461     C
H       0.8291   0.3283   0.1935     H
H       0.8291   0.6717   0.6935     H
H       0.8974   0.2349   0.0767     H
H       0.8974   0.7651   0.5767     H
