data_I
_chemical_name_common  '/home/zhangsd/repos/MofS-CGCNN/ML/data/SSD/clean_cifs/MAGVOG06_clean'
_cell_length_a 10.63200
_cell_length_b 10.21900
_cell_length_c  6.11500
_cell_angle_alpha 90.00000
_cell_angle_beta  114.46000
_cell_angle_gamma 90.00000
_space_group_name_H-M_alt      'P 1'


loop_
_space_group_symop_operation_xyz
  'x, y, z' 

loop_
_atom_site_label
_atom_site_fract_x
_atom_site_fract_y
_atom_site_fract_z
_atom_site_type_symbol
Ag         0.0      0.5      0.0    Ag
Ag         0.0      0.5      0.5    Ag
H       0.1139    0.228   0.4679     H
H       0.1139    0.772   0.9679     H
H       0.1563    0.318   0.3014     H
H       0.1563    0.682   0.8014     H
C        0.185   0.2861    0.464     C
C        0.185   0.7139    0.964     C
N        0.202    0.397    0.627     N
N        0.202    0.603    0.127     N
H        0.227   0.3682   0.7786     H
H        0.227   0.6318   0.2786     H
H       0.2321   0.0483   0.3749     H
H       0.2321   0.9517   0.8749     H
H       0.2679   0.4517   0.6251     H
H       0.2679   0.5483   0.1251     H
H        0.273   0.1318   0.2214     H
H        0.273   0.8682   0.7214     H
N        0.298    0.103    0.373     N
N        0.298    0.897    0.873     N
C        0.315   0.2139    0.536     C
C        0.315   0.7861    0.036     C
H       0.3437    0.182   0.6986     H
H       0.3437    0.818   0.1986     H
H       0.3861    0.272   0.5321     H
H       0.3861    0.728   0.0321     H
Ag         0.5      0.0      0.0    Ag
Ag         0.5      0.0      0.5    Ag
H       0.6139    0.272   0.9679     H
H       0.6139    0.728   0.4679     H
H       0.6563    0.182   0.8014     H
H       0.6563    0.818   0.3014     H
C        0.685   0.2139    0.964     C
C        0.685   0.7861    0.464     C
N        0.702    0.103    0.127     N
N        0.702    0.897    0.627     N
H        0.727   0.1318   0.2786     H
H        0.727   0.8682   0.7786     H
H       0.7321   0.4517   0.8749     H
H       0.7321   0.5483   0.3749     H
H       0.7679   0.0483   0.1251     H
H       0.7679   0.9517   0.6251     H
H        0.773   0.3682   0.7214     H
H        0.773   0.6318   0.2214     H
N        0.798    0.397    0.873     N
N        0.798    0.603    0.373     N
C        0.815   0.2861    0.036     C
C        0.815   0.7139    0.536     C
H       0.8437    0.318   0.1986     H
H       0.8437    0.682   0.6986     H
H       0.8861    0.228   0.0321     H
H       0.8861    0.772   0.5321     H
