data_I
_chemical_name_common  '/home/zhangsd/repos/MofS-CGCNN/ML/data/SSD/clean_cifs/MAGVOG04_clean'
_cell_length_a 10.57400
_cell_length_b 10.34500
_cell_length_c  6.16600
_cell_angle_alpha 90.00000
_cell_angle_beta  114.85000
_cell_angle_gamma 90.00000
_space_group_name_H-M_alt      'P 1'


loop_
_space_group_symop_operation_xyz
  'x, y, z' 

loop_
_atom_site_label
_atom_site_fract_x
_atom_site_fract_y
_atom_site_fract_z
_atom_site_type_symbol
Ag         0.0      0.5      0.0    Ag
Ag         0.0      0.5      0.5    Ag
H       0.1058   0.2328   0.4324     H
H       0.1058   0.7672   0.9324     H
H       0.1677   0.3243   0.2974     H
H       0.1677   0.6757   0.7974     H
C       0.1839   0.2883    0.452     C
C       0.1839   0.7117    0.952     C
N       0.1961   0.3927   0.6207     N
N       0.1961   0.6073   0.1207     N
H       0.2171   0.3592   0.7665     H
H       0.2171   0.6408   0.2665     H
H       0.2347   0.0534   0.3683     H
H       0.2347   0.9466   0.8683     H
H       0.2653   0.4466   0.6317     H
H       0.2653   0.5534   0.1317     H
H       0.2829   0.1408   0.2335     H
H       0.2829   0.8592   0.7335     H
N       0.3039   0.1073   0.3793     N
N       0.3039   0.8927   0.8793     N
C       0.3161   0.2117    0.548     C
C       0.3161   0.7883    0.048     C
H       0.3323   0.1757   0.7026     H
H       0.3323   0.8243   0.2026     H
H       0.3942   0.2672   0.5676     H
H       0.3942   0.7328   0.0676     H
Ag         0.5      0.0      0.0    Ag
Ag         0.5      0.0      0.5    Ag
H       0.6058   0.2672   0.9324     H
H       0.6058   0.7328   0.4324     H
H       0.6677   0.1757   0.7974     H
H       0.6677   0.8243   0.2974     H
C       0.6839   0.2117    0.952     C
C       0.6839   0.7883    0.452     C
N       0.6961   0.1073   0.1207     N
N       0.6961   0.8927   0.6207     N
H       0.7171   0.1408   0.2665     H
H       0.7171   0.8592   0.7665     H
H       0.7347   0.4466   0.8683     H
H       0.7347   0.5534   0.3683     H
H       0.7653   0.0534   0.1317     H
H       0.7653   0.9466   0.6317     H
H       0.7829   0.3592   0.7335     H
H       0.7829   0.6408   0.2335     H
N       0.8039   0.3927   0.8793     N
N       0.8039   0.6073   0.3793     N
C       0.8161   0.2883    0.048     C
C       0.8161   0.7117    0.548     C
H       0.8323   0.3243   0.2026     H
H       0.8323   0.6757   0.7026     H
H       0.8942   0.2328   0.0676     H
H       0.8942   0.7672   0.5676     H
