data_I
_chemical_name_common  '/home/zhangsd/repos/MofS-CGCNN/ML/data/SSD/clean_cifs/MAGVOG14_clean'
_cell_length_a 20.18300
_cell_length_b 19.60700
_cell_length_c  5.97780
_cell_angle_alpha 90.00000
_cell_angle_beta  113.92000
_cell_angle_gamma 90.00000
_space_group_name_H-M_alt      'P 1'


loop_
_space_group_symop_operation_xyz
  'x, y, z' 

loop_
_atom_site_label
_atom_site_fract_x
_atom_site_fract_y
_atom_site_fract_z
_atom_site_type_symbol
Ag         0.0      0.0      0.0    Ag
Ag         0.0      0.0      0.5    Ag
Ag         0.0      0.5      0.0    Ag
Ag         0.0      0.5      0.5    Ag
H       0.0441   0.3651   0.4377     H
H       0.0441   0.6349   0.9377     H
H       0.0554   0.1364   0.9557     H
H       0.0554   0.8636   0.4557     H
H       0.0762   0.4155   0.3032     H
H       0.0762   0.5845   0.8032     H
H       0.0819   0.0891   0.7942     H
H       0.0819   0.9109   0.2942     H
C       0.0854   0.3938    0.459     C
C       0.0854   0.6062    0.959     C
N        0.093   0.4459    0.641     N
N        0.093   0.5541    0.141     N
C       0.0931   0.1052    0.959     C
C       0.0931   0.8948    0.459     C
H       0.0989   0.4268    0.785     H
H       0.0989   0.5732    0.285     H
N       0.1006   0.0472    0.128     N
N       0.1006   0.9528    0.628     N
H       0.1123   0.2609   0.3828     H
H       0.1123   0.7391   0.8828     H
H       0.1131   0.0624    0.282     H
H       0.1131   0.9376    0.782     H
H       0.1203   0.2204   0.8827     H
H       0.1203   0.7796   0.3827     H
H       0.1287   0.3047   0.2131     H
H       0.1287   0.6953   0.7131     H
H       0.1316   0.4728   0.6654     H
H       0.1316   0.5272   0.1654     H
H       0.1348   0.0179   0.1272     H
H       0.1348   0.9821   0.6272     H
N       0.1439   0.2913     0.37     N
N       0.1439   0.7087     0.87     N
H       0.1473   0.1758   0.7432     H
H       0.1473   0.8242   0.2432     H
C       0.1527   0.3505    0.534     C
C       0.1527   0.6495    0.034     C
N       0.1575   0.1935    0.892     N
N       0.1575   0.8065    0.392     N
H       0.1653    0.334   0.6995     H
H       0.1653    0.666   0.1995     H
C       0.1665   0.1389    0.066     C
C       0.1665   0.8611    0.566     C
H       0.1773   0.1566    0.229     H
H       0.1773   0.8434    0.729     H
H       0.1924   0.3785   0.5358     H
H       0.1924   0.6215   0.0358     H
H       0.2046   0.1076   0.0737     H
H       0.2046   0.8924   0.5737     H
Ag        0.25     0.25      0.0    Ag
Ag        0.25     0.25      0.5    Ag
Ag        0.25     0.75      0.0    Ag
Ag        0.25     0.75      0.5    Ag
H       0.2954   0.3924   0.9263     H
H       0.2954   0.6076   0.4263     H
H       0.3076   0.1215   0.4642     H
H       0.3076   0.8785   0.9642     H
H       0.3227   0.3434    0.771     H
H       0.3227   0.6566    0.271     H
C       0.3335   0.3611    0.934     C
C       0.3335   0.6389    0.434     C
H       0.3347    0.166   0.3005     H
H       0.3347    0.834   0.8005     H
N       0.3425   0.3065    0.108     N
N       0.3425   0.6935    0.608     N
C       0.3473   0.1495    0.466     C
C       0.3473   0.8505    0.966     C
H       0.3527   0.3242   0.2568     H
H       0.3527   0.6758   0.7568     H
N       0.3561   0.2087     0.63     N
N       0.3561   0.7913     0.13     N
H       0.3652   0.4821   0.8728     H
H       0.3652   0.5179   0.3728     H
H       0.3684   0.0272   0.3346     H
H       0.3684   0.9728   0.8346     H
H       0.3713   0.1953   0.7869     H
H       0.3713   0.8047   0.2869     H
H       0.3797   0.2796   0.1173     H
H       0.3797   0.7204   0.6173     H
H       0.3869   0.4376    0.718     H
H       0.3869   0.5624    0.218     H
H       0.3877   0.2391   0.6172     H
H       0.3877   0.7609   0.1172     H
N       0.3994   0.4528    0.872     N
N       0.3994   0.5472    0.372     N
H       0.4011   0.0732    0.215     H
H       0.4011   0.9268    0.715     H
C       0.4069   0.3948    0.041     C
C       0.4069   0.6052    0.541     C
N        0.407   0.0541    0.359     N
N        0.407   0.9459    0.859     N
C       0.4146   0.1062    0.541     C
C       0.4146   0.8938    0.041     C
H       0.4181   0.4109   0.2058     H
H       0.4181   0.5891   0.7058     H
H       0.4238   0.0845   0.6968     H
H       0.4238   0.9155   0.1968     H
H       0.4446   0.3636   0.0443     H
H       0.4446   0.6364   0.5443     H
H       0.4559   0.1349   0.5623     H
H       0.4559   0.8651   0.0623     H
Ag         0.5      0.0      0.0    Ag
Ag         0.5      0.0      0.5    Ag
Ag         0.5      0.5      0.0    Ag
Ag         0.5      0.5      0.5    Ag
H       0.5441   0.1349   0.9377     H
H       0.5441   0.8651   0.4377     H
H       0.5554   0.3636   0.4557     H
H       0.5554   0.6364   0.9557     H
H       0.5762   0.0845   0.8032     H
H       0.5762   0.9155   0.3032     H
H       0.5819   0.4109   0.2942     H
H       0.5819   0.5891   0.7942     H
C       0.5854   0.1062    0.959     C
C       0.5854   0.8938    0.459     C
N        0.593   0.0541    0.141     N
N        0.593   0.9459    0.641     N
C       0.5931   0.3948    0.459     C
C       0.5931   0.6052    0.959     C
H       0.5989   0.0732    0.285     H
H       0.5989   0.9268    0.785     H
N       0.6006   0.4528    0.628     N
N       0.6006   0.5472    0.128     N
H       0.6123   0.2391   0.8828     H
H       0.6123   0.7609   0.3828     H
H       0.6131   0.4376    0.782     H
H       0.6131   0.5624    0.282     H
H       0.6203   0.2796   0.3827     H
H       0.6203   0.7204   0.8827     H
H       0.6287   0.1953   0.7131     H
H       0.6287   0.8047   0.2131     H
H       0.6316   0.0272   0.1654     H
H       0.6316   0.9728   0.6654     H
H       0.6348   0.4821   0.6272     H
H       0.6348   0.5179   0.1272     H
N       0.6439   0.2087     0.87     N
N       0.6439   0.7913     0.37     N
H       0.6473   0.3242   0.2432     H
H       0.6473   0.6758   0.7432     H
C       0.6527   0.1495    0.034     C
C       0.6527   0.8505    0.534     C
N       0.6575   0.3065    0.392     N
N       0.6575   0.6935    0.892     N
H       0.6653    0.166   0.1995     H
H       0.6653    0.834   0.6995     H
C       0.6665   0.3611    0.566     C
C       0.6665   0.6389    0.066     C
H       0.6773   0.3434    0.729     H
H       0.6773   0.6566    0.229     H
H       0.6924   0.1215   0.0358     H
H       0.6924   0.8785   0.5358     H
H       0.7046   0.3924   0.5737     H
H       0.7046   0.6076   0.0737     H
Ag        0.75     0.25      0.0    Ag
Ag        0.75     0.25      0.5    Ag
Ag        0.75     0.75      0.0    Ag
Ag        0.75     0.75      0.5    Ag
H       0.7954   0.1076   0.4263     H
H       0.7954   0.8924   0.9263     H
H       0.8076   0.3785   0.9642     H
H       0.8076   0.6215   0.4642     H
H       0.8227   0.1566    0.271     H
H       0.8227   0.8434    0.771     H
C       0.8335   0.1389    0.434     C
C       0.8335   0.8611    0.934     C
H       0.8347    0.334   0.8005     H
H       0.8347    0.666   0.3005     H
N       0.8425   0.1935    0.608     N
N       0.8425   0.8065    0.108     N
C       0.8473   0.3505    0.966     C
C       0.8473   0.6495    0.466     C
H       0.8527   0.1758   0.7568     H
H       0.8527   0.8242   0.2568     H
N       0.8561   0.2913     0.13     N
N       0.8561   0.7087     0.63     N
H       0.8652   0.0179   0.3728     H
H       0.8652   0.9821   0.8728     H
H       0.8684   0.4728   0.8346     H
H       0.8684   0.5272   0.3346     H
H       0.8713   0.3047   0.2869     H
H       0.8713   0.6953   0.7869     H
H       0.8797   0.2204   0.6173     H
H       0.8797   0.7796   0.1173     H
H       0.8869   0.0624    0.218     H
H       0.8869   0.9376    0.718     H
H       0.8877   0.2609   0.1172     H
H       0.8877   0.7391   0.6172     H
N       0.8994   0.0472    0.372     N
N       0.8994   0.9528    0.872     N
H       0.9011   0.4268    0.715     H
H       0.9011   0.5732    0.215     H
C       0.9069   0.1052    0.541     C
C       0.9069   0.8948    0.041     C
N        0.907   0.4459    0.859     N
N        0.907   0.5541    0.359     N
C       0.9146   0.3938    0.041     C
C       0.9146   0.6062    0.541     C
H       0.9181   0.0891   0.7058     H
H       0.9181   0.9109   0.2058     H
H       0.9238   0.4155   0.1968     H
H       0.9238   0.5845   0.6968     H
H       0.9446   0.1364   0.5443     H
H       0.9446   0.8636   0.0443     H
H       0.9559   0.3651   0.0623     H
H       0.9559   0.6349   0.5623     H
