data_I
_chemical_name_common  '/home/zhangsd/repos/MofS-CGCNN/ML/data/SSD/clean_cifs/MAGVOG29_clean'
_cell_length_a 10.31590
_cell_length_b 10.59350
_cell_length_c  6.24950
_cell_angle_alpha 90.00000
_cell_angle_beta  114.77200
_cell_angle_gamma 90.00000
_space_group_name_H-M_alt      'P 1'


loop_
_space_group_symop_operation_xyz
  'x, y, z' 

loop_
_atom_site_label
_atom_site_fract_x
_atom_site_fract_y
_atom_site_fract_z
_atom_site_type_symbol
Ag         0.0      0.5      0.0    Ag
Ag         0.0      0.5      0.5    Ag
H       0.1008   0.2343   0.4278     H
H       0.1008   0.7657   0.9278     H
H       0.1684   0.3264   0.3024     H
H       0.1684   0.6736   0.8024     H
C       0.1826   0.2891   0.4541     C
C       0.1826   0.7109   0.9541     C
N       0.1885   0.3904    0.619     N
N       0.1885   0.6096    0.119     N
H       0.2039   0.3555   0.7607     H
H       0.2039   0.6445   0.2607     H
H       0.2363   0.0582   0.3588     H
H       0.2363   0.9418   0.8588     H
H       0.2637   0.4418   0.6412     H
H       0.2637   0.5582   0.1412     H
H       0.2961   0.1445   0.2393     H
H       0.2961   0.8555   0.7393     H
N       0.3115   0.1096    0.381     N
N       0.3115   0.8904    0.881     N
C       0.3174   0.2109   0.5459     C
C       0.3174   0.7891   0.0459     C
H       0.3316   0.1736   0.6976     H
H       0.3316   0.8264   0.1976     H
H       0.3992   0.2657   0.5722     H
H       0.3992   0.7343   0.0722     H
Ag         0.5      0.0      0.0    Ag
Ag         0.5      0.0      0.5    Ag
H       0.6008   0.2657   0.9278     H
H       0.6008   0.7343   0.4278     H
H       0.6684   0.1736   0.8024     H
H       0.6684   0.8264   0.3024     H
C       0.6826   0.2109   0.9541     C
C       0.6826   0.7891   0.4541     C
N       0.6885   0.1096    0.119     N
N       0.6885   0.8904    0.619     N
H       0.7039   0.1445   0.2607     H
H       0.7039   0.8555   0.7607     H
H       0.7363   0.4418   0.8588     H
H       0.7363   0.5582   0.3588     H
H       0.7637   0.0582   0.1412     H
H       0.7637   0.9418   0.6412     H
H       0.7961   0.3555   0.7393     H
H       0.7961   0.6445   0.2393     H
N       0.8115   0.3904    0.881     N
N       0.8115   0.6096    0.381     N
C       0.8174   0.2891   0.0459     C
C       0.8174   0.7109   0.5459     C
H       0.8316   0.3264   0.1976     H
H       0.8316   0.6736   0.6976     H
H       0.8992   0.2343   0.0722     H
H       0.8992   0.7657   0.5722     H
