data_I
_chemical_name_common  '/home/zhangsd/repos/MofS-CGCNN/ML/data/SSD/clean_cifs/MAGVOG08_clean'
_cell_length_a 20.87800
_cell_length_b 19.78900
_cell_length_c  6.16530
_cell_angle_alpha 90.00000
_cell_angle_beta  114.42900
_cell_angle_gamma 90.00000
_space_group_name_H-M_alt      'P 1'


loop_
_space_group_symop_operation_xyz
  'x, y, z' 

loop_
_atom_site_label
_atom_site_fract_x
_atom_site_fract_y
_atom_site_fract_z
_atom_site_type_symbol
Ag         0.0      0.0      0.0    Ag
Ag         0.0      0.0      0.5    Ag
Ag         0.0      0.5      0.0    Ag
Ag         0.0      0.5      0.5    Ag
H       0.0508    0.142   0.9273     H
H       0.0508    0.858   0.4273     H
H       0.0632   0.3616   0.4836     H
H       0.0632   0.6384   0.9836     H
H       0.0785   0.0913   0.7874     H
H       0.0785   0.9087   0.2874     H
H       0.0805   0.4068   0.3057     H
H       0.0805   0.5932   0.8057     H
C       0.0873   0.1095    0.943     C
C       0.0873   0.8905    0.443     C
N       0.0904   0.0546    0.112     N
N       0.0904   0.9454    0.612     N
C       0.0968   0.3935    0.471     C
C       0.0968   0.6065    0.971     C
H       0.0989   0.0729   0.2554     H
H       0.0989   0.9271   0.7554     H
N       0.1004   0.4527    0.616     N
N       0.1004   0.5473    0.116     N
H       0.1152   0.4404   0.7693     H
H       0.1152   0.5596   0.2693     H
H       0.1161   0.2247   0.8729     H
H       0.1161   0.7753   0.3729     H
H       0.1264   0.0268   0.1308     H
H       0.1264   0.9732   0.6308     H
H       0.1315   0.2736   0.3873     H
H       0.1315   0.7264   0.8873     H
H       0.1317   0.4823   0.6049     H
H       0.1317   0.5177   0.1049     H
H       0.1395   0.1786   0.7352     H
H       0.1395   0.8214   0.2352     H
N       0.1506   0.1963   0.8808     N
N       0.1506   0.8037   0.3808     N
H       0.1571   0.3167   0.2503     H
H       0.1571   0.6833   0.7503     H
C       0.1593   0.1415    0.057     C
C       0.1593   0.8585    0.557     C
N       0.1669   0.3012    0.398     N
N       0.1669   0.6988    0.898     N
C       0.1676   0.3597     0.55     C
C       0.1676   0.6403     0.05     C
H       0.1689   0.1594   0.2138     H
H       0.1689   0.8406   0.7138     H
H       0.1826   0.3444   0.7133     H
H       0.1826   0.6556   0.2133     H
H       0.1961     0.11    0.068     H
H       0.1961     0.89    0.568     H
H       0.2017   0.3926   0.5472     H
H       0.2017   0.6074   0.0472     H
Ag        0.25     0.25      0.0    Ag
Ag        0.25     0.25      0.5    Ag
Ag        0.25     0.75      0.0    Ag
Ag        0.25     0.75      0.5    Ag
H       0.2983   0.1074   0.4528     H
H       0.2983   0.8926   0.9528     H
H       0.3039     0.39    0.932     H
H       0.3039     0.61    0.432     H
H       0.3174   0.1556   0.2867     H
H       0.3174   0.8444   0.7867     H
H       0.3311   0.3406   0.7862     H
H       0.3311   0.6594   0.2862     H
C       0.3324   0.1403     0.45     C
C       0.3324   0.8597     0.95     C
N       0.3331   0.1988    0.602     N
N       0.3331   0.8012    0.102     N
C       0.3407   0.3585    0.943     C
C       0.3407   0.6415    0.443     C
H       0.3429   0.1833   0.7497     H
H       0.3429   0.8167   0.2497     H
N       0.3494   0.3037   0.1192     N
N       0.3494   0.6963   0.6192     N
H       0.3605   0.3214   0.2648     H
H       0.3605   0.6786   0.7648     H
H       0.3683   0.0177   0.3951     H
H       0.3683   0.9823   0.8951     H
H       0.3685   0.2264   0.6127     H
H       0.3685   0.7736   0.1127     H
H       0.3736   0.4732   0.8692     H
H       0.3736   0.5268   0.3692     H
H       0.3839   0.2753   0.1271     H
H       0.3839   0.7247   0.6271     H
H       0.3848   0.0596   0.2307     H
H       0.3848   0.9404   0.7307     H
N       0.3996   0.0473    0.384     N
N       0.3996   0.9527    0.884     N
H       0.4011   0.4271   0.7446     H
H       0.4011   0.5729   0.2446     H
C       0.4032   0.1065    0.529     C
C       0.4032   0.8935    0.029     C
N       0.4096   0.4454    0.888     N
N       0.4096   0.5546    0.388     N
C       0.4127   0.3905    0.057     C
C       0.4127   0.6095    0.557     C
H       0.4195   0.0932   0.6943     H
H       0.4195   0.9068   0.1943     H
H       0.4215   0.4087   0.2126     H
H       0.4215   0.5913   0.7126     H
H       0.4368   0.1384   0.5164     H
H       0.4368   0.8616   0.0164     H
H       0.4492    0.358   0.0727     H
H       0.4492    0.642   0.5727     H
Ag         0.5      0.0      0.0    Ag
Ag         0.5      0.0      0.5    Ag
Ag         0.5      0.5      0.0    Ag
Ag         0.5      0.5      0.5    Ag
H       0.5508    0.358   0.4273     H
H       0.5508    0.642   0.9273     H
H       0.5632   0.1384   0.9836     H
H       0.5632   0.8616   0.4836     H
H       0.5785   0.4087   0.2874     H
H       0.5785   0.5913   0.7874     H
H       0.5805   0.0932   0.8057     H
H       0.5805   0.9068   0.3057     H
C       0.5873   0.3905    0.443     C
C       0.5873   0.6095    0.943     C
N       0.5904   0.4454    0.612     N
N       0.5904   0.5546    0.112     N
C       0.5968   0.1065    0.971     C
C       0.5968   0.8935    0.471     C
H       0.5989   0.4271   0.7554     H
H       0.5989   0.5729   0.2554     H
N       0.6004   0.0473    0.116     N
N       0.6004   0.9527    0.616     N
H       0.6152   0.0596   0.2693     H
H       0.6152   0.9404   0.7693     H
H       0.6161   0.2753   0.3729     H
H       0.6161   0.7247   0.8729     H
H       0.6264   0.4732   0.6308     H
H       0.6264   0.5268   0.1308     H
H       0.6315   0.2264   0.8873     H
H       0.6315   0.7736   0.3873     H
H       0.6317   0.0177   0.1049     H
H       0.6317   0.9823   0.6049     H
H       0.6395   0.3214   0.2352     H
H       0.6395   0.6786   0.7352     H
N       0.6506   0.3037   0.3808     N
N       0.6506   0.6963   0.8808     N
H       0.6571   0.1833   0.7503     H
H       0.6571   0.8167   0.2503     H
C       0.6593   0.3585    0.557     C
C       0.6593   0.6415    0.057     C
N       0.6669   0.1988    0.898     N
N       0.6669   0.8012    0.398     N
C       0.6676   0.1403     0.05     C
C       0.6676   0.8597     0.55     C
H       0.6689   0.3406   0.7138     H
H       0.6689   0.6594   0.2138     H
H       0.6826   0.1556   0.2133     H
H       0.6826   0.8444   0.7133     H
H       0.6961     0.39    0.568     H
H       0.6961     0.61    0.068     H
H       0.7017   0.1074   0.0472     H
H       0.7017   0.8926   0.5472     H
Ag        0.75     0.25      0.0    Ag
Ag        0.75     0.25      0.5    Ag
Ag        0.75     0.75      0.0    Ag
Ag        0.75     0.75      0.5    Ag
H       0.7983   0.3926   0.9528     H
H       0.7983   0.6074   0.4528     H
H       0.8039     0.11    0.432     H
H       0.8039     0.89    0.932     H
H       0.8174   0.3444   0.7867     H
H       0.8174   0.6556   0.2867     H
H       0.8311   0.1594   0.2862     H
H       0.8311   0.8406   0.7862     H
C       0.8324   0.3597     0.95     C
C       0.8324   0.6403     0.45     C
N       0.8331   0.3012    0.102     N
N       0.8331   0.6988    0.602     N
C       0.8407   0.1415    0.443     C
C       0.8407   0.8585    0.943     C
H       0.8429   0.3167   0.2497     H
H       0.8429   0.6833   0.7497     H
N       0.8494   0.1963   0.6192     N
N       0.8494   0.8037   0.1192     N
H       0.8605   0.1786   0.7648     H
H       0.8605   0.8214   0.2648     H
H       0.8683   0.4823   0.8951     H
H       0.8683   0.5177   0.3951     H
H       0.8685   0.2736   0.1127     H
H       0.8685   0.7264   0.6127     H
H       0.8736   0.0268   0.3692     H
H       0.8736   0.9732   0.8692     H
H       0.8839   0.2247   0.6271     H
H       0.8839   0.7753   0.1271     H
H       0.8848   0.4404   0.7307     H
H       0.8848   0.5596   0.2307     H
N       0.8996   0.4527    0.884     N
N       0.8996   0.5473    0.384     N
H       0.9011   0.0729   0.2446     H
H       0.9011   0.9271   0.7446     H
C       0.9032   0.3935    0.029     C
C       0.9032   0.6065    0.529     C
N       0.9096   0.0546    0.388     N
N       0.9096   0.9454    0.888     N
C       0.9127   0.1095    0.557     C
C       0.9127   0.8905    0.057     C
H       0.9195   0.4068   0.1943     H
H       0.9195   0.5932   0.6943     H
H       0.9215   0.0913   0.7126     H
H       0.9215   0.9087   0.2126     H
H       0.9368   0.3616   0.0164     H
H       0.9368   0.6384   0.5164     H
H       0.9492    0.142   0.5727     H
H       0.9492    0.858   0.0727     H
