data_I
_chemical_name_common  '/home/zhangsd/repos/MofS-CGCNN/ML/data/SSD/clean_cifs/MAGVOG23_clean'
_cell_length_a 10.18950
_cell_length_b 10.68380
_cell_length_c  6.20960
_cell_angle_alpha 90.00000
_cell_angle_beta  114.38900
_cell_angle_gamma 90.00000
_space_group_name_H-M_alt      'P 1'


loop_
_space_group_symop_operation_xyz
  'x, y, z' 

loop_
_atom_site_label
_atom_site_fract_x
_atom_site_fract_y
_atom_site_fract_z
_atom_site_type_symbol
Ag         0.0      0.5      0.0    Ag
Ag         0.0      0.5      0.5    Ag
H       0.0986   0.2345    0.432     H
H       0.0986   0.7655    0.932     H
H       0.1664   0.3254   0.2997     H
H       0.1664   0.6746   0.7997     H
C       0.1819    0.289    0.455     C
C       0.1819    0.711    0.955     C
N       0.1896   0.3908   0.6204     N
N       0.1896   0.6092   0.1204     N
H       0.2051   0.3568    0.765     H
H       0.2051   0.6432    0.265     H
H       0.2333   0.0584   0.3592     H
H       0.2333   0.9416   0.8592     H
H       0.2667   0.4416   0.6408     H
H       0.2667   0.5584   0.1408     H
H       0.2949   0.1432    0.235     H
H       0.2949   0.8568    0.735     H
N       0.3104   0.1092   0.3796     N
N       0.3104   0.8908   0.8796     N
C       0.3181    0.211    0.545     C
C       0.3181    0.789    0.045     C
H       0.3336   0.1746   0.7003     H
H       0.3336   0.8254   0.2003     H
H       0.4014   0.2655    0.568     H
H       0.4014   0.7345    0.068     H
Ag         0.5      0.0      0.0    Ag
Ag         0.5      0.0      0.5    Ag
H       0.5986   0.2655    0.932     H
H       0.5986   0.7345    0.432     H
H       0.6664   0.1746   0.7997     H
H       0.6664   0.8254   0.2997     H
C       0.6819    0.211    0.955     C
C       0.6819    0.789    0.455     C
N       0.6896   0.1092   0.1204     N
N       0.6896   0.8908   0.6204     N
H       0.7051   0.1432    0.265     H
H       0.7051   0.8568    0.765     H
H       0.7333   0.4416   0.8592     H
H       0.7333   0.5584   0.3592     H
H       0.7667   0.0584   0.1408     H
H       0.7667   0.9416   0.6408     H
H       0.7949   0.3568    0.735     H
H       0.7949   0.6432    0.235     H
N       0.8104   0.3908   0.8796     N
N       0.8104   0.6092   0.3796     N
C       0.8181    0.289    0.045     C
C       0.8181    0.711    0.545     C
H       0.8336   0.3254   0.2003     H
H       0.8336   0.6746   0.7003     H
H       0.9014   0.2345    0.068     H
H       0.9014   0.7655    0.568     H
