data_I
_chemical_name_common  '/home/zhangsd/repos/MofS-CGCNN/ML/data/SSD/clean_cifs/MAGVOG32_clean'
_cell_length_a 10.37250
_cell_length_b 10.55750
_cell_length_c  6.27060
_cell_angle_alpha 90.00000
_cell_angle_beta  114.94800
_cell_angle_gamma 90.00000
_space_group_name_H-M_alt      'P 1'


loop_
_space_group_symop_operation_xyz
  'x, y, z' 

loop_
_atom_site_label
_atom_site_fract_x
_atom_site_fract_y
_atom_site_fract_z
_atom_site_type_symbol
Ag         0.0      0.5      0.0    Ag
Ag         0.0      0.5      0.5    Ag
H       0.1023    0.235   0.4258     H
H       0.1023    0.765   0.9258     H
H       0.1701   0.3273   0.3055     H
H       0.1701   0.6727   0.8055     H
C       0.1833   0.2894   0.4543     C
C       0.1833   0.7106   0.9543     C
N       0.1881   0.3901   0.6192     N
N       0.1881   0.6099   0.1192     N
H        0.203   0.3548   0.7583     H
H        0.203   0.6452   0.2583     H
H       0.2378   0.0587   0.3573     H
H       0.2378   0.9413   0.8573     H
H       0.2622   0.4413   0.6427     H
H       0.2622   0.5587   0.1427     H
H        0.297   0.1452   0.2417     H
H        0.297   0.8548   0.7417     H
N       0.3119   0.1099   0.3808     N
N       0.3119   0.8901   0.8808     N
C       0.3167   0.2106   0.5457     C
C       0.3167   0.7894   0.0457     C
H       0.3299   0.1727   0.6945     H
H       0.3299   0.8273   0.1945     H
H       0.3977    0.265   0.5742     H
H       0.3977    0.735   0.0742     H
Ag         0.5      0.0      0.0    Ag
Ag         0.5      0.0      0.5    Ag
H       0.6023    0.265   0.9258     H
H       0.6023    0.735   0.4258     H
H       0.6701   0.1727   0.8055     H
H       0.6701   0.8273   0.3055     H
C       0.6833   0.2106   0.9543     C
C       0.6833   0.7894   0.4543     C
N       0.6881   0.1099   0.1192     N
N       0.6881   0.8901   0.6192     N
H        0.703   0.1452   0.2583     H
H        0.703   0.8548   0.7583     H
H       0.7378   0.4413   0.8573     H
H       0.7378   0.5587   0.3573     H
H       0.7622   0.0587   0.1427     H
H       0.7622   0.9413   0.6427     H
H        0.797   0.3548   0.7417     H
H        0.797   0.6452   0.2417     H
N       0.8119   0.3901   0.8808     N
N       0.8119   0.6099   0.3808     N
C       0.8167   0.2894   0.0457     C
C       0.8167   0.7106   0.5457     C
H       0.8299   0.3273   0.1945     H
H       0.8299   0.6727   0.6945     H
H       0.8977    0.235   0.0742     H
H       0.8977    0.765   0.5742     H
