data_I
_chemical_name_common  '/home/zhangsd/repos/MofS-CGCNN/ML/data/SSD/clean_cifs/MAGVOG24_clean'
_cell_length_a 10.23190
_cell_length_b 10.65310
_cell_length_c  6.22100
_cell_angle_alpha 90.00000
_cell_angle_beta  114.48500
_cell_angle_gamma 90.00000
_space_group_name_H-M_alt      'P 1'


loop_
_space_group_symop_operation_xyz
  'x, y, z' 

loop_
_atom_site_label
_atom_site_fract_x
_atom_site_fract_y
_atom_site_fract_z
_atom_site_type_symbol
Ag         0.0      0.5      0.0    Ag
Ag         0.0      0.5      0.5    Ag
H       0.0993   0.2336   0.4318     H
H       0.0993   0.7664   0.9318     H
H       0.1663   0.3251   0.2994     H
H       0.1663   0.6749   0.7994     H
C        0.182   0.2887   0.4547     C
C        0.182   0.7113   0.9547     C
N       0.1892   0.3908   0.6196     N
N       0.1892   0.6092   0.1196     N
H        0.205   0.3567   0.7642     H
H        0.205   0.6433   0.2642     H
H       0.2342    0.058   0.3602     H
H       0.2342    0.942   0.8602     H
H       0.2658    0.442   0.6398     H
H       0.2658    0.558   0.1398     H
H        0.295   0.1433   0.2358     H
H        0.295   0.8567   0.7358     H
N       0.3108   0.1092   0.3804     N
N       0.3108   0.8908   0.8804     N
C        0.318   0.2113   0.5453     C
C        0.318   0.7887   0.0453     C
H       0.3337   0.1749   0.7006     H
H       0.3337   0.8251   0.2006     H
H       0.4007   0.2664   0.5682     H
H       0.4007   0.7336   0.0682     H
Ag         0.5      0.0      0.0    Ag
Ag         0.5      0.0      0.5    Ag
H       0.5993   0.2664   0.9318     H
H       0.5993   0.7336   0.4318     H
H       0.6663   0.1749   0.7994     H
H       0.6663   0.8251   0.2994     H
C        0.682   0.2113   0.9547     C
C        0.682   0.7887   0.4547     C
N       0.6892   0.1092   0.1196     N
N       0.6892   0.8908   0.6196     N
H        0.705   0.1433   0.2642     H
H        0.705   0.8567   0.7642     H
H       0.7342    0.442   0.8602     H
H       0.7342    0.558   0.3602     H
H       0.7658    0.058   0.1398     H
H       0.7658    0.942   0.6398     H
H        0.795   0.3567   0.7358     H
H        0.795   0.6433   0.2358     H
N       0.8108   0.3908   0.8804     N
N       0.8108   0.6092   0.3804     N
C        0.818   0.2887   0.0453     C
C        0.818   0.7113   0.5453     C
H       0.8337   0.3251   0.2006     H
H       0.8337   0.6749   0.7006     H
H       0.9007   0.2336   0.0682     H
H       0.9007   0.7664   0.5682     H
