data_I
_chemical_name_common  '/home/zhangsd/repos/MofS-CGCNN/ML/data/SSD/clean_cifs/MAGVOG19_clean'
_cell_length_a 10.47670
_cell_length_b 10.48740
_cell_length_c  6.32250
_cell_angle_alpha 90.00000
_cell_angle_beta  115.38500
_cell_angle_gamma 90.00000
_space_group_name_H-M_alt      'P 1'


loop_
_space_group_symop_operation_xyz
  'x, y, z' 

loop_
_atom_site_label
_atom_site_fract_x
_atom_site_fract_y
_atom_site_fract_z
_atom_site_type_symbol
Ag         0.0      0.5      0.0    Ag
Ag         0.0      0.5      0.5    Ag
H       0.1029   0.2355   0.4173     H
H       0.1029   0.7645   0.9173     H
H       0.1741   0.3303   0.3087     H
H       0.1741   0.6697   0.8087     H
C       0.1843   0.2902   0.4533     C
C       0.1843   0.7098   0.9533     C
N       0.1857   0.3891   0.6179     N
N       0.1857   0.6109   0.1179     N
H       0.1991   0.3517   0.7539     H
H       0.1991   0.6483   0.2539     H
H       0.2404   0.0588   0.3532     H
H       0.2404   0.9412   0.8532     H
H       0.2596   0.4412   0.6468     H
H       0.2596   0.5588   0.1468     H
H       0.3009   0.1483   0.2461     H
H       0.3009   0.8517   0.7461     H
N       0.3143   0.1109   0.3821     N
N       0.3143   0.8891   0.8821     N
C       0.3157   0.2098   0.5467     C
C       0.3157   0.7902   0.0467     C
H       0.3259   0.1697   0.6913     H
H       0.3259   0.8303   0.1913     H
H       0.3971   0.2645   0.5827     H
H       0.3971   0.7355   0.0827     H
Ag         0.5      0.0      0.0    Ag
Ag         0.5      0.0      0.5    Ag
H       0.6029   0.2645   0.9173     H
H       0.6029   0.7355   0.4173     H
H       0.6741   0.1697   0.8087     H
H       0.6741   0.8303   0.3087     H
C       0.6843   0.2098   0.9533     C
C       0.6843   0.7902   0.4533     C
N       0.6857   0.1109   0.1179     N
N       0.6857   0.8891   0.6179     N
H       0.6991   0.1483   0.2539     H
H       0.6991   0.8517   0.7539     H
H       0.7404   0.4412   0.8532     H
H       0.7404   0.5588   0.3532     H
H       0.7596   0.0588   0.1468     H
H       0.7596   0.9412   0.6468     H
H       0.8009   0.3517   0.7461     H
H       0.8009   0.6483   0.2461     H
N       0.8143   0.3891   0.8821     N
N       0.8143   0.6109   0.3821     N
C       0.8157   0.2902   0.0467     C
C       0.8157   0.7098   0.5467     C
H       0.8259   0.3303   0.1913     H
H       0.8259   0.6697   0.6913     H
H       0.8971   0.2355   0.0827     H
H       0.8971   0.7645   0.5827     H
