data_I
_chemical_name_common  '/home/zhangsd/repos/MofS-CGCNN/ML/data/SSD/clean_cifs/MAGVOG03_clean'
_cell_length_a 10.52100
_cell_length_b 10.42600
_cell_length_c  6.20200
_cell_angle_alpha 90.00000
_cell_angle_beta  115.00000
_cell_angle_gamma 90.00000
_space_group_name_H-M_alt      'P 1'


loop_
_space_group_symop_operation_xyz
  'x, y, z' 

loop_
_atom_site_label
_atom_site_fract_x
_atom_site_fract_y
_atom_site_fract_z
_atom_site_type_symbol
Ag         0.0      0.5      0.0    Ag
Ag         0.0      0.5      0.5    Ag
H       0.1046   0.2366   0.4255     H
H       0.1046   0.7634   0.9255     H
H       0.1731   0.3287   0.3039     H
H       0.1731   0.6713   0.8039     H
C       0.1856   0.2902    0.454     C
C       0.1856   0.7098    0.954     C
N        0.195   0.3917    0.624     N
N        0.195   0.6083    0.124     N
H       0.2129   0.3564   0.7667     H
H       0.2129   0.6436   0.2667     H
H       0.2338   0.0551   0.3573     H
H       0.2338   0.9449   0.8573     H
H       0.2662   0.4449   0.6427     H
H       0.2662   0.5551   0.1427     H
H       0.2871   0.1436   0.2333     H
H       0.2871   0.8564   0.7333     H
N        0.305   0.1083    0.376     N
N        0.305   0.8917    0.876     N
C       0.3144   0.2098    0.546     C
C       0.3144   0.7902    0.046     C
H       0.3269   0.1713   0.6961     H
H       0.3269   0.8287   0.1961     H
H       0.3954   0.2634   0.5745     H
H       0.3954   0.7366   0.0745     H
Ag         0.5      0.0      0.0    Ag
Ag         0.5      0.0      0.5    Ag
H       0.6046   0.2634   0.9255     H
H       0.6046   0.7366   0.4255     H
H       0.6731   0.1713   0.8039     H
H       0.6731   0.8287   0.3039     H
C       0.6856   0.2098    0.954     C
C       0.6856   0.7902    0.454     C
N        0.695   0.1083    0.124     N
N        0.695   0.8917    0.624     N
H       0.7129   0.1436   0.2667     H
H       0.7129   0.8564   0.7667     H
H       0.7338   0.4449   0.8573     H
H       0.7338   0.5551   0.3573     H
H       0.7662   0.0551   0.1427     H
H       0.7662   0.9449   0.6427     H
H       0.7871   0.3564   0.7333     H
H       0.7871   0.6436   0.2333     H
N        0.805   0.3917    0.876     N
N        0.805   0.6083    0.376     N
C       0.8144   0.2902    0.046     C
C       0.8144   0.7098    0.546     C
H       0.8269   0.3287   0.1961     H
H       0.8269   0.6713   0.6961     H
H       0.8954   0.2366   0.0745     H
H       0.8954   0.7634   0.5745     H
