data_I
_chemical_name_common  '/home/zhangsd/repos/MofS-CGCNN/ML/data/SSD/clean_cifs/MAGVOG31_clean'
_cell_length_a 10.36120
_cell_length_b 10.56860
_cell_length_c  6.26690
_cell_angle_alpha 90.00000
_cell_angle_beta  114.90700
_cell_angle_gamma 90.00000
_space_group_name_H-M_alt      'P 1'


loop_
_space_group_symop_operation_xyz
  'x, y, z' 

loop_
_atom_site_label
_atom_site_fract_x
_atom_site_fract_y
_atom_site_fract_z
_atom_site_type_symbol
Ag         0.0      0.5      0.0    Ag
Ag         0.0      0.5      0.5    Ag
H       0.1015   0.2344   0.4268     H
H       0.1015   0.7656   0.9268     H
H       0.1695   0.3274   0.3041     H
H       0.1695   0.6726   0.8041     H
C       0.1833   0.2894   0.4548     C
C       0.1833   0.7106   0.9548     C
N       0.1881   0.3901   0.6192     N
N       0.1881   0.6099   0.1192     N
H       0.2032   0.3547   0.7601     H
H       0.2032   0.6453   0.2601     H
H       0.2369   0.0581   0.3573     H
H       0.2369   0.9419   0.8573     H
H       0.2631   0.4419   0.6427     H
H       0.2631   0.5581   0.1427     H
H       0.2968   0.1453   0.2399     H
H       0.2968   0.8547   0.7399     H
N       0.3119   0.1099   0.3808     N
N       0.3119   0.8901   0.8808     N
C       0.3167   0.2106   0.5452     C
C       0.3167   0.7894   0.0452     C
H       0.3305   0.1726   0.6959     H
H       0.3305   0.8274   0.1959     H
H       0.3985   0.2656   0.5732     H
H       0.3985   0.7344   0.0732     H
Ag         0.5      0.0      0.0    Ag
Ag         0.5      0.0      0.5    Ag
H       0.6015   0.2656   0.9268     H
H       0.6015   0.7344   0.4268     H
H       0.6695   0.1726   0.8041     H
H       0.6695   0.8274   0.3041     H
C       0.6833   0.2106   0.9548     C
C       0.6833   0.7894   0.4548     C
N       0.6881   0.1099   0.1192     N
N       0.6881   0.8901   0.6192     N
H       0.7032   0.1453   0.2601     H
H       0.7032   0.8547   0.7601     H
H       0.7369   0.4419   0.8573     H
H       0.7369   0.5581   0.3573     H
H       0.7631   0.0581   0.1427     H
H       0.7631   0.9419   0.6427     H
H       0.7968   0.3547   0.7399     H
H       0.7968   0.6453   0.2399     H
N       0.8119   0.3901   0.8808     N
N       0.8119   0.6099   0.3808     N
C       0.8167   0.2894   0.0452     C
C       0.8167   0.7106   0.5452     C
H       0.8305   0.3274   0.1959     H
H       0.8305   0.6726   0.6959     H
H       0.8985   0.2344   0.0732     H
H       0.8985   0.7656   0.5732     H
