data_I
_chemical_name_common  '/home/zhangsd/repos/MofS-CGCNN/ML/data/SSD/clean_cifs/MAGVOG18_clean'
_cell_length_a 10.46180
_cell_length_b 10.49470
_cell_length_c  6.31300
_cell_angle_alpha 90.00000
_cell_angle_beta  115.31800
_cell_angle_gamma 90.00000
_space_group_name_H-M_alt      'P 1'


loop_
_space_group_symop_operation_xyz
  'x, y, z' 

loop_
_atom_site_label
_atom_site_fract_x
_atom_site_fract_y
_atom_site_fract_z
_atom_site_type_symbol
Ag         0.0      0.5      0.0    Ag
Ag         0.0      0.5      0.5    Ag
H       0.1032   0.2354   0.4183     H
H       0.1032   0.7646   0.9183     H
H       0.1742     0.33   0.3088     H
H       0.1742     0.67   0.8088     H
C       0.1846     0.29   0.4538     C
C       0.1846     0.71   0.9538     C
N        0.186   0.3891   0.6183     N
N        0.186   0.6109   0.1183     N
H       0.1993   0.3518   0.7546     H
H       0.1993   0.6482   0.2546     H
H         0.24   0.0589    0.353     H
H         0.24   0.9411    0.853     H
H         0.26   0.4411    0.647     H
H         0.26   0.5589    0.147     H
H       0.3007   0.1482   0.2454     H
H       0.3007   0.8518   0.7454     H
N        0.314   0.1109   0.3817     N
N        0.314   0.8891   0.8817     N
C       0.3154     0.21   0.5462     C
C       0.3154     0.79   0.0462     C
H       0.3258     0.17   0.6912     H
H       0.3258     0.83   0.1912     H
H       0.3968   0.2646   0.5817     H
H       0.3968   0.7354   0.0817     H
Ag         0.5      0.0      0.0    Ag
Ag         0.5      0.0      0.5    Ag
H       0.6032   0.2646   0.9183     H
H       0.6032   0.7354   0.4183     H
H       0.6742     0.17   0.8088     H
H       0.6742     0.83   0.3088     H
C       0.6846     0.21   0.9538     C
C       0.6846     0.79   0.4538     C
N        0.686   0.1109   0.1183     N
N        0.686   0.8891   0.6183     N
H       0.6993   0.1482   0.2546     H
H       0.6993   0.8518   0.7546     H
H         0.74   0.4411    0.853     H
H         0.74   0.5589    0.353     H
H         0.76   0.0589    0.147     H
H         0.76   0.9411    0.647     H
H       0.8007   0.3518   0.7454     H
H       0.8007   0.6482   0.2454     H
N        0.814   0.3891   0.8817     N
N        0.814   0.6109   0.3817     N
C       0.8154     0.29   0.0462     C
C       0.8154     0.71   0.5462     C
H       0.8258     0.33   0.1912     H
H       0.8258     0.67   0.6912     H
H       0.8968   0.2354   0.0817     H
H       0.8968   0.7646   0.5817     H
