data_I
_chemical_name_common  '/home/zhangsd/repos/MofS-CGCNN/ML/data/SSD/clean_cifs/MAPHAP_clean'
_cell_length_a  8.45150
_cell_length_b 12.39720
_cell_length_c 12.56800
_cell_angle_alpha 110.45300
_cell_angle_beta  102.13200
_cell_angle_gamma 109.61900
_space_group_name_H-M_alt      'P 1'


loop_
_space_group_symop_operation_xyz
  'x, y, z' 

loop_
_atom_site_label
_atom_site_fract_x
_atom_site_fract_y
_atom_site_fract_z
_atom_site_type_symbol
C       0.0003   0.1342   0.2039     C
C       0.0074   0.5295   0.0617     C
C       0.0143   0.7489     0.45     C
O       0.0282   0.6717   0.4932     O
H         0.03   0.8283   0.7283     H
H       0.0551   0.9511   0.4081     H
C       0.0913   0.0235   0.0044     C
H       0.1149   0.3886   0.8303     H
C       0.1234   0.4283   0.9124     C
C       0.1319   0.9622   0.9032     C
O        0.139   0.2661   0.6073     O
C       0.1507   0.5455   0.1558     C
H       0.1614   0.5852   0.2384     H
C       0.1694   0.9521   0.4356     C
C       0.1821    0.179   0.2149     C
C       0.1823   0.8529   0.4638     C
C       0.2265    0.127   0.1167     C
H       0.2546   0.9892   0.9103     H
C       0.2617   0.4449   0.0057     C
C       0.2759   0.5035   0.1282     C
O       0.2835    0.327   0.4216     O
Yb     0.29403  0.45853  0.59639    Yb
H       0.3149   0.1167   0.4318     H
C        0.323   0.0492   0.4484     C
C       0.3285   0.2914   0.3315     C
C       0.3466   0.8534   0.5031     C
H       0.3489   0.4167   0.9878     H
H       0.3492   0.1608   0.1239     H
H       0.3536   0.7878   0.5236     H
C       0.4301   0.5213   0.2275     C
O       0.4408   0.5666   0.3389     O
O       0.4497   0.5085    0.799     O
O        0.484   0.3415   0.3322     O
C       0.4934   0.0494   0.4863     C
C       0.5066   0.9506   0.5137     C
O        0.516   0.6585   0.6678     O
O       0.5503   0.4915    0.201     O
O       0.5592   0.4334   0.6611     O
C       0.5699   0.4787   0.7725     C
H       0.6464   0.2122   0.4764     H
H       0.6508   0.8392   0.8761     H
H       0.6511   0.5833   0.0122     H
C       0.6534   0.1466   0.4969     C
C       0.6715   0.7086   0.6685     C
C        0.677   0.9508   0.5516     C
H       0.6851   0.8833   0.5682     H
Yb     0.70597  0.54147  0.40361    Yb
O       0.7165    0.673   0.5784     O
C       0.7241   0.4965   0.8718     C
C       0.7383   0.5551   0.9943     C
H       0.7454   0.0108   0.0897     H
C       0.7735    0.873   0.8833     C
C       0.8177   0.1471   0.5362     C
C       0.8179    0.821   0.7851     C
C       0.8306   0.0479   0.5644     C
H       0.8386   0.4148   0.7616     H
C       0.8493   0.4545   0.8442     C
O        0.861   0.7339   0.3927     O
C       0.8681   0.0378   0.0968     C
C       0.8766   0.5717   0.0876     C
H       0.8851   0.6114   0.1697     H
C       0.9087   0.9765   0.9956     C
H       0.9449   0.0489   0.5919     H
H         0.97   0.1717   0.2717     H
O       0.9718   0.3283   0.5068     O
C       0.9857   0.2511     0.55     C
C       0.9926   0.4705   0.9383     C
C       0.9997   0.8658   0.7961     C
