data_I
_chemical_name_common  '/home/zhangsd/repos/MofS-CGCNN/ML/data/SSD/clean_cifs/MATTUX_clean'
_cell_length_a 12.97580
_cell_length_b 13.10950
_cell_length_c 13.92580
_cell_angle_alpha 85.31000
_cell_angle_beta  70.71000
_cell_angle_gamma 84.19300
_space_group_name_H-M_alt      'P 1'


loop_
_space_group_symop_operation_xyz
  'x, y, z' 

loop_
_atom_site_label
_atom_site_fract_x
_atom_site_fract_y
_atom_site_fract_z
_atom_site_type_symbol
O       0.0226   0.3263  0.72878     O
O       0.0339  0.66515  0.10177     O
C      0.05161  0.67168  0.18473     C
H       0.0652   0.4502   0.3731     H
H       0.0816   0.4663   0.0604     H
H       0.0909   0.4483   0.5286     H
H        0.099   0.4676   0.2163     H
H       0.1056   0.8234   0.9765     H
C      0.10862   0.4044  0.08729     C
C       0.1111   0.3968  0.39198     C
H       0.1171   0.9989   0.9572     H
C      0.11798  0.40591  0.18094     C
H       0.1196   0.1749   0.0583     H
H       0.1247   0.6555   0.8984     H
C      0.12525  0.85621  0.91027     C
C       0.1258  0.39399  0.48513     C
H       0.1279   0.6949   0.3317     H
Zn     0.12893  0.32562  0.88645    Zn
C       0.1295  0.23595  0.08545     C
O      0.13121  0.47804  0.84895     O
C      0.13174  0.96021  0.89872     C
O      0.13347  0.17274  0.87144     O
N      0.13399  0.32378  0.02964     N
H       0.1353   0.1672   0.2175     H
C       0.1386   0.2312  0.17975     C
C      0.14218  0.68976  0.83284     C
C      0.14766  0.79746  0.82417     C
C      0.15326  0.32222   0.2235     C
C      0.15746  0.51922  0.76033     C
C      0.15991  0.01121  0.80109     C
C      0.16133   0.6341  0.74972     C
C       0.1628  0.12564  0.79067     C
C      0.16399  0.32067  0.32588     C
C      0.16702  0.67306  0.18291     C
C         0.17  0.68825  0.65604     C
H       0.1704   0.6497    0.601     H
C      0.17558  0.84751  0.72662     C
C       0.1776  0.78769  0.63848     C
O        0.181   0.4728  0.67859     O
C      0.18166  0.95484  0.71665     C
H       0.1841     0.82   0.5734     H
N      0.18601  0.32008   0.5192     N
C       0.1866  0.23133  0.37423     C
C      0.18748  0.68673  0.27029     C
O      0.19199  0.16632  0.70096     O
Zn     0.19248  0.31891  0.66323    Zn
C       0.1954    0.234  0.47046     C
H       0.1962    0.168   0.3426     H
H        0.201   0.9886   0.6508     H
H        0.209   0.1706   0.5041     H
H         0.24   0.6526   0.0293     H
C      0.25461  0.66078  0.09066     C
H       0.2628   0.7121   0.4235     H
C      0.29565  0.68906  0.27169     C
O      0.29685  0.31456   0.8176     O
C      0.32093  0.70314  0.36121     C
O      0.35438  0.31195   0.6486     O
C      0.35976  0.66072  0.08984     C
C      0.37024  0.31186  0.73314     C
C      0.38429  0.67592  0.17867     C
H        0.418   0.6502   0.0279     H
C      0.42512  0.70414  0.36031     C
H       0.4394   0.7136   0.4215     H
H        0.449   0.3294   0.8805     H
C      0.48739  0.30886    0.731     C
C      0.49134  0.67825  0.18101     C
C      0.50866  0.32175  0.81899     C
C      0.51261  0.69114    0.269     C
H        0.551   0.6706   0.1195     H
H       0.5606   0.2864   0.5785     H
C      0.57488  0.29586  0.63969     C
H        0.582   0.3498   0.9721     H
C      0.61571  0.32408  0.82133     C
C      0.62976  0.68814  0.26686     C
C      0.64024  0.33928  0.91016     C
O      0.64562  0.68805   0.3514     O
C      0.67907  0.29686  0.63879     C
O      0.70315  0.68544   0.1824     O
C      0.70435  0.31094  0.72831     C
H       0.7372   0.2879   0.5765     H
C      0.74539  0.33922  0.90934     C
H         0.76   0.3474   0.9707     H
H        0.791   0.8294   0.4959     H
H        0.799   0.0114   0.3492     H
H       0.8038    0.832   0.6574     H
C       0.8046    0.766  0.52954     C
Zn     0.80752  0.68109  0.33677    Zn
O      0.80801  0.83368  0.29904     O
C      0.81252  0.31327  0.72971     C
C       0.8134  0.76867  0.62577     C
N      0.81399  0.67992   0.4808     N
H       0.8159     0.18   0.4266     H
C      0.81834  0.04516  0.28335     C
O        0.819   0.5272  0.32141     O
C       0.8224  0.21231  0.36152     C
C      0.82442  0.15249  0.27338     C
H       0.8296   0.3503    0.399     H
C         0.83  0.31175  0.34396     C
C      0.83298  0.32694  0.81709     C
C      0.83601  0.67933  0.67412     C
C       0.8372  0.87436  0.20933     C
C      0.83867   0.3659  0.25028     C
C      0.84009  0.98879  0.19891     C
C      0.84254  0.48078  0.23967     C
C      0.84674  0.67778   0.7765     C
C      0.85234  0.20254  0.17583     C
C      0.85782  0.31024  0.16716     C
C       0.8614   0.7688  0.82025     C
H       0.8647   0.8328   0.7825     H
N      0.86601  0.67622  0.97036     N
O      0.86653  0.82726  0.12856     O
C      0.86826  0.03979  0.10128     C
O      0.86879  0.52196  0.15105     O
C       0.8705  0.76405  0.91455     C
Zn     0.87107  0.67438  0.11355    Zn
H       0.8721   0.3051   0.6683     H
C       0.8742  0.60601  0.51487     C
C      0.87475  0.14379  0.08973     C
H       0.8753   0.3445   0.1016     H
H       0.8804   0.8251   0.9417     H
C      0.88202  0.59409  0.81906     C
H       0.8829   0.0011   0.0428     H
C       0.8889   0.6032  0.60802     C
C      0.89138   0.5956  0.91271     C
H       0.8944   0.1766   0.0235     H
H        0.901   0.5324   0.7837     H
H       0.9091   0.5517   0.4714     H
H       0.9184   0.5337   0.9396     H
H       0.9348   0.5498   0.6269     H
C      0.94839  0.32832  0.81527     C
O       0.9661  0.33485  0.89823     O
O       0.9774   0.6737  0.27122     O
