data_I
_chemical_name_common  '/home/zhangsd/repos/MofS-CGCNN/ML/data/SSD/clean_cifs/MAXHOJ01_clean'
_cell_length_a 29.60100
_cell_length_b 29.60100
_cell_length_c  3.44960
_cell_angle_alpha 90.00000
_cell_angle_beta  90.00000
_cell_angle_gamma 90.00000
_space_group_name_H-M_alt      'P 1'


loop_
_space_group_symop_operation_xyz
  'x, y, z' 

loop_
_atom_site_label
_atom_site_fract_x
_atom_site_fract_y
_atom_site_fract_z
_atom_site_type_symbol
Ag         0.0      0.0      0.0    Ag
N          0.0   0.0665    0.784     N
N          0.0   0.4335    0.784     N
Ag         0.0      0.5      0.0    Ag
N          0.0   0.5665    0.216     N
N          0.0   0.9335    0.216     N
N      0.02323  0.13334   0.5767     N
N      0.02323  0.36666   0.5767     N
N      0.02323  0.63334   0.4233     N
N      0.02323  0.86666   0.4233     N
C       0.0354  0.09266   0.7027     C
C       0.0354  0.40734   0.7027     C
C       0.0354  0.59266   0.2973     C
C       0.0354  0.90734   0.2973     C
Ag     0.06039  0.18961    0.375    Ag
Ag     0.06039  0.31039    0.375    Ag
Ag     0.06039  0.68961    0.625    Ag
Ag     0.06039  0.81039    0.625    Ag
H       0.0662   0.0831   0.7315     H
H       0.0662   0.4169   0.7315     H
H       0.0662   0.5831   0.2685     H
H       0.0662   0.9169   0.2685     H
N       0.0839   0.0806    0.741     N
N       0.0839   0.4194    0.741     N
N       0.0839   0.5806    0.259     N
N       0.0839   0.9194    0.259     N
H       0.0914   0.0542   0.8232     H
H       0.0914   0.4458   0.8232     H
H       0.0914   0.5542   0.1768     H
H       0.0914   0.9458   0.1768     H
H       0.1044      0.1   0.6823     H
H       0.1044      0.4   0.6823     H
H       0.1044      0.6   0.3177     H
H       0.1044      0.9   0.3177     H
N      0.11666  0.22677   0.1733     N
N      0.11666  0.27323   0.1733     N
N      0.11666  0.72677   0.8267     N
N      0.11666  0.77323   0.8267     N
H         0.15   0.1456   0.0677     H
H         0.15   0.3544   0.0677     H
H         0.15   0.6456   0.9323     H
H         0.15   0.8544   0.9323     H
C      0.15734   0.2146   0.0473     C
C      0.15734   0.2854   0.0473     C
C      0.15734   0.7146   0.9527     C
C      0.15734   0.7854   0.9527     C
H       0.1669   0.1838   0.0185     H
H       0.1669   0.3162   0.0185     H
H       0.1669   0.6838   0.9815     H
H       0.1669   0.8162   0.9815     H
N       0.1694   0.1661    0.009     N
N       0.1694   0.3339    0.009     N
N       0.1694   0.6661    0.991     N
N       0.1694   0.8339    0.991     N
N       0.1835     0.25    0.966     N
N       0.1835     0.75    0.034     N
H       0.1958   0.1586   0.9268     H
H       0.1958   0.3414   0.9268     H
H       0.1958   0.6586   0.0732     H
H       0.1958   0.8414   0.0732     H
Ag        0.25     0.25     0.75    Ag
Ag        0.25     0.75     0.25    Ag
H       0.3042   0.1586   0.5732     H
H       0.3042   0.3414   0.5732     H
H       0.3042   0.6586   0.4268     H
H       0.3042   0.8414   0.4268     H
N       0.3165     0.25    0.534     N
N       0.3165     0.75    0.466     N
N       0.3306   0.1661    0.491     N
N       0.3306   0.3339    0.491     N
N       0.3306   0.6661    0.509     N
N       0.3306   0.8339    0.509     N
H       0.3331   0.1838   0.4815     H
H       0.3331   0.3162   0.4815     H
H       0.3331   0.6838   0.5185     H
H       0.3331   0.8162   0.5185     H
C      0.34266   0.2146   0.4527     C
C      0.34266   0.2854   0.4527     C
C      0.34266   0.7146   0.5473     C
C      0.34266   0.7854   0.5473     C
H         0.35   0.1456   0.4323     H
H         0.35   0.3544   0.4323     H
H         0.35   0.6456   0.5677     H
H         0.35   0.8544   0.5677     H
N      0.38334  0.22677   0.3267     N
N      0.38334  0.27323   0.3267     N
N      0.38334  0.72677   0.6733     N
N      0.38334  0.77323   0.6733     N
H       0.3956      0.1   0.8177     H
H       0.3956      0.4   0.8177     H
H       0.3956      0.6   0.1823     H
H       0.3956      0.9   0.1823     H
H       0.4086   0.0542   0.6768     H
H       0.4086   0.4458   0.6768     H
H       0.4086   0.5542   0.3232     H
H       0.4086   0.9458   0.3232     H
N       0.4161   0.0806    0.759     N
N       0.4161   0.4194    0.759     N
N       0.4161   0.5806    0.241     N
N       0.4161   0.9194    0.241     N
H       0.4338   0.0831   0.7685     H
H       0.4338   0.4169   0.7685     H
H       0.4338   0.5831   0.2315     H
H       0.4338   0.9169   0.2315     H
Ag     0.43961  0.18961    0.125    Ag
Ag     0.43961  0.31039    0.125    Ag
Ag     0.43961  0.68961    0.875    Ag
Ag     0.43961  0.81039    0.875    Ag
C       0.4646  0.09266   0.7973     C
C       0.4646  0.40734   0.7973     C
C       0.4646  0.59266   0.2027     C
C       0.4646  0.90734   0.2027     C
N      0.47677  0.13334   0.9233     N
N      0.47677  0.36666   0.9233     N
N      0.47677  0.63334   0.0767     N
N      0.47677  0.86666   0.0767     N
Ag         0.5      0.0      0.5    Ag
N          0.5   0.0665    0.716     N
N          0.5   0.4335    0.716     N
Ag         0.5      0.5      0.5    Ag
N          0.5   0.5665    0.284     N
N          0.5   0.9335    0.284     N
N      0.52323  0.13334   0.9233     N
N      0.52323  0.36666   0.9233     N
N      0.52323  0.63334   0.0767     N
N      0.52323  0.86666   0.0767     N
C       0.5354  0.09266   0.7973     C
C       0.5354  0.40734   0.7973     C
C       0.5354  0.59266   0.2027     C
C       0.5354  0.90734   0.2027     C
Ag     0.56039  0.18961    0.125    Ag
Ag     0.56039  0.31039    0.125    Ag
Ag     0.56039  0.68961    0.875    Ag
Ag     0.56039  0.81039    0.875    Ag
H       0.5662   0.0831   0.7685     H
H       0.5662   0.4169   0.7685     H
H       0.5662   0.5831   0.2315     H
H       0.5662   0.9169   0.2315     H
N       0.5839   0.0806    0.759     N
N       0.5839   0.4194    0.759     N
N       0.5839   0.5806    0.241     N
N       0.5839   0.9194    0.241     N
H       0.5914   0.0542   0.6768     H
H       0.5914   0.4458   0.6768     H
H       0.5914   0.5542   0.3232     H
H       0.5914   0.9458   0.3232     H
H       0.6044      0.1   0.8177     H
H       0.6044      0.4   0.8177     H
H       0.6044      0.6   0.1823     H
H       0.6044      0.9   0.1823     H
N      0.61666  0.22677   0.3267     N
N      0.61666  0.27323   0.3267     N
N      0.61666  0.72677   0.6733     N
N      0.61666  0.77323   0.6733     N
H         0.65   0.1456   0.4323     H
H         0.65   0.3544   0.4323     H
H         0.65   0.6456   0.5677     H
H         0.65   0.8544   0.5677     H
C      0.65734   0.2146   0.4527     C
C      0.65734   0.2854   0.4527     C
C      0.65734   0.7146   0.5473     C
C      0.65734   0.7854   0.5473     C
H       0.6669   0.1838   0.4815     H
H       0.6669   0.3162   0.4815     H
H       0.6669   0.6838   0.5185     H
H       0.6669   0.8162   0.5185     H
N       0.6694   0.1661    0.491     N
N       0.6694   0.3339    0.491     N
N       0.6694   0.6661    0.509     N
N       0.6694   0.8339    0.509     N
N       0.6835     0.25    0.534     N
N       0.6835     0.75    0.466     N
H       0.6958   0.1586   0.5732     H
H       0.6958   0.3414   0.5732     H
H       0.6958   0.6586   0.4268     H
H       0.6958   0.8414   0.4268     H
Ag        0.75     0.25     0.75    Ag
Ag        0.75     0.75     0.25    Ag
H       0.8042   0.1586   0.9268     H
H       0.8042   0.3414   0.9268     H
H       0.8042   0.6586   0.0732     H
H       0.8042   0.8414   0.0732     H
N       0.8165     0.25    0.966     N
N       0.8165     0.75    0.034     N
N       0.8306   0.1661    0.009     N
N       0.8306   0.3339    0.009     N
N       0.8306   0.6661    0.991     N
N       0.8306   0.8339    0.991     N
H       0.8331   0.1838   0.0185     H
H       0.8331   0.3162   0.0185     H
H       0.8331   0.6838   0.9815     H
H       0.8331   0.8162   0.9815     H
C      0.84266   0.2146   0.0473     C
C      0.84266   0.2854   0.0473     C
C      0.84266   0.7146   0.9527     C
C      0.84266   0.7854   0.9527     C
H         0.85   0.1456   0.0677     H
H         0.85   0.3544   0.0677     H
H         0.85   0.6456   0.9323     H
H         0.85   0.8544   0.9323     H
N      0.88334  0.22677   0.1733     N
N      0.88334  0.27323   0.1733     N
N      0.88334  0.72677   0.8267     N
N      0.88334  0.77323   0.8267     N
H       0.8956      0.1   0.6823     H
H       0.8956      0.4   0.6823     H
H       0.8956      0.6   0.3177     H
H       0.8956      0.9   0.3177     H
H       0.9086   0.0542   0.8232     H
H       0.9086   0.4458   0.8232     H
H       0.9086   0.5542   0.1768     H
H       0.9086   0.9458   0.1768     H
N       0.9161   0.0806    0.741     N
N       0.9161   0.4194    0.741     N
N       0.9161   0.5806    0.259     N
N       0.9161   0.9194    0.259     N
H       0.9338   0.0831   0.7315     H
H       0.9338   0.4169   0.7315     H
H       0.9338   0.5831   0.2685     H
H       0.9338   0.9169   0.2685     H
Ag     0.93961  0.18961    0.375    Ag
Ag     0.93961  0.31039    0.375    Ag
Ag     0.93961  0.68961    0.625    Ag
Ag     0.93961  0.81039    0.625    Ag
C       0.9646  0.09266   0.7027     C
C       0.9646  0.40734   0.7027     C
C       0.9646  0.59266   0.2973     C
C       0.9646  0.90734   0.2973     C
N      0.97677  0.13334   0.5767     N
N      0.97677  0.36666   0.5767     N
N      0.97677  0.63334   0.4233     N
N      0.97677  0.86666   0.4233     N
