data_I
_chemical_name_common  '/home/zhangsd/repos/MofS-CGCNN/ML/data/SSD/clean_cifs/MAXHOJ_clean'
_cell_length_a  3.40990
_cell_length_b 39.80500
_cell_length_c 43.60700
_cell_angle_alpha 90.00000
_cell_angle_beta  90.00000
_cell_angle_gamma 90.00000
_space_group_name_H-M_alt      'P 1'


loop_
_space_group_symop_operation_xyz
  'x, y, z' 

loop_
_atom_site_label
_atom_site_fract_x
_atom_site_fract_y
_atom_site_fract_z
_atom_site_type_symbol
Ag         0.0      0.0      0.0    Ag
Ag         0.0     0.25     0.25    Ag
Ag         0.0      0.5      0.5    Ag
Ag         0.0     0.75     0.75    Ag
H       0.0053   0.2513   0.4273     H
H       0.0053   0.4987   0.3227     H
H       0.0053   0.7513   0.9273     H
H       0.0053   0.9987   0.8227     H
H       0.0116   0.3273   0.4848     H
H       0.0116   0.4227   0.2652     H
H       0.0116   0.8273   0.9848     H
H       0.0116   0.9227   0.7652     H
N        0.015   0.0096   0.8268     N
N        0.015   0.2404   0.4232     N
N        0.015   0.5096   0.3268     N
N        0.015   0.7404   0.9232     N
N        0.029   0.3349   0.4941     N
N        0.029   0.4151   0.2559     N
N        0.029   0.8349   0.9941     N
N        0.029   0.9151   0.7559     N
N        0.038   0.0311   0.2152     N
N        0.038   0.2189   0.0348     N
N        0.038   0.5311   0.7152     N
N        0.038   0.7189   0.5348     N
C        0.044   0.2732   0.4359     C
C        0.044   0.4768   0.3141     C
C        0.044   0.7732   0.9359     C
C        0.044   0.9768   0.8141     C
H        0.046   0.0758   0.2621     H
H        0.046   0.1742   0.9879     H
H        0.046   0.5758   0.7621     H
H        0.046   0.6742   0.4879     H
C        0.047    0.314   0.4667     C
C        0.047    0.436   0.2833     C
C        0.047    0.814   0.9667     C
C        0.047    0.936   0.7833     C
H       0.0568    0.277   0.0649     H
H       0.0568    0.473   0.6851     H
H       0.0568    0.777   0.5649     H
H       0.0568    0.973   0.1851     H
N        0.066  0.32599  0.80935     N
N        0.066  0.42401  0.94065     N
N        0.066  0.82599  0.30935     N
N        0.066  0.92401  0.44065     N
N        0.072  0.29935  0.82961     N
N        0.072  0.45065  0.92039     N
N        0.072  0.79935  0.32961     N
N        0.072  0.95065  0.42039     N
H       0.0725   0.0129   0.8468     H
H       0.0725   0.2371   0.4032     H
H       0.0725   0.5129   0.3468     H
H       0.0725   0.7371   0.9032     H
H       0.0915   0.3569   0.4931     H
H       0.0915   0.3931   0.2569     H
H       0.0915   0.8569   0.9931     H
H       0.0915   0.8931   0.7569     H
Ag       0.125  0.05574    0.625    Ag
Ag       0.125    0.125  0.57225    Ag
Ag       0.125    0.125  0.67775    Ag
Ag       0.125  0.19426    0.625    Ag
Ag       0.125  0.55574    0.125    Ag
Ag       0.125    0.625  0.07225    Ag
Ag       0.125    0.625  0.17775    Ag
Ag       0.125  0.69426    0.125    Ag
H       0.1585   0.3569   0.7569     H
H       0.1585   0.3931   0.9931     H
H       0.1585   0.8569   0.2569     H
H       0.1585   0.8931   0.4931     H
H       0.1775   0.0129   0.4032     H
H       0.1775   0.2371   0.8468     H
H       0.1775   0.5129   0.9032     H
H       0.1775   0.7371   0.3468     H
N        0.178  0.29935  0.42039     N
N        0.178  0.45065  0.32961     N
N        0.178  0.79935  0.92039     N
N        0.178  0.95065  0.82961     N
N        0.184  0.32599  0.44065     N
N        0.184  0.42401  0.30935     N
N        0.184  0.82599  0.94065     N
N        0.184  0.92401  0.80935     N
H       0.1932    0.277   0.1851     H
H       0.1932    0.473   0.5649     H
H       0.1932    0.777   0.6851     H
H       0.1932    0.973   0.0649     H
C        0.203    0.314   0.7833     C
C        0.203    0.436   0.9667     C
C        0.203    0.814   0.2833     C
C        0.203    0.936   0.4667     C
H        0.204   0.0758   0.9879     H
H        0.204   0.1742   0.2621     H
H        0.204   0.5758   0.4879     H
H        0.204   0.6742   0.7621     H
C        0.206   0.2732   0.8141     C
C        0.206   0.4768   0.9359     C
C        0.206   0.7732   0.3141     C
C        0.206   0.9768   0.4359     C
N        0.212   0.0311   0.0348     N
N        0.212   0.2189   0.2152     N
N        0.212   0.5311   0.5348     N
N        0.212   0.7189   0.7152     N
N        0.221   0.3349   0.7559     N
N        0.221   0.4151   0.9941     N
N        0.221   0.8349   0.2559     N
N        0.221   0.9151   0.4941     N
N        0.235   0.0096   0.4232     N
N        0.235   0.2404   0.8268     N
N        0.235   0.5096   0.9232     N
N        0.235   0.7404   0.3268     N
H       0.2384   0.3273   0.7652     H
H       0.2384   0.4227   0.9848     H
H       0.2384   0.8273   0.2652     H
H       0.2384   0.9227   0.4848     H
H       0.2447   0.2513   0.8227     H
H       0.2447   0.4987   0.9273     H
H       0.2447   0.7513   0.3227     H
H       0.2447   0.9987   0.4273     H
Ag        0.25      0.0     0.25    Ag
Ag        0.25     0.25      0.0    Ag
Ag        0.25      0.5     0.75    Ag
Ag        0.25     0.75      0.5    Ag
H       0.2553   0.0013   0.0727     H
H       0.2553   0.2487   0.1773     H
H       0.2553   0.5013   0.5727     H
H       0.2553   0.7487   0.6773     H
H       0.2616   0.0773   0.0152     H
H       0.2616   0.1727   0.2348     H
H       0.2616   0.5773   0.5152     H
H       0.2616   0.6727   0.7348     H
N        0.265   0.2596   0.1732     N
N        0.265   0.4904   0.5768     N
N        0.265   0.7596   0.6732     N
N        0.265   0.9904   0.0768     N
N        0.279   0.0849   0.0059     N
N        0.279   0.1651   0.2441     N
N        0.279   0.5849   0.5059     N
N        0.279   0.6651   0.7441     N
N        0.288   0.2811   0.7848     N
N        0.288   0.4689   0.9652     N
N        0.288   0.7811   0.2848     N
N        0.288   0.9689   0.4652     N
C        0.294   0.0232   0.0641     C
C        0.294   0.2268   0.1859     C
C        0.294   0.5232   0.5641     C
C        0.294   0.7268   0.6859     C
H        0.296   0.3258   0.7379     H
H        0.296   0.4242   0.0121     H
H        0.296   0.8258   0.2379     H
H        0.296   0.9242   0.5121     H
C        0.297    0.064   0.0333     C
C        0.297    0.186   0.2167     C
C        0.297    0.564   0.5333     C
C        0.297    0.686   0.7167     C
H       0.3068    0.027   0.4351     H
H       0.3068    0.223   0.8149     H
H       0.3068    0.527   0.9351     H
H       0.3068    0.723   0.3149     H
N        0.316  0.07599  0.69065     N
N        0.316  0.17401  0.55935     N
N        0.316  0.57599  0.19065     N
N        0.316  0.67401  0.05935     N
N        0.322  0.04935  0.67039     N
N        0.322  0.20065  0.57961     N
N        0.322  0.54935  0.17039     N
N        0.322  0.70065  0.07961     N
H       0.3225   0.2629   0.1532     H
H       0.3225   0.4871   0.5968     H
H       0.3225   0.7629   0.6532     H
H       0.3225   0.9871   0.0968     H
H       0.3415   0.1069   0.0069     H
H       0.3415   0.1431   0.2431     H
H       0.3415   0.6069   0.5069     H
H       0.3415   0.6431   0.7431     H
Ag       0.375  0.30574    0.375    Ag
Ag       0.375    0.375  0.32225    Ag
Ag       0.375    0.375  0.42775    Ag
Ag       0.375  0.44426    0.375    Ag
Ag       0.375  0.80574    0.875    Ag
Ag       0.375    0.875  0.82225    Ag
Ag       0.375    0.875  0.92775    Ag
Ag       0.375  0.94426    0.875    Ag
H       0.4085   0.1069   0.7431     H
H       0.4085   0.1431   0.5069     H
H       0.4085   0.6069   0.2431     H
H       0.4085   0.6431   0.0069     H
H       0.4275   0.2629   0.5968     H
H       0.4275   0.4871   0.1532     H
H       0.4275   0.7629   0.0968     H
H       0.4275   0.9871   0.6532     H
N        0.428  0.04935  0.07961     N
N        0.428  0.20065  0.17039     N
N        0.428  0.54935  0.57961     N
N        0.428  0.70065  0.67039     N
N        0.434  0.07599  0.05935     N
N        0.434  0.17401  0.19065     N
N        0.434  0.57599  0.55935     N
N        0.434  0.67401  0.69065     N
H       0.4432    0.027   0.3149     H
H       0.4432    0.223   0.9351     H
H       0.4432    0.527   0.8149     H
H       0.4432    0.723   0.4351     H
C        0.453    0.064   0.7167     C
C        0.453    0.186   0.5333     C
C        0.453    0.564   0.2167     C
C        0.453    0.686   0.0333     C
H        0.454   0.3258   0.0121     H
H        0.454   0.4242   0.7379     H
H        0.454   0.8258   0.5121     H
H        0.454   0.9242   0.2379     H
C        0.456   0.0232   0.6859     C
C        0.456   0.2268   0.5641     C
C        0.456   0.5232   0.1859     C
C        0.456   0.7268   0.0641     C
N        0.462   0.2811   0.9652     N
N        0.462   0.4689   0.7848     N
N        0.462   0.7811   0.4652     N
N        0.462   0.9689   0.2848     N
N        0.471   0.0849   0.7441     N
N        0.471   0.1651   0.5059     N
N        0.471   0.5849   0.2441     N
N        0.471   0.6651   0.0059     N
N        0.485   0.2596   0.5768     N
N        0.485   0.4904   0.1732     N
N        0.485   0.7596   0.0768     N
N        0.485   0.9904   0.6732     N
H       0.4884   0.0773   0.7348     H
H       0.4884   0.1727   0.5152     H
H       0.4884   0.5773   0.2348     H
H       0.4884   0.6727   0.0152     H
H       0.4947   0.0013   0.6773     H
H       0.4947   0.2487   0.5727     H
H       0.4947   0.5013   0.1773     H
H       0.4947   0.7487   0.0727     H
Ag         0.5      0.0      0.5    Ag
Ag         0.5     0.25     0.75    Ag
Ag         0.5      0.5      0.0    Ag
Ag         0.5     0.75     0.25    Ag
H       0.5053   0.2513   0.9273     H
H       0.5053   0.4987   0.8227     H
H       0.5053   0.7513   0.4273     H
H       0.5053   0.9987   0.3227     H
H       0.5116   0.3273   0.9848     H
H       0.5116   0.4227   0.7652     H
H       0.5116   0.8273   0.4848     H
H       0.5116   0.9227   0.2652     H
N        0.515   0.0096   0.3268     N
N        0.515   0.2404   0.9232     N
N        0.515   0.5096   0.8268     N
N        0.515   0.7404   0.4232     N
N        0.529   0.3349   0.9941     N
N        0.529   0.4151   0.7559     N
N        0.529   0.8349   0.4941     N
N        0.529   0.9151   0.2559     N
N        0.538   0.0311   0.7152     N
N        0.538   0.2189   0.5348     N
N        0.538   0.5311   0.2152     N
N        0.538   0.7189   0.0348     N
C        0.544   0.2732   0.9359     C
C        0.544   0.4768   0.8141     C
C        0.544   0.7732   0.4359     C
C        0.544   0.9768   0.3141     C
H        0.546   0.0758   0.7621     H
H        0.546   0.1742   0.4879     H
H        0.546   0.5758   0.2621     H
H        0.546   0.6742   0.9879     H
C        0.547    0.314   0.9667     C
C        0.547    0.436   0.7833     C
C        0.547    0.814   0.4667     C
C        0.547    0.936   0.2833     C
H       0.5568    0.277   0.5649     H
H       0.5568    0.473   0.1851     H
H       0.5568    0.777   0.0649     H
H       0.5568    0.973   0.6851     H
N        0.566  0.32599  0.30935     N
N        0.566  0.42401  0.44065     N
N        0.566  0.82599  0.80935     N
N        0.566  0.92401  0.94065     N
N        0.572  0.29935  0.32961     N
N        0.572  0.45065  0.42039     N
N        0.572  0.79935  0.82961     N
N        0.572  0.95065  0.92039     N
H       0.5725   0.0129   0.3468     H
H       0.5725   0.2371   0.9032     H
H       0.5725   0.5129   0.8468     H
H       0.5725   0.7371   0.4032     H
H       0.5915   0.3569   0.9931     H
H       0.5915   0.3931   0.7569     H
H       0.5915   0.8569   0.4931     H
H       0.5915   0.8931   0.2569     H
Ag       0.625  0.05574    0.125    Ag
Ag       0.625    0.125  0.07225    Ag
Ag       0.625    0.125  0.17775    Ag
Ag       0.625  0.19426    0.125    Ag
Ag       0.625  0.55574    0.625    Ag
Ag       0.625    0.625  0.57225    Ag
Ag       0.625    0.625  0.67775    Ag
Ag       0.625  0.69426    0.625    Ag
H       0.6585   0.3569   0.2569     H
H       0.6585   0.3931   0.4931     H
H       0.6585   0.8569   0.7569     H
H       0.6585   0.8931   0.9931     H
H       0.6775   0.0129   0.9032     H
H       0.6775   0.2371   0.3468     H
H       0.6775   0.5129   0.4032     H
H       0.6775   0.7371   0.8468     H
N        0.678  0.29935  0.92039     N
N        0.678  0.45065  0.82961     N
N        0.678  0.79935  0.42039     N
N        0.678  0.95065  0.32961     N
N        0.684  0.32599  0.94065     N
N        0.684  0.42401  0.80935     N
N        0.684  0.82599  0.44065     N
N        0.684  0.92401  0.30935     N
H       0.6932    0.277   0.6851     H
H       0.6932    0.473   0.0649     H
H       0.6932    0.777   0.1851     H
H       0.6932    0.973   0.5649     H
C        0.703    0.314   0.2833     C
C        0.703    0.436   0.4667     C
C        0.703    0.814   0.7833     C
C        0.703    0.936   0.9667     C
H        0.704   0.0758   0.4879     H
H        0.704   0.1742   0.7621     H
H        0.704   0.5758   0.9879     H
H        0.704   0.6742   0.2621     H
C        0.706   0.2732   0.3141     C
C        0.706   0.4768   0.4359     C
C        0.706   0.7732   0.8141     C
C        0.706   0.9768   0.9359     C
N        0.712   0.0311   0.5348     N
N        0.712   0.2189   0.7152     N
N        0.712   0.5311   0.0348     N
N        0.712   0.7189   0.2152     N
N        0.721   0.3349   0.2559     N
N        0.721   0.4151   0.4941     N
N        0.721   0.8349   0.7559     N
N        0.721   0.9151   0.9941     N
N        0.735   0.0096   0.9232     N
N        0.735   0.2404   0.3268     N
N        0.735   0.5096   0.4232     N
N        0.735   0.7404   0.8268     N
H       0.7384   0.3273   0.2652     H
H       0.7384   0.4227   0.4848     H
H       0.7384   0.8273   0.7652     H
H       0.7384   0.9227   0.9848     H
H       0.7447   0.2513   0.3227     H
H       0.7447   0.4987   0.4273     H
H       0.7447   0.7513   0.8227     H
H       0.7447   0.9987   0.9273     H
Ag        0.75      0.0     0.75    Ag
Ag        0.75     0.25      0.5    Ag
Ag        0.75      0.5     0.25    Ag
Ag        0.75     0.75      0.0    Ag
H       0.7553   0.0013   0.5727     H
H       0.7553   0.2487   0.6773     H
H       0.7553   0.5013   0.0727     H
H       0.7553   0.7487   0.1773     H
H       0.7616   0.0773   0.5152     H
H       0.7616   0.1727   0.7348     H
H       0.7616   0.5773   0.0152     H
H       0.7616   0.6727   0.2348     H
N        0.765   0.2596   0.6732     N
N        0.765   0.4904   0.0768     N
N        0.765   0.7596   0.1732     N
N        0.765   0.9904   0.5768     N
N        0.779   0.0849   0.5059     N
N        0.779   0.1651   0.7441     N
N        0.779   0.5849   0.0059     N
N        0.779   0.6651   0.2441     N
N        0.788   0.2811   0.2848     N
N        0.788   0.4689   0.4652     N
N        0.788   0.7811   0.7848     N
N        0.788   0.9689   0.9652     N
C        0.794   0.0232   0.5641     C
C        0.794   0.2268   0.6859     C
C        0.794   0.5232   0.0641     C
C        0.794   0.7268   0.1859     C
H        0.796   0.3258   0.2379     H
H        0.796   0.4242   0.5121     H
H        0.796   0.8258   0.7379     H
H        0.796   0.9242   0.0121     H
C        0.797    0.064   0.5333     C
C        0.797    0.186   0.7167     C
C        0.797    0.564   0.0333     C
C        0.797    0.686   0.2167     C
H       0.8068    0.027   0.9351     H
H       0.8068    0.223   0.3149     H
H       0.8068    0.527   0.4351     H
H       0.8068    0.723   0.8149     H
N        0.816  0.07599  0.19065     N
N        0.816  0.17401  0.05935     N
N        0.816  0.57599  0.69065     N
N        0.816  0.67401  0.55935     N
N        0.822  0.04935  0.17039     N
N        0.822  0.20065  0.07961     N
N        0.822  0.54935  0.67039     N
N        0.822  0.70065  0.57961     N
H       0.8225   0.2629   0.6532     H
H       0.8225   0.4871   0.0968     H
H       0.8225   0.7629   0.1532     H
H       0.8225   0.9871   0.5968     H
H       0.8415   0.1069   0.5069     H
H       0.8415   0.1431   0.7431     H
H       0.8415   0.6069   0.0069     H
H       0.8415   0.6431   0.2431     H
Ag       0.875  0.30574    0.875    Ag
Ag       0.875    0.375  0.82225    Ag
Ag       0.875    0.375  0.92775    Ag
Ag       0.875  0.44426    0.875    Ag
Ag       0.875  0.80574    0.375    Ag
Ag       0.875    0.875  0.32225    Ag
Ag       0.875    0.875  0.42775    Ag
Ag       0.875  0.94426    0.375    Ag
H       0.9085   0.1069   0.2431     H
H       0.9085   0.1431   0.0069     H
H       0.9085   0.6069   0.7431     H
H       0.9085   0.6431   0.5069     H
H       0.9275   0.2629   0.0968     H
H       0.9275   0.4871   0.6532     H
H       0.9275   0.7629   0.5968     H
H       0.9275   0.9871   0.1532     H
N        0.928  0.04935  0.57961     N
N        0.928  0.20065  0.67039     N
N        0.928  0.54935  0.07961     N
N        0.928  0.70065  0.17039     N
N        0.934  0.07599  0.55935     N
N        0.934  0.17401  0.69065     N
N        0.934  0.57599  0.05935     N
N        0.934  0.67401  0.19065     N
H       0.9432    0.027   0.8149     H
H       0.9432    0.223   0.4351     H
H       0.9432    0.527   0.3149     H
H       0.9432    0.723   0.9351     H
C        0.953    0.064   0.2167     C
C        0.953    0.186   0.0333     C
C        0.953    0.564   0.7167     C
C        0.953    0.686   0.5333     C
H        0.954   0.3258   0.5121     H
H        0.954   0.4242   0.2379     H
H        0.954   0.8258   0.0121     H
H        0.954   0.9242   0.7379     H
C        0.956   0.0232   0.1859     C
C        0.956   0.2268   0.0641     C
C        0.956   0.5232   0.6859     C
C        0.956   0.7268   0.5641     C
N        0.962   0.2811   0.4652     N
N        0.962   0.4689   0.2848     N
N        0.962   0.7811   0.9652     N
N        0.962   0.9689   0.7848     N
N        0.971   0.0849   0.2441     N
N        0.971   0.1651   0.0059     N
N        0.971   0.5849   0.7441     N
N        0.971   0.6651   0.5059     N
N        0.985   0.2596   0.0768     N
N        0.985   0.4904   0.6732     N
N        0.985   0.7596   0.5768     N
N        0.985   0.9904   0.1732     N
H       0.9884   0.0773   0.2348     H
H       0.9884   0.1727   0.0152     H
H       0.9884   0.5773   0.7348     H
H       0.9884   0.6727   0.5152     H
H       0.9947   0.0013   0.1773     H
H       0.9947   0.2487   0.0727     H
H       0.9947   0.5013   0.6773     H
H       0.9947   0.7487   0.5727     H
