data_I
_chemical_name_common  '/home/zhangsd/repos/MofS-CGCNN/ML/data/SSD/clean_cifs/MITGUR01_clean'
_cell_length_a  7.16800
_cell_length_b 10.72300
_cell_length_c 17.15500
_cell_angle_alpha 97.07900
_cell_angle_beta  90.00000
_cell_angle_gamma 90.00000
_space_group_name_H-M_alt      'P 1'


loop_
_space_group_symop_operation_xyz
  'x, y, z' 

loop_
_atom_site_label
_atom_site_fract_x
_atom_site_fract_y
_atom_site_fract_z
_atom_site_type_symbol
Tb     0.02026  0.17572  0.24673    Tb
O       0.0308   0.6548  0.82315     O
H        0.037    0.194    0.562     H
O        0.046   0.8512  0.46748     O
C       0.0715   0.5472  0.93327     C
C       0.0739    0.542  0.57302     C
O        0.078   0.9152  0.88645     O
C       0.0898   0.4014  0.02963     C
C       0.1174    0.452  0.43832     C
C       0.1473   0.6084  0.86509     C
H        0.156    0.332    0.051     H
C       0.1591   0.4463  0.96323     C
H         0.17    0.985    0.023     H
C       0.1733   0.5842  0.64887     C
O       0.1787  0.11223   0.3566     O
C       0.1801   0.8781  0.42073     C
O       0.1811   0.8468  0.35008     O
O       0.1899   0.3556  0.30794     O
C       0.1908   0.4944  0.51189     C
O       0.1913  0.70311  0.67064     O
O       0.2464  0.00633  0.18473     O
C       0.2475   0.9044  0.87404     C
C       0.2525   0.4044  0.37404     C
O       0.2536  0.50633  0.68473     O
O       0.3087  0.20311  0.17064     O
C       0.3092   0.9944  0.01189     C
O       0.3101   0.8556  0.80794     O
O       0.3189   0.3468  0.85008     O
C       0.3199   0.3781  0.92073     C
O       0.3213  0.61223   0.8566     O
C       0.3267   0.0842  0.14887     C
H         0.33    0.485    0.523     H
C       0.3409   0.9463  0.46323     C
H        0.344    0.832    0.551     H
C       0.3527   0.1084  0.36509     C
C       0.3826    0.952  0.93832     C
C       0.4102   0.9014  0.52963     C
O        0.422   0.4152  0.38645     O
C       0.4261    0.042  0.07302     C
C       0.4285   0.0472  0.43327     C
O        0.454   0.3512  0.96748     O
H        0.463    0.694    0.062     H
O       0.4692   0.1548  0.32315     O
Tb     0.47974  0.67572  0.74673    Tb
Tb     0.52026  0.32428  0.25326    Tb
O       0.5308   0.8452  0.67685     O
H        0.537    0.306    0.938     H
O        0.546   0.6488  0.03252     O
C       0.5715   0.9528  0.56673     C
C       0.5739    0.958  0.92698     C
O        0.578   0.5848  0.61355     O
C       0.5898   0.0986  0.47037     C
C       0.6174    0.048  0.06168     C
C       0.6473   0.8916  0.63491     C
H        0.656    0.168    0.449     H
C       0.6591   0.0537  0.53677     C
H         0.67    0.515    0.477     H
C       0.6733   0.9158  0.85113     C
O       0.6787  0.38777   0.1434     O
C       0.6801   0.6219  0.07927     C
O       0.6811   0.6532  0.14992     O
O       0.6899   0.1444  0.19206     O
C       0.6908   0.0056  0.98811     C
O       0.6913  0.79689  0.82936     O
O       0.7464  0.49367  0.31527     O
C       0.7475   0.5956  0.62596     C
C       0.7525   0.0956  0.12596     C
O       0.7536  0.99367  0.81527     O
O       0.8087  0.29689  0.32936     O
C       0.8092   0.5056  0.48811     C
O       0.8101   0.6444  0.69206     O
O       0.8189   0.1532  0.64992     O
C       0.8199   0.1219  0.57927     C
O       0.8213  0.88777   0.6434     O
C       0.8267   0.4158  0.35113     C
H         0.83    0.015    0.977     H
C       0.8409   0.5537  0.03677     C
H        0.844    0.668    0.949     H
C       0.8527   0.3916  0.13491     C
C       0.8826    0.548  0.56168     C
C       0.9102   0.5986  0.97037     C
O        0.922   0.0848  0.11355     O
C       0.9261    0.458  0.42698     C
C       0.9285   0.4528  0.06673     C
O        0.954   0.1488  0.53252     O
H        0.963    0.806    0.438     H
O       0.9692   0.3452  0.17685     O
Tb     0.97974  0.82428  0.75327    Tb
