data_I
_chemical_name_common  '/home/zhangsd/repos/MofS-CGCNN/ML/data/SSD/clean_cifs/MIVFEE_clean'
_cell_length_a 18.48520
_cell_length_b 18.48520
_cell_length_c 18.48520
_cell_angle_alpha 90.00000
_cell_angle_beta  90.00000
_cell_angle_gamma 90.00000
_space_group_name_H-M_alt      'P 1'


loop_
_space_group_symop_operation_xyz
  'x, y, z' 

loop_
_atom_site_label
_atom_site_fract_x
_atom_site_fract_y
_atom_site_fract_z
_atom_site_type_symbol
Mn         0.0    0.348      0.5    Mn
Cu         0.0   0.3636      0.5    Cu
Mn         0.0      0.5    0.348    Mn
Cu         0.0      0.5   0.3636    Cu
Cl         0.0      0.5      0.5    Cl
Cu         0.0      0.5   0.6364    Cu
Mn         0.0      0.5    0.652    Mn
Cu         0.0   0.6364      0.5    Cu
Mn         0.0    0.652      0.5    Mn
N        0.075   0.3697   0.4203     N
N        0.075   0.3697   0.5797     N
N        0.075   0.4203   0.3697     N
N        0.075   0.4203   0.6303     N
N        0.075   0.5797   0.3697     N
N        0.075   0.5797   0.6303     N
N        0.075   0.6303   0.4203     N
N        0.075   0.6303   0.5797     N
N       0.1304   0.3247   0.4095     N
N       0.1304   0.3247   0.5905     N
N       0.1304   0.4095   0.3247     N
N       0.1304   0.4095   0.6753     N
N       0.1304   0.5905   0.3247     N
N       0.1304   0.5905   0.6753     N
N       0.1304   0.6753   0.4095     N
N       0.1304   0.6753   0.5905     N
Cu       0.137   0.2565      0.5    Cu
Cu       0.137      0.5   0.2565    Cu
Cu       0.137      0.5   0.7435    Cu
Cu       0.137   0.7435      0.5    Cu
C       0.1623   0.3508   0.3508     C
C       0.1623   0.3508   0.6492     C
C       0.1623   0.6492   0.3508     C
C       0.1623   0.6492   0.6492     C
C       0.2276   0.3191   0.3191     C
C       0.2276   0.3191   0.6809     C
C       0.2276   0.6809   0.3191     C
C       0.2276   0.6809   0.6809     C
H      0.23615  0.23615   0.3885     H
H      0.23615  0.23615   0.6115     H
H      0.23615   0.3885  0.23615     H
H      0.23615   0.3885  0.76385     H
H      0.23615   0.6115  0.23615     H
H      0.23615   0.6115  0.76385     H
H      0.23615  0.76385   0.3885     H
H      0.23615  0.76385   0.6115     H
Cu      0.2565    0.137      0.5    Cu
Cu      0.2565      0.5    0.137    Cu
Cu      0.2565      0.5    0.863    Cu
Cu      0.2565    0.863      0.5    Cu
C       0.2577   0.2577   0.3484     C
C       0.2577   0.2577   0.6516     C
C       0.2577   0.3484   0.2577     C
C       0.2577   0.3484   0.7423     C
C       0.2577   0.6516   0.2577     C
C       0.2577   0.6516   0.7423     C
C       0.2577   0.7423   0.3484     C
C       0.2577   0.7423   0.6516     C
C       0.3191   0.2276   0.3191     C
C       0.3191   0.2276   0.6809     C
C       0.3191   0.3191   0.2276     C
C       0.3191   0.3191   0.7724     C
C       0.3191   0.6809   0.2276     C
C       0.3191   0.6809   0.7724     C
C       0.3191   0.7724   0.3191     C
C       0.3191   0.7724   0.6809     C
N       0.3247   0.1304   0.4095     N
N       0.3247   0.1304   0.5905     N
N       0.3247   0.4095   0.1304     N
N       0.3247   0.4095   0.8696     N
N       0.3247   0.5905   0.1304     N
N       0.3247   0.5905   0.8696     N
N       0.3247   0.8696   0.4095     N
N       0.3247   0.8696   0.5905     N
Mn       0.348      0.0      0.5    Mn
Mn       0.348      0.5      0.0    Mn
C       0.3484   0.2577   0.2577     C
C       0.3484   0.2577   0.7423     C
C       0.3484   0.7423   0.2577     C
C       0.3484   0.7423   0.7423     C
C       0.3508   0.1623   0.3508     C
C       0.3508   0.1623   0.6492     C
C       0.3508   0.3508   0.1623     C
C       0.3508   0.3508   0.8377     C
C       0.3508   0.6492   0.1623     C
C       0.3508   0.6492   0.8377     C
C       0.3508   0.8377   0.3508     C
C       0.3508   0.8377   0.6492     C
Cu      0.3636      0.0      0.5    Cu
Cu      0.3636      0.5      0.0    Cu
N       0.3697    0.075   0.4203     N
N       0.3697    0.075   0.5797     N
N       0.3697   0.4203    0.075     N
N       0.3697   0.4203    0.925     N
N       0.3697   0.5797    0.075     N
N       0.3697   0.5797    0.925     N
N       0.3697    0.925   0.4203     N
N       0.3697    0.925   0.5797     N
H       0.3885  0.23615  0.23615     H
H       0.3885  0.23615  0.76385     H
H       0.3885  0.76385  0.23615     H
H       0.3885  0.76385  0.76385     H
N       0.4095   0.1304   0.3247     N
N       0.4095   0.1304   0.6753     N
N       0.4095   0.3247   0.1304     N
N       0.4095   0.3247   0.8696     N
N       0.4095   0.6753   0.1304     N
N       0.4095   0.6753   0.8696     N
N       0.4095   0.8696   0.3247     N
N       0.4095   0.8696   0.6753     N
N       0.4203    0.075   0.3697     N
N       0.4203    0.075   0.6303     N
N       0.4203   0.3697    0.075     N
N       0.4203   0.3697    0.925     N
N       0.4203   0.6303    0.075     N
N       0.4203   0.6303    0.925     N
N       0.4203    0.925   0.3697     N
N       0.4203    0.925   0.6303     N
Mn         0.5      0.0    0.348    Mn
Cu         0.5      0.0   0.3636    Cu
Cl         0.5      0.0      0.5    Cl
Cu         0.5      0.0   0.6364    Cu
Mn         0.5      0.0    0.652    Mn
Cu         0.5    0.137   0.2565    Cu
Cu         0.5    0.137   0.7435    Cu
Cu         0.5   0.2565    0.137    Cu
Cu         0.5   0.2565    0.863    Cu
Mn         0.5    0.348      0.0    Mn
Cu         0.5   0.3636      0.0    Cu
Cl         0.5      0.5      0.0    Cl
Cu         0.5   0.6364      0.0    Cu
Mn         0.5    0.652      0.0    Mn
Cu         0.5   0.7435    0.137    Cu
Cu         0.5   0.7435    0.863    Cu
Cu         0.5    0.863   0.2565    Cu
Cu         0.5    0.863   0.7435    Cu
N       0.5797    0.075   0.3697     N
N       0.5797    0.075   0.6303     N
N       0.5797   0.3697    0.075     N
N       0.5797   0.3697    0.925     N
N       0.5797   0.6303    0.075     N
N       0.5797   0.6303    0.925     N
N       0.5797    0.925   0.3697     N
N       0.5797    0.925   0.6303     N
N       0.5905   0.1304   0.3247     N
N       0.5905   0.1304   0.6753     N
N       0.5905   0.3247   0.1304     N
N       0.5905   0.3247   0.8696     N
N       0.5905   0.6753   0.1304     N
N       0.5905   0.6753   0.8696     N
N       0.5905   0.8696   0.3247     N
N       0.5905   0.8696   0.6753     N
H       0.6115  0.23615  0.23615     H
H       0.6115  0.23615  0.76385     H
H       0.6115  0.76385  0.23615     H
H       0.6115  0.76385  0.76385     H
N       0.6303    0.075   0.4203     N
N       0.6303    0.075   0.5797     N
N       0.6303   0.4203    0.075     N
N       0.6303   0.4203    0.925     N
N       0.6303   0.5797    0.075     N
N       0.6303   0.5797    0.925     N
N       0.6303    0.925   0.4203     N
N       0.6303    0.925   0.5797     N
Cu      0.6364      0.0      0.5    Cu
Cu      0.6364      0.5      0.0    Cu
C       0.6492   0.1623   0.3508     C
C       0.6492   0.1623   0.6492     C
C       0.6492   0.3508   0.1623     C
C       0.6492   0.3508   0.8377     C
C       0.6492   0.6492   0.1623     C
C       0.6492   0.6492   0.8377     C
C       0.6492   0.8377   0.3508     C
C       0.6492   0.8377   0.6492     C
C       0.6516   0.2577   0.2577     C
C       0.6516   0.2577   0.7423     C
C       0.6516   0.7423   0.2577     C
C       0.6516   0.7423   0.7423     C
Mn       0.652      0.0      0.5    Mn
Mn       0.652      0.5      0.0    Mn
N       0.6753   0.1304   0.4095     N
N       0.6753   0.1304   0.5905     N
N       0.6753   0.4095   0.1304     N
N       0.6753   0.4095   0.8696     N
N       0.6753   0.5905   0.1304     N
N       0.6753   0.5905   0.8696     N
N       0.6753   0.8696   0.4095     N
N       0.6753   0.8696   0.5905     N
C       0.6809   0.2276   0.3191     C
C       0.6809   0.2276   0.6809     C
C       0.6809   0.3191   0.2276     C
C       0.6809   0.3191   0.7724     C
C       0.6809   0.6809   0.2276     C
C       0.6809   0.6809   0.7724     C
C       0.6809   0.7724   0.3191     C
C       0.6809   0.7724   0.6809     C
C       0.7423   0.2577   0.3484     C
C       0.7423   0.2577   0.6516     C
C       0.7423   0.3484   0.2577     C
C       0.7423   0.3484   0.7423     C
C       0.7423   0.6516   0.2577     C
C       0.7423   0.6516   0.7423     C
C       0.7423   0.7423   0.3484     C
C       0.7423   0.7423   0.6516     C
Cu      0.7435    0.137      0.5    Cu
Cu      0.7435      0.5    0.137    Cu
Cu      0.7435      0.5    0.863    Cu
Cu      0.7435    0.863      0.5    Cu
H      0.76385  0.23615   0.3885     H
H      0.76385  0.23615   0.6115     H
H      0.76385   0.3885  0.23615     H
H      0.76385   0.3885  0.76385     H
H      0.76385   0.6115  0.23615     H
H      0.76385   0.6115  0.76385     H
H      0.76385  0.76385   0.3885     H
H      0.76385  0.76385   0.6115     H
C       0.7724   0.3191   0.3191     C
C       0.7724   0.3191   0.6809     C
C       0.7724   0.6809   0.3191     C
C       0.7724   0.6809   0.6809     C
C       0.8377   0.3508   0.3508     C
C       0.8377   0.3508   0.6492     C
C       0.8377   0.6492   0.3508     C
C       0.8377   0.6492   0.6492     C
Cu       0.863   0.2565      0.5    Cu
Cu       0.863      0.5   0.2565    Cu
Cu       0.863      0.5   0.7435    Cu
Cu       0.863   0.7435      0.5    Cu
N       0.8696   0.3247   0.4095     N
N       0.8696   0.3247   0.5905     N
N       0.8696   0.4095   0.3247     N
N       0.8696   0.4095   0.6753     N
N       0.8696   0.5905   0.3247     N
N       0.8696   0.5905   0.6753     N
N       0.8696   0.6753   0.4095     N
N       0.8696   0.6753   0.5905     N
N        0.925   0.3697   0.4203     N
N        0.925   0.3697   0.5797     N
N        0.925   0.4203   0.3697     N
N        0.925   0.4203   0.6303     N
N        0.925   0.5797   0.3697     N
N        0.925   0.5797   0.6303     N
N        0.925   0.6303   0.4203     N
N        0.925   0.6303   0.5797     N
