data_I
_chemical_name_common  '/home/zhangsd/repos/MofS-CGCNN/ML/data/SSD/clean_cifs/MIXBEC_clean'
_cell_length_a 24.99330
_cell_length_b 28.20780
_cell_length_c 38.87330
_cell_angle_alpha 90.00000
_cell_angle_beta  90.00000
_cell_angle_gamma 90.00000
_space_group_name_H-M_alt      'P 1'


loop_
_space_group_symop_operation_xyz
  'x, y, z' 

loop_
_atom_site_label
_atom_site_fract_x
_atom_site_fract_y
_atom_site_fract_z
_atom_site_type_symbol
Cu         0.0  0.22019  0.27609    Cu
Cu         0.0  0.22019  0.72391    Cu
Cu         0.0  0.27981  0.22391    Cu
Cu         0.0  0.27981  0.77609    Cu
Cu         0.0  0.72019  0.22391    Cu
Cu         0.0  0.72019  0.77609    Cu
Cu         0.0  0.77981  0.27609    Cu
Cu         0.0  0.77981  0.72391    Cu
O      0.05462   0.2372  0.20526     O
O      0.05462   0.2372  0.79474     O
O      0.05462   0.2628  0.29474     O
O      0.05462   0.2628  0.70526     O
O      0.05462   0.7372  0.29474     O
O      0.05462   0.7372  0.70526     O
O      0.05462   0.7628  0.20526     O
O      0.05462   0.7628  0.79474     O
O      0.05519   0.1867  0.24937     O
O      0.05519   0.1867  0.75063     O
O      0.05519   0.3133  0.25063     O
O      0.05519   0.3133  0.74937     O
O      0.05519   0.6867  0.25063     O
O      0.05519   0.6867  0.74937     O
O      0.05519   0.8133  0.24937     O
O      0.05519   0.8133  0.75063     O
C      0.07057  0.20119  0.22065     C
C      0.07057  0.20119  0.77935     C
C      0.07057  0.29881  0.27935     C
C      0.07057  0.29881  0.72065     C
C      0.07057  0.70119  0.27935     C
C      0.07057  0.70119  0.72065     C
C      0.07057  0.79881  0.22065     C
C      0.07057  0.79881  0.77935     C
H       0.1063   0.2053   0.1569     H
H       0.1063   0.2053   0.8431     H
H       0.1063   0.2947   0.3431     H
H       0.1063   0.2947   0.6569     H
H       0.1063   0.7053   0.3431     H
H       0.1063   0.7053   0.6569     H
H       0.1063   0.7947   0.1569     H
H       0.1063   0.7947   0.8431     H
C      0.11035  0.16998   0.2021     C
C      0.11035  0.16998   0.7979     C
C      0.11035  0.33002   0.2979     C
C      0.11035  0.33002   0.7021     C
C      0.11035  0.66998   0.2979     C
C      0.11035  0.66998   0.7021     C
C      0.11035  0.83002   0.2021     C
C      0.11035  0.83002   0.7979     C
C       0.1224  0.17995  0.16813     C
C       0.1224  0.17995  0.83187     C
C       0.1224  0.32005  0.33187     C
C       0.1224  0.32005  0.66813     C
C       0.1224  0.67995  0.33187     C
C       0.1224  0.67995  0.66813     C
C       0.1224  0.82005  0.16813     C
C       0.1224  0.82005  0.83187     C
H       0.1253   0.1251    0.241     H
H       0.1253   0.1251    0.759     H
H       0.1253   0.3749    0.259     H
H       0.1253   0.3749    0.741     H
H       0.1253   0.6251    0.259     H
H       0.1253   0.6251    0.741     H
H       0.1253   0.8749    0.241     H
H       0.1253   0.8749    0.759     H
C      0.13422  0.13214  0.21838     C
C      0.13422  0.13214  0.78162     C
C      0.13422  0.36786  0.28162     C
C      0.13422  0.36786  0.71838     C
C      0.13422  0.63214  0.28162     C
C      0.13422  0.63214  0.71838     C
C      0.13422  0.86786  0.21838     C
C      0.13422  0.86786  0.78162     C
H        0.145   0.2259   0.1029     H
H        0.145   0.2259   0.8971     H
H        0.145   0.2741   0.3971     H
H        0.145   0.2741   0.6029     H
H        0.145   0.7259   0.3971     H
H        0.145   0.7259   0.6029     H
H        0.145   0.7741   0.1029     H
H        0.145   0.7741   0.8971     H
C      0.15892  0.15141  0.15122     C
C      0.15892  0.15141  0.84878     C
C      0.15892  0.34859  0.34878     C
C      0.15892  0.34859  0.65122     C
C      0.15892  0.65141  0.34878     C
C      0.15892  0.65141  0.65122     C
C      0.15892  0.84859  0.15122     C
C      0.15892  0.84859  0.84878     C
H       0.1591   0.1813      0.5     H
H       0.1591   0.3187      0.0     H
H       0.1591   0.6813      0.0     H
H       0.1591   0.8187      0.5     H
C       0.1604   0.1975  0.09587     C
C       0.1604   0.1975  0.90413     C
C       0.1604   0.3025  0.40413     C
C       0.1604   0.3025  0.59587     C
C       0.1604   0.6975  0.40413     C
C       0.1604   0.6975  0.59587     C
C       0.1604   0.8025  0.09587     C
C       0.1604   0.8025  0.90413     C
C       0.1651   0.2138      0.5     C
C       0.1651   0.2862      0.0     C
C       0.1651   0.7138      0.0     C
C       0.1651   0.7862      0.5     C
H       0.1676   0.2228   0.4478     H
H       0.1676   0.2228   0.5522     H
H       0.1676   0.2772   0.0522     H
H       0.1676   0.2772   0.9478     H
H       0.1676   0.7228   0.0522     H
H       0.1676   0.7228   0.9478     H
H       0.1676   0.7772   0.4478     H
H       0.1676   0.7772   0.5522     H
C       0.1697    0.239  0.46859     C
C       0.1697    0.239  0.53141     C
C       0.1697    0.261  0.03141     C
C       0.1697    0.261  0.96859     C
C       0.1697    0.739  0.03141     C
C       0.1697    0.739  0.96859     C
C       0.1697    0.761  0.46859     C
C       0.1697    0.761  0.53141     C
N      0.17096   0.1601  0.11552     N
N      0.17096   0.1601  0.88448     N
N      0.17096   0.3399  0.38448     N
N      0.17096   0.3399  0.61552     N
N      0.17096   0.6601  0.38448     N
N      0.17096   0.6601  0.61552     N
N      0.17096   0.8399  0.11552     N
N      0.17096   0.8399  0.88448     N
C      0.17109  0.10468   0.2013     C
C      0.17109  0.10468   0.7987     C
C      0.17109  0.39532   0.2987     C
C      0.17109  0.39532   0.7013     C
C      0.17109  0.60468   0.2987     C
C      0.17109  0.60468   0.7013     C
C      0.17109  0.89532   0.2013     C
C      0.17109  0.89532   0.7987     C
C       0.1765  0.18604  0.06351     C
C       0.1765  0.18604  0.93649     C
C       0.1765  0.31396  0.43649     C
C       0.1765  0.31396  0.56351     C
C       0.1765  0.68604  0.43649     C
C       0.1765  0.68604  0.56351     C
C       0.1765  0.81396  0.06351     C
C       0.1765  0.81396  0.93649     C
C       0.1772   0.2135  0.03127     C
C       0.1772   0.2135  0.96873     C
C       0.1772   0.2865  0.46873     C
C       0.1772   0.2865  0.53127     C
C       0.1772   0.7135  0.46873     C
C       0.1772   0.7135  0.53127     C
C       0.1772   0.7865  0.03127     C
C       0.1772   0.7865  0.96873     C
O      0.17916   0.0497  0.24681     O
O      0.17916   0.0497  0.75319     O
O      0.17916   0.4503  0.25319     O
O      0.17916   0.4503  0.74681     O
O      0.17916   0.5497  0.25319     O
O      0.17916   0.5497  0.74681     O
O      0.17916   0.9503  0.24681     O
O      0.17916   0.9503  0.75319     O
C       0.1806   0.1877      0.0     C
C       0.1806   0.3123      0.5     C
C       0.1806   0.6877      0.5     C
C       0.1806   0.8123      0.0     C
C      0.18388  0.11416  0.16749     C
C      0.18388  0.11416  0.83251     C
C      0.18388  0.38584  0.33251     C
C      0.18388  0.38584  0.66749     C
C      0.18388  0.61416  0.33251     C
C      0.18388  0.61416  0.66749     C
C      0.18388  0.88584  0.16749     C
C      0.18388  0.88584  0.83251     C
H       0.1849    0.155      0.0     H
H       0.1849    0.345      0.5     H
H       0.1849    0.655      0.5     H
H       0.1849    0.845      0.0     H
N       0.1953  0.12764  0.09663     N
N       0.1953  0.12764  0.90337     N
N       0.1953  0.37236  0.40337     N
N       0.1953  0.37236  0.59663     N
N       0.1953  0.62764  0.40337     N
N       0.1953  0.62764  0.59663     N
N       0.1953  0.87236  0.09663     N
N       0.1953  0.87236  0.90337     N
N       0.1966   0.1435  0.06464     N
N       0.1966   0.1435  0.93536     N
N       0.1966   0.3565  0.43536     N
N       0.1966   0.3565  0.56464     N
N       0.1966   0.6435  0.43536     N
N       0.1966   0.6435  0.56464     N
N       0.1966   0.8565  0.06464     N
N       0.1966   0.8565  0.93536     N
C      0.20037  0.06391  0.21933     C
C      0.20037  0.06391  0.78067     C
C      0.20037  0.43609  0.28067     C
C      0.20037  0.43609  0.71933     C
C      0.20037  0.56391  0.28067     C
C      0.20037  0.56391  0.71933     C
C      0.20037  0.93609  0.21933     C
C      0.20037  0.93609  0.78067     C
H       0.2089   0.0957   0.1559     H
H       0.2089   0.0957   0.8441     H
H       0.2089   0.4043   0.3441     H
H       0.2089   0.4043   0.6559     H
H       0.2089   0.5957   0.3441     H
H       0.2089   0.5957   0.6559     H
H       0.2089   0.9043   0.1559     H
H       0.2089   0.9043   0.8441     H
Cu     0.21343      0.0  0.27469    Cu
Cu     0.21343      0.0  0.72531    Cu
Cu     0.21343      0.5  0.22531    Cu
Cu     0.21343      0.5  0.77469    Cu
O      0.24053  0.04888  0.20514     O
O      0.24053  0.04888  0.79486     O
O      0.24053  0.45112  0.29486     O
O      0.24053  0.45112  0.70514     O
O      0.24053  0.54888  0.29486     O
O      0.24053  0.54888  0.70514     O
O      0.24053  0.95112  0.20514     O
O      0.24053  0.95112  0.79486     O
O      0.25947  0.04888  0.29486     O
O      0.25947  0.04888  0.70514     O
O      0.25947  0.45112  0.20514     O
O      0.25947  0.45112  0.79486     O
O      0.25947  0.54888  0.20514     O
O      0.25947  0.54888  0.79486     O
O      0.25947  0.95112  0.29486     O
O      0.25947  0.95112  0.70514     O
Cu     0.28657      0.0  0.22531    Cu
Cu     0.28657      0.0  0.77469    Cu
Cu     0.28657      0.5  0.27469    Cu
Cu     0.28657      0.5  0.72531    Cu
H       0.2911   0.0957   0.3441     H
H       0.2911   0.0957   0.6559     H
H       0.2911   0.4043   0.1559     H
H       0.2911   0.4043   0.8441     H
H       0.2911   0.5957   0.1559     H
H       0.2911   0.5957   0.8441     H
H       0.2911   0.9043   0.3441     H
H       0.2911   0.9043   0.6559     H
C      0.29963  0.06391  0.28067     C
C      0.29963  0.06391  0.71933     C
C      0.29963  0.43609  0.21933     C
C      0.29963  0.43609  0.78067     C
C      0.29963  0.56391  0.21933     C
C      0.29963  0.56391  0.78067     C
C      0.29963  0.93609  0.28067     C
C      0.29963  0.93609  0.71933     C
N       0.3034   0.1435  0.43536     N
N       0.3034   0.1435  0.56464     N
N       0.3034   0.3565  0.06464     N
N       0.3034   0.3565  0.93536     N
N       0.3034   0.6435  0.06464     N
N       0.3034   0.6435  0.93536     N
N       0.3034   0.8565  0.43536     N
N       0.3034   0.8565  0.56464     N
N       0.3047  0.12764  0.40337     N
N       0.3047  0.12764  0.59663     N
N       0.3047  0.37236  0.09663     N
N       0.3047  0.37236  0.90337     N
N       0.3047  0.62764  0.09663     N
N       0.3047  0.62764  0.90337     N
N       0.3047  0.87236  0.40337     N
N       0.3047  0.87236  0.59663     N
H       0.3151    0.155      0.5     H
H       0.3151    0.345      0.0     H
H       0.3151    0.655      0.0     H
H       0.3151    0.845      0.5     H
C      0.31612  0.11416  0.33251     C
C      0.31612  0.11416  0.66749     C
C      0.31612  0.38584  0.16749     C
C      0.31612  0.38584  0.83251     C
C      0.31612  0.61416  0.16749     C
C      0.31612  0.61416  0.83251     C
C      0.31612  0.88584  0.33251     C
C      0.31612  0.88584  0.66749     C
C       0.3194   0.1877      0.5     C
C       0.3194   0.3123      0.0     C
C       0.3194   0.6877      0.0     C
C       0.3194   0.8123      0.5     C
O      0.32084   0.0497  0.25319     O
O      0.32084   0.0497  0.74681     O
O      0.32084   0.4503  0.24681     O
O      0.32084   0.4503  0.75319     O
O      0.32084   0.5497  0.24681     O
O      0.32084   0.5497  0.75319     O
O      0.32084   0.9503  0.25319     O
O      0.32084   0.9503  0.74681     O
C       0.3228   0.2135  0.46873     C
C       0.3228   0.2135  0.53127     C
C       0.3228   0.2865  0.03127     C
C       0.3228   0.2865  0.96873     C
C       0.3228   0.7135  0.03127     C
C       0.3228   0.7135  0.96873     C
C       0.3228   0.7865  0.46873     C
C       0.3228   0.7865  0.53127     C
C       0.3235  0.18604  0.43649     C
C       0.3235  0.18604  0.56351     C
C       0.3235  0.31396  0.06351     C
C       0.3235  0.31396  0.93649     C
C       0.3235  0.68604  0.06351     C
C       0.3235  0.68604  0.93649     C
C       0.3235  0.81396  0.43649     C
C       0.3235  0.81396  0.56351     C
C      0.32891  0.10468   0.2987     C
C      0.32891  0.10468   0.7013     C
C      0.32891  0.39532   0.2013     C
C      0.32891  0.39532   0.7987     C
C      0.32891  0.60468   0.2013     C
C      0.32891  0.60468   0.7987     C
C      0.32891  0.89532   0.2987     C
C      0.32891  0.89532   0.7013     C
N      0.32904   0.1601  0.38448     N
N      0.32904   0.1601  0.61552     N
N      0.32904   0.3399  0.11552     N
N      0.32904   0.3399  0.88448     N
N      0.32904   0.6601  0.11552     N
N      0.32904   0.6601  0.88448     N
N      0.32904   0.8399  0.38448     N
N      0.32904   0.8399  0.61552     N
C       0.3303    0.239  0.03141     C
C       0.3303    0.239  0.96859     C
C       0.3303    0.261  0.46859     C
C       0.3303    0.261  0.53141     C
C       0.3303    0.739  0.46859     C
C       0.3303    0.739  0.53141     C
C       0.3303    0.761  0.03141     C
C       0.3303    0.761  0.96859     C
H       0.3324   0.2228   0.0522     H
H       0.3324   0.2228   0.9478     H
H       0.3324   0.2772   0.4478     H
H       0.3324   0.2772   0.5522     H
H       0.3324   0.7228   0.4478     H
H       0.3324   0.7228   0.5522     H
H       0.3324   0.7772   0.0522     H
H       0.3324   0.7772   0.9478     H
C       0.3349   0.2138      0.0     C
C       0.3349   0.2862      0.5     C
C       0.3349   0.7138      0.5     C
C       0.3349   0.7862      0.0     C
C       0.3396   0.1975  0.40413     C
C       0.3396   0.1975  0.59587     C
C       0.3396   0.3025  0.09587     C
C       0.3396   0.3025  0.90413     C
C       0.3396   0.6975  0.09587     C
C       0.3396   0.6975  0.90413     C
C       0.3396   0.8025  0.40413     C
C       0.3396   0.8025  0.59587     C
H       0.3409   0.1813      0.0     H
H       0.3409   0.3187      0.5     H
H       0.3409   0.6813      0.5     H
H       0.3409   0.8187      0.0     H
C      0.34108  0.15141  0.34878     C
C      0.34108  0.15141  0.65122     C
C      0.34108  0.34859  0.15122     C
C      0.34108  0.34859  0.84878     C
C      0.34108  0.65141  0.15122     C
C      0.34108  0.65141  0.84878     C
C      0.34108  0.84859  0.34878     C
C      0.34108  0.84859  0.65122     C
H        0.355   0.2259   0.3971     H
H        0.355   0.2259   0.6029     H
H        0.355   0.2741   0.1029     H
H        0.355   0.2741   0.8971     H
H        0.355   0.7259   0.1029     H
H        0.355   0.7259   0.8971     H
H        0.355   0.7741   0.3971     H
H        0.355   0.7741   0.6029     H
C      0.36578  0.13214  0.28162     C
C      0.36578  0.13214  0.71838     C
C      0.36578  0.36786  0.21838     C
C      0.36578  0.36786  0.78162     C
C      0.36578  0.63214  0.21838     C
C      0.36578  0.63214  0.78162     C
C      0.36578  0.86786  0.28162     C
C      0.36578  0.86786  0.71838     C
H       0.3747   0.1251    0.259     H
H       0.3747   0.1251    0.741     H
H       0.3747   0.3749    0.241     H
H       0.3747   0.3749    0.759     H
H       0.3747   0.6251    0.241     H
H       0.3747   0.6251    0.759     H
H       0.3747   0.8749    0.259     H
H       0.3747   0.8749    0.741     H
C       0.3776  0.17995  0.33187     C
C       0.3776  0.17995  0.66813     C
C       0.3776  0.32005  0.16813     C
C       0.3776  0.32005  0.83187     C
C       0.3776  0.67995  0.16813     C
C       0.3776  0.67995  0.83187     C
C       0.3776  0.82005  0.33187     C
C       0.3776  0.82005  0.66813     C
C      0.38965  0.16998   0.2979     C
C      0.38965  0.16998   0.7021     C
C      0.38965  0.33002   0.2021     C
C      0.38965  0.33002   0.7979     C
C      0.38965  0.66998   0.2021     C
C      0.38965  0.66998   0.7979     C
C      0.38965  0.83002   0.2979     C
C      0.38965  0.83002   0.7021     C
H       0.3937   0.2053   0.3431     H
H       0.3937   0.2053   0.6569     H
H       0.3937   0.2947   0.1569     H
H       0.3937   0.2947   0.8431     H
H       0.3937   0.7053   0.1569     H
H       0.3937   0.7053   0.8431     H
H       0.3937   0.7947   0.3431     H
H       0.3937   0.7947   0.6569     H
C      0.42943  0.20119  0.27935     C
C      0.42943  0.20119  0.72065     C
C      0.42943  0.29881  0.22065     C
C      0.42943  0.29881  0.77935     C
C      0.42943  0.70119  0.22065     C
C      0.42943  0.70119  0.77935     C
C      0.42943  0.79881  0.27935     C
C      0.42943  0.79881  0.72065     C
O      0.44481   0.1867  0.25063     O
O      0.44481   0.1867  0.74937     O
O      0.44481   0.3133  0.24937     O
O      0.44481   0.3133  0.75063     O
O      0.44481   0.6867  0.24937     O
O      0.44481   0.6867  0.75063     O
O      0.44481   0.8133  0.25063     O
O      0.44481   0.8133  0.74937     O
O      0.44538   0.2372  0.29474     O
O      0.44538   0.2372  0.70526     O
O      0.44538   0.2628  0.20526     O
O      0.44538   0.2628  0.79474     O
O      0.44538   0.7372  0.20526     O
O      0.44538   0.7372  0.79474     O
O      0.44538   0.7628  0.29474     O
O      0.44538   0.7628  0.70526     O
Cu         0.5  0.22019  0.22391    Cu
Cu         0.5  0.22019  0.77609    Cu
Cu         0.5  0.27981  0.27609    Cu
Cu         0.5  0.27981  0.72391    Cu
Cu         0.5  0.72019  0.27609    Cu
Cu         0.5  0.72019  0.72391    Cu
Cu         0.5  0.77981  0.22391    Cu
Cu         0.5  0.77981  0.77609    Cu
O      0.55462   0.2372  0.29474     O
O      0.55462   0.2372  0.70526     O
O      0.55462   0.2628  0.20526     O
O      0.55462   0.2628  0.79474     O
O      0.55462   0.7372  0.20526     O
O      0.55462   0.7372  0.79474     O
O      0.55462   0.7628  0.29474     O
O      0.55462   0.7628  0.70526     O
O      0.55519   0.1867  0.25063     O
O      0.55519   0.1867  0.74937     O
O      0.55519   0.3133  0.24937     O
O      0.55519   0.3133  0.75063     O
O      0.55519   0.6867  0.24937     O
O      0.55519   0.6867  0.75063     O
O      0.55519   0.8133  0.25063     O
O      0.55519   0.8133  0.74937     O
C      0.57057  0.20119  0.27935     C
C      0.57057  0.20119  0.72065     C
C      0.57057  0.29881  0.22065     C
C      0.57057  0.29881  0.77935     C
C      0.57057  0.70119  0.22065     C
C      0.57057  0.70119  0.77935     C
C      0.57057  0.79881  0.27935     C
C      0.57057  0.79881  0.72065     C
H       0.6063   0.2053   0.3431     H
H       0.6063   0.2053   0.6569     H
H       0.6063   0.2947   0.1569     H
H       0.6063   0.2947   0.8431     H
H       0.6063   0.7053   0.1569     H
H       0.6063   0.7053   0.8431     H
H       0.6063   0.7947   0.3431     H
H       0.6063   0.7947   0.6569     H
C      0.61035  0.16998   0.2979     C
C      0.61035  0.16998   0.7021     C
C      0.61035  0.33002   0.2021     C
C      0.61035  0.33002   0.7979     C
C      0.61035  0.66998   0.2021     C
C      0.61035  0.66998   0.7979     C
C      0.61035  0.83002   0.2979     C
C      0.61035  0.83002   0.7021     C
C       0.6224  0.17995  0.33187     C
C       0.6224  0.17995  0.66813     C
C       0.6224  0.32005  0.16813     C
C       0.6224  0.32005  0.83187     C
C       0.6224  0.67995  0.16813     C
C       0.6224  0.67995  0.83187     C
C       0.6224  0.82005  0.33187     C
C       0.6224  0.82005  0.66813     C
H       0.6253   0.1251    0.259     H
H       0.6253   0.1251    0.741     H
H       0.6253   0.3749    0.241     H
H       0.6253   0.3749    0.759     H
H       0.6253   0.6251    0.241     H
H       0.6253   0.6251    0.759     H
H       0.6253   0.8749    0.259     H
H       0.6253   0.8749    0.741     H
C      0.63422  0.13214  0.28162     C
C      0.63422  0.13214  0.71838     C
C      0.63422  0.36786  0.21838     C
C      0.63422  0.36786  0.78162     C
C      0.63422  0.63214  0.21838     C
C      0.63422  0.63214  0.78162     C
C      0.63422  0.86786  0.28162     C
C      0.63422  0.86786  0.71838     C
H        0.645   0.2259   0.3971     H
H        0.645   0.2259   0.6029     H
H        0.645   0.2741   0.1029     H
H        0.645   0.2741   0.8971     H
H        0.645   0.7259   0.1029     H
H        0.645   0.7259   0.8971     H
H        0.645   0.7741   0.3971     H
H        0.645   0.7741   0.6029     H
C      0.65892  0.15141  0.34878     C
C      0.65892  0.15141  0.65122     C
C      0.65892  0.34859  0.15122     C
C      0.65892  0.34859  0.84878     C
C      0.65892  0.65141  0.15122     C
C      0.65892  0.65141  0.84878     C
C      0.65892  0.84859  0.34878     C
C      0.65892  0.84859  0.65122     C
H       0.6591   0.1813      0.0     H
H       0.6591   0.3187      0.5     H
H       0.6591   0.6813      0.5     H
H       0.6591   0.8187      0.0     H
C       0.6604   0.1975  0.40413     C
C       0.6604   0.1975  0.59587     C
C       0.6604   0.3025  0.09587     C
C       0.6604   0.3025  0.90413     C
C       0.6604   0.6975  0.09587     C
C       0.6604   0.6975  0.90413     C
C       0.6604   0.8025  0.40413     C
C       0.6604   0.8025  0.59587     C
C       0.6651   0.2138      0.0     C
C       0.6651   0.2862      0.5     C
C       0.6651   0.7138      0.5     C
C       0.6651   0.7862      0.0     C
H       0.6676   0.2228   0.0522     H
H       0.6676   0.2228   0.9478     H
H       0.6676   0.2772   0.4478     H
H       0.6676   0.2772   0.5522     H
H       0.6676   0.7228   0.4478     H
H       0.6676   0.7228   0.5522     H
H       0.6676   0.7772   0.0522     H
H       0.6676   0.7772   0.9478     H
C       0.6697    0.239  0.03141     C
C       0.6697    0.239  0.96859     C
C       0.6697    0.261  0.46859     C
C       0.6697    0.261  0.53141     C
C       0.6697    0.739  0.46859     C
C       0.6697    0.739  0.53141     C
C       0.6697    0.761  0.03141     C
C       0.6697    0.761  0.96859     C
N      0.67096   0.1601  0.38448     N
N      0.67096   0.1601  0.61552     N
N      0.67096   0.3399  0.11552     N
N      0.67096   0.3399  0.88448     N
N      0.67096   0.6601  0.11552     N
N      0.67096   0.6601  0.88448     N
N      0.67096   0.8399  0.38448     N
N      0.67096   0.8399  0.61552     N
C      0.67109  0.10468   0.2987     C
C      0.67109  0.10468   0.7013     C
C      0.67109  0.39532   0.2013     C
C      0.67109  0.39532   0.7987     C
C      0.67109  0.60468   0.2013     C
C      0.67109  0.60468   0.7987     C
C      0.67109  0.89532   0.2987     C
C      0.67109  0.89532   0.7013     C
C       0.6765  0.18604  0.43649     C
C       0.6765  0.18604  0.56351     C
C       0.6765  0.31396  0.06351     C
C       0.6765  0.31396  0.93649     C
C       0.6765  0.68604  0.06351     C
C       0.6765  0.68604  0.93649     C
C       0.6765  0.81396  0.43649     C
C       0.6765  0.81396  0.56351     C
C       0.6772   0.2135  0.46873     C
C       0.6772   0.2135  0.53127     C
C       0.6772   0.2865  0.03127     C
C       0.6772   0.2865  0.96873     C
C       0.6772   0.7135  0.03127     C
C       0.6772   0.7135  0.96873     C
C       0.6772   0.7865  0.46873     C
C       0.6772   0.7865  0.53127     C
O      0.67916   0.0497  0.25319     O
O      0.67916   0.0497  0.74681     O
O      0.67916   0.4503  0.24681     O
O      0.67916   0.4503  0.75319     O
O      0.67916   0.5497  0.24681     O
O      0.67916   0.5497  0.75319     O
O      0.67916   0.9503  0.25319     O
O      0.67916   0.9503  0.74681     O
C       0.6806   0.1877      0.5     C
C       0.6806   0.3123      0.0     C
C       0.6806   0.6877      0.0     C
C       0.6806   0.8123      0.5     C
C      0.68388  0.11416  0.33251     C
C      0.68388  0.11416  0.66749     C
C      0.68388  0.38584  0.16749     C
C      0.68388  0.38584  0.83251     C
C      0.68388  0.61416  0.16749     C
C      0.68388  0.61416  0.83251     C
C      0.68388  0.88584  0.33251     C
C      0.68388  0.88584  0.66749     C
H       0.6849    0.155      0.5     H
H       0.6849    0.345      0.0     H
H       0.6849    0.655      0.0     H
H       0.6849    0.845      0.5     H
N       0.6953  0.12764  0.40337     N
N       0.6953  0.12764  0.59663     N
N       0.6953  0.37236  0.09663     N
N       0.6953  0.37236  0.90337     N
N       0.6953  0.62764  0.09663     N
N       0.6953  0.62764  0.90337     N
N       0.6953  0.87236  0.40337     N
N       0.6953  0.87236  0.59663     N
N       0.6966   0.1435  0.43536     N
N       0.6966   0.1435  0.56464     N
N       0.6966   0.3565  0.06464     N
N       0.6966   0.3565  0.93536     N
N       0.6966   0.6435  0.06464     N
N       0.6966   0.6435  0.93536     N
N       0.6966   0.8565  0.43536     N
N       0.6966   0.8565  0.56464     N
C      0.70037  0.06391  0.28067     C
C      0.70037  0.06391  0.71933     C
C      0.70037  0.43609  0.21933     C
C      0.70037  0.43609  0.78067     C
C      0.70037  0.56391  0.21933     C
C      0.70037  0.56391  0.78067     C
C      0.70037  0.93609  0.28067     C
C      0.70037  0.93609  0.71933     C
H       0.7089   0.0957   0.3441     H
H       0.7089   0.0957   0.6559     H
H       0.7089   0.4043   0.1559     H
H       0.7089   0.4043   0.8441     H
H       0.7089   0.5957   0.1559     H
H       0.7089   0.5957   0.8441     H
H       0.7089   0.9043   0.3441     H
H       0.7089   0.9043   0.6559     H
Cu     0.71343      0.0  0.22531    Cu
Cu     0.71343      0.0  0.77469    Cu
Cu     0.71343      0.5  0.27469    Cu
Cu     0.71343      0.5  0.72531    Cu
O      0.74053  0.04888  0.29486     O
O      0.74053  0.04888  0.70514     O
O      0.74053  0.45112  0.20514     O
O      0.74053  0.45112  0.79486     O
O      0.74053  0.54888  0.20514     O
O      0.74053  0.54888  0.79486     O
O      0.74053  0.95112  0.29486     O
O      0.74053  0.95112  0.70514     O
O      0.75947  0.04888  0.20514     O
O      0.75947  0.04888  0.79486     O
O      0.75947  0.45112  0.29486     O
O      0.75947  0.45112  0.70514     O
O      0.75947  0.54888  0.29486     O
O      0.75947  0.54888  0.70514     O
O      0.75947  0.95112  0.20514     O
O      0.75947  0.95112  0.79486     O
Cu     0.78657      0.0  0.27469    Cu
Cu     0.78657      0.0  0.72531    Cu
Cu     0.78657      0.5  0.22531    Cu
Cu     0.78657      0.5  0.77469    Cu
H       0.7911   0.0957   0.1559     H
H       0.7911   0.0957   0.8441     H
H       0.7911   0.4043   0.3441     H
H       0.7911   0.4043   0.6559     H
H       0.7911   0.5957   0.3441     H
H       0.7911   0.5957   0.6559     H
H       0.7911   0.9043   0.1559     H
H       0.7911   0.9043   0.8441     H
C      0.79963  0.06391  0.21933     C
C      0.79963  0.06391  0.78067     C
C      0.79963  0.43609  0.28067     C
C      0.79963  0.43609  0.71933     C
C      0.79963  0.56391  0.28067     C
C      0.79963  0.56391  0.71933     C
C      0.79963  0.93609  0.21933     C
C      0.79963  0.93609  0.78067     C
N       0.8034   0.1435  0.06464     N
N       0.8034   0.1435  0.93536     N
N       0.8034   0.3565  0.43536     N
N       0.8034   0.3565  0.56464     N
N       0.8034   0.6435  0.43536     N
N       0.8034   0.6435  0.56464     N
N       0.8034   0.8565  0.06464     N
N       0.8034   0.8565  0.93536     N
N       0.8047  0.12764  0.09663     N
N       0.8047  0.12764  0.90337     N
N       0.8047  0.37236  0.40337     N
N       0.8047  0.37236  0.59663     N
N       0.8047  0.62764  0.40337     N
N       0.8047  0.62764  0.59663     N
N       0.8047  0.87236  0.09663     N
N       0.8047  0.87236  0.90337     N
H       0.8151    0.155      0.0     H
H       0.8151    0.345      0.5     H
H       0.8151    0.655      0.5     H
H       0.8151    0.845      0.0     H
C      0.81612  0.11416  0.16749     C
C      0.81612  0.11416  0.83251     C
C      0.81612  0.38584  0.33251     C
C      0.81612  0.38584  0.66749     C
C      0.81612  0.61416  0.33251     C
C      0.81612  0.61416  0.66749     C
C      0.81612  0.88584  0.16749     C
C      0.81612  0.88584  0.83251     C
C       0.8194   0.1877      0.0     C
C       0.8194   0.3123      0.5     C
C       0.8194   0.6877      0.5     C
C       0.8194   0.8123      0.0     C
O      0.82084   0.0497  0.24681     O
O      0.82084   0.0497  0.75319     O
O      0.82084   0.4503  0.25319     O
O      0.82084   0.4503  0.74681     O
O      0.82084   0.5497  0.25319     O
O      0.82084   0.5497  0.74681     O
O      0.82084   0.9503  0.24681     O
O      0.82084   0.9503  0.75319     O
C       0.8228   0.2135  0.03127     C
C       0.8228   0.2135  0.96873     C
C       0.8228   0.2865  0.46873     C
C       0.8228   0.2865  0.53127     C
C       0.8228   0.7135  0.46873     C
C       0.8228   0.7135  0.53127     C
C       0.8228   0.7865  0.03127     C
C       0.8228   0.7865  0.96873     C
C       0.8235  0.18604  0.06351     C
C       0.8235  0.18604  0.93649     C
C       0.8235  0.31396  0.43649     C
C       0.8235  0.31396  0.56351     C
C       0.8235  0.68604  0.43649     C
C       0.8235  0.68604  0.56351     C
C       0.8235  0.81396  0.06351     C
C       0.8235  0.81396  0.93649     C
C      0.82891  0.10468   0.2013     C
C      0.82891  0.10468   0.7987     C
C      0.82891  0.39532   0.2987     C
C      0.82891  0.39532   0.7013     C
C      0.82891  0.60468   0.2987     C
C      0.82891  0.60468   0.7013     C
C      0.82891  0.89532   0.2013     C
C      0.82891  0.89532   0.7987     C
N      0.82904   0.1601  0.11552     N
N      0.82904   0.1601  0.88448     N
N      0.82904   0.3399  0.38448     N
N      0.82904   0.3399  0.61552     N
N      0.82904   0.6601  0.38448     N
N      0.82904   0.6601  0.61552     N
N      0.82904   0.8399  0.11552     N
N      0.82904   0.8399  0.88448     N
C       0.8303    0.239  0.46859     C
C       0.8303    0.239  0.53141     C
C       0.8303    0.261  0.03141     C
C       0.8303    0.261  0.96859     C
C       0.8303    0.739  0.03141     C
C       0.8303    0.739  0.96859     C
C       0.8303    0.761  0.46859     C
C       0.8303    0.761  0.53141     C
H       0.8324   0.2228   0.4478     H
H       0.8324   0.2228   0.5522     H
H       0.8324   0.2772   0.0522     H
H       0.8324   0.2772   0.9478     H
H       0.8324   0.7228   0.0522     H
H       0.8324   0.7228   0.9478     H
H       0.8324   0.7772   0.4478     H
H       0.8324   0.7772   0.5522     H
C       0.8349   0.2138      0.5     C
C       0.8349   0.2862      0.0     C
C       0.8349   0.7138      0.0     C
C       0.8349   0.7862      0.5     C
C       0.8396   0.1975  0.09587     C
C       0.8396   0.1975  0.90413     C
C       0.8396   0.3025  0.40413     C
C       0.8396   0.3025  0.59587     C
C       0.8396   0.6975  0.40413     C
C       0.8396   0.6975  0.59587     C
C       0.8396   0.8025  0.09587     C
C       0.8396   0.8025  0.90413     C
H       0.8409   0.1813      0.5     H
H       0.8409   0.3187      0.0     H
H       0.8409   0.6813      0.0     H
H       0.8409   0.8187      0.5     H
C      0.84108  0.15141  0.15122     C
C      0.84108  0.15141  0.84878     C
C      0.84108  0.34859  0.34878     C
C      0.84108  0.34859  0.65122     C
C      0.84108  0.65141  0.34878     C
C      0.84108  0.65141  0.65122     C
C      0.84108  0.84859  0.15122     C
C      0.84108  0.84859  0.84878     C
H        0.855   0.2259   0.1029     H
H        0.855   0.2259   0.8971     H
H        0.855   0.2741   0.3971     H
H        0.855   0.2741   0.6029     H
H        0.855   0.7259   0.3971     H
H        0.855   0.7259   0.6029     H
H        0.855   0.7741   0.1029     H
H        0.855   0.7741   0.8971     H
C      0.86578  0.13214  0.21838     C
C      0.86578  0.13214  0.78162     C
C      0.86578  0.36786  0.28162     C
C      0.86578  0.36786  0.71838     C
C      0.86578  0.63214  0.28162     C
C      0.86578  0.63214  0.71838     C
C      0.86578  0.86786  0.21838     C
C      0.86578  0.86786  0.78162     C
H       0.8747   0.1251    0.241     H
H       0.8747   0.1251    0.759     H
H       0.8747   0.3749    0.259     H
H       0.8747   0.3749    0.741     H
H       0.8747   0.6251    0.259     H
H       0.8747   0.6251    0.741     H
H       0.8747   0.8749    0.241     H
H       0.8747   0.8749    0.759     H
C       0.8776  0.17995  0.16813     C
C       0.8776  0.17995  0.83187     C
C       0.8776  0.32005  0.33187     C
C       0.8776  0.32005  0.66813     C
C       0.8776  0.67995  0.33187     C
C       0.8776  0.67995  0.66813     C
C       0.8776  0.82005  0.16813     C
C       0.8776  0.82005  0.83187     C
C      0.88965  0.16998   0.2021     C
C      0.88965  0.16998   0.7979     C
C      0.88965  0.33002   0.2979     C
C      0.88965  0.33002   0.7021     C
C      0.88965  0.66998   0.2979     C
C      0.88965  0.66998   0.7021     C
C      0.88965  0.83002   0.2021     C
C      0.88965  0.83002   0.7979     C
H       0.8937   0.2053   0.1569     H
H       0.8937   0.2053   0.8431     H
H       0.8937   0.2947   0.3431     H
H       0.8937   0.2947   0.6569     H
H       0.8937   0.7053   0.3431     H
H       0.8937   0.7053   0.6569     H
H       0.8937   0.7947   0.1569     H
H       0.8937   0.7947   0.8431     H
C      0.92943  0.20119  0.22065     C
C      0.92943  0.20119  0.77935     C
C      0.92943  0.29881  0.27935     C
C      0.92943  0.29881  0.72065     C
C      0.92943  0.70119  0.27935     C
C      0.92943  0.70119  0.72065     C
C      0.92943  0.79881  0.22065     C
C      0.92943  0.79881  0.77935     C
O      0.94481   0.1867  0.24937     O
O      0.94481   0.1867  0.75063     O
O      0.94481   0.3133  0.25063     O
O      0.94481   0.3133  0.74937     O
O      0.94481   0.6867  0.25063     O
O      0.94481   0.6867  0.74937     O
O      0.94481   0.8133  0.24937     O
O      0.94481   0.8133  0.75063     O
O      0.94538   0.2372  0.20526     O
O      0.94538   0.2372  0.79474     O
O      0.94538   0.2628  0.29474     O
O      0.94538   0.2628  0.70526     O
O      0.94538   0.7372  0.29474     O
O      0.94538   0.7372  0.70526     O
O      0.94538   0.7628  0.20526     O
O      0.94538   0.7628  0.79474     O
