data_I
_chemical_name_common  '/home/zhangsd/repos/MofS-CGCNN/ML/data/SSD/clean_cifs/MIXKUB_clean'
_cell_length_a  8.57070
_cell_length_b  9.89850
_cell_length_c 14.28120
_cell_angle_alpha 104.98600
_cell_angle_beta  102.29100
_cell_angle_gamma 91.28600
_space_group_name_H-M_alt      'P 1'


loop_
_space_group_symop_operation_xyz
  'x, y, z' 

loop_
_atom_site_label
_atom_site_fract_x
_atom_site_fract_y
_atom_site_fract_z
_atom_site_type_symbol
H        0.014   0.8538   0.4816     H
H        0.019   0.6582   0.2981     H
C       0.0195   0.8888   0.7654     C
H        0.025   0.3181   0.1023     H
C       0.0396   0.2824   0.1575     C
C       0.0414   0.2944   0.6546     C
C       0.0423   0.8396   0.8472     C
C       0.0745   0.7976   0.4378     C
H       0.0761   0.9708   0.7669     H
C       0.0913   0.1862   0.3222     C
H       0.1086   0.1516   0.3779     H
H       0.1118   0.2353   0.6858     H
H       0.1409    0.861    0.418     H
C        0.141   0.4019     0.63     C
C       0.1438   0.3519   0.2448     C
N       0.1523    0.904   0.9458     N
O       0.1545   0.3845    0.544     O
N       0.1709   0.3046   0.3264     N
C       0.1797   0.7105   0.4929     C
H       0.1983   0.4357   0.2477     H
O       0.2068   0.5081   0.7023     O
N       0.2119   0.0031   0.9404     N
O       0.2181   0.5987   0.4436     O
O       0.2233   0.7587   0.5868     O
H       0.3176   0.9376   0.1218     H
C       0.3255   0.0712   0.0396     C
Zn      0.3322  0.41613  0.46172    Zn
Zn     0.33695  0.63936  0.66121    Zn
C       0.3629   0.0238   0.1216     C
H       0.3665   0.2299   0.9863     H
C       0.3918   0.1954   0.0419     C
H       0.4023   0.0012   0.5674     H
H       0.4123   0.9611    0.401     H
O       0.4151   0.2272   0.4757     O
H       0.4541   0.6416   0.8728     H
N       0.4647    0.771   0.7912     N
C       0.4653   0.1958   0.5562     C
C       0.4701   0.1054   0.2055     C
O       0.4883   0.5291   0.5994     O
C       0.4917    0.043   0.5499     C
O       0.4942   0.2809   0.6407     O
H       0.4968   0.0717   0.2614     H
C       0.4986   0.2729   0.1272     C
C       0.5014   0.7271   0.8728     C
H       0.5032   0.9283   0.7386     H
O       0.5058   0.7191   0.3593     O
C       0.5083    0.957   0.4501     C
O       0.5117   0.4709   0.4006     O
C       0.5299   0.8946   0.7945     C
C       0.5347   0.8042   0.4438     C
N       0.5353    0.229   0.2088     N
H       0.5459   0.3584   0.1272     H
O       0.5849   0.7728   0.5243     O
H       0.5877   0.0389    0.599     H
H       0.5977   0.9988   0.4326     H
C       0.6082   0.8046   0.9581     C
H       0.6335   0.7701   0.0137     H
C       0.6371   0.9762   0.8784     C
Zn     0.66305  0.36064  0.33879    Zn
Zn      0.6678  0.58387  0.53828    Zn
C       0.6745   0.9288   0.9604     C
H       0.6824   0.0624   0.8782     H
O       0.7767   0.2413   0.4132     O
O       0.7819   0.4013   0.5564     O
N       0.7881   0.9969   0.0596     N
O       0.7932   0.4919   0.2977     O
H       0.8017   0.5643   0.7523     H
C       0.8203   0.2895   0.5071     C
N       0.8291   0.6954   0.6736     N
O       0.8455   0.6155    0.456     O
N       0.8477    0.096   0.0542     N
C       0.8562   0.6481   0.7552     C
C        0.859   0.5981     0.37     C
H       0.8591    0.139    0.582     H
H       0.8882   0.7647   0.3142     H
H       0.8914   0.8484   0.6221     H
C       0.9087   0.8138   0.6778     C
H       0.9239   0.0292   0.2331     H
C       0.9255   0.2024   0.5622     C
C       0.9577   0.1604   0.1528     C
C       0.9586   0.7056   0.3454     C
C       0.9604   0.7176   0.8425     C
H        0.975   0.6819   0.8977     H
C       0.9805   0.1112   0.2346     C
H        0.981   0.3418   0.7019     H
H        0.986   0.1462   0.5184     H
