data_I
_chemical_name_common  '/home/zhangsd/repos/MofS-CGCNN/ML/data/SSD/clean_cifs/MOBBOU_clean'
_cell_length_a  9.02110
_cell_length_b  9.02110
_cell_length_c 12.72000
_cell_angle_alpha 85.20890
_cell_angle_beta  85.20890
_cell_angle_gamma 79.37690
_space_group_name_H-M_alt      'P 1'


loop_
_space_group_symop_operation_xyz
  'x, y, z' 

loop_
_atom_site_label
_atom_site_fract_x
_atom_site_fract_y
_atom_site_fract_z
_atom_site_type_symbol
C       0.0036    0.084   0.5899     C
O       0.0079   0.8383   0.3316     O
C       0.0349   0.8601   0.0612     C
C       0.0455   0.1391   0.0229     C
C       0.0542   0.5082   0.3906     C
C        0.063   0.5734   0.5788     C
O       0.0727   0.7447   0.1242     O
C        0.084   0.0036   0.0899     C
Cl      0.0983   0.3021   0.0586    Cl
O       0.1072   0.5314   0.2986     O
C       0.1209   0.5801   0.4744     C
Cl     0.13137  0.66397   0.6734    Cl
C       0.1391   0.0455   0.5229     C
C       0.1399   0.9651   0.4388     C
O       0.1617   0.9921   0.1684     O
O       0.2346   0.6394   0.4413     O
O       0.2553   0.9273   0.3758     O
Th     0.26515  0.73485     0.25    Th
Cl      0.3021   0.0983   0.5586    Cl
Cl     0.33603  0.86863   0.8266    Cl
O       0.3606   0.7654   0.0587     O
C       0.4199   0.8791   0.0256     C
C       0.4266    0.937   0.9212     C
O       0.4686   0.8928   0.2014     O
C       0.4918   0.9458   0.1094     C
C       0.5082   0.0542   0.8906     C
O       0.5314   0.1072   0.7986     O
C       0.5734    0.063   0.0788     C
C       0.5801   0.1209   0.9744     C
O       0.6394   0.2346   0.9413     O
Cl     0.66397  0.13137   0.1734    Cl
Cl      0.6979   0.9017   0.4414    Cl
Th     0.73485  0.26515     0.75    Th
O       0.7447   0.0727   0.6242     O
O       0.7654   0.3606   0.5587     O
O       0.8383   0.0079   0.8316     O
C       0.8601   0.0349   0.5612     C
C       0.8609   0.9545   0.4771     C
Cl     0.86863  0.33603   0.3266    Cl
C       0.8791   0.4199   0.5256     C
O       0.8928   0.4686   0.7014     O
Cl      0.9017   0.6979   0.9414    Cl
C        0.916   0.9964   0.9101     C
O       0.9273   0.2553   0.8758     O
C        0.937   0.4266   0.4212     C
C       0.9458   0.4918   0.6094     C
C       0.9545   0.8609   0.9771     C
C       0.9651   0.1399   0.9388     C
O       0.9921   0.1617   0.6684     O
C       0.9964    0.916   0.4101     C
