data_I
_chemical_name_common  '/home/zhangsd/repos/MofS-CGCNN/ML/data/SSD/clean_cifs/MOBBIO_clean'
_cell_length_a 11.57800
_cell_length_b 11.57800
_cell_length_c 15.10630
_cell_angle_alpha 112.53300
_cell_angle_beta  112.53300
_cell_angle_gamma 90.00000
_space_group_name_H-M_alt      'P 1'


loop_
_space_group_symop_operation_xyz
  'x, y, z' 

loop_
_atom_site_label
_atom_site_fract_x
_atom_site_fract_y
_atom_site_fract_z
_atom_site_type_symbol
C       0.0288    0.877    0.952     C
Cl     0.06824  0.73064  0.89508    Cl
C       0.0855   0.0983    0.097     C
C       0.1201   0.9669   0.0472     C
O       0.1744   0.1722   0.1852     O
O        0.227   0.9494   0.0982     O
Cl     0.23064  0.82684  0.39508    Cl
Cl     0.32684  0.16444  0.89508    Cl
O       0.3278   0.9892   0.3148     O
Cl     0.33556  0.43176  0.60492    Cl
O       0.3512    0.273   0.4018     O
O       0.3712   0.1488   0.0982     O
Y        0.375    0.125     0.25     Y
C        0.377   0.9232    0.452     C
C       0.4017   0.9885    0.403     C
C       0.4197   0.3799   0.4528     C
C       0.4232    0.075    0.952     C
C        0.425   0.4712    0.548     C
C       0.4271   0.0803   0.0472     C
O       0.4494   0.8712   0.5982     O
C       0.4669   0.9271   0.5472     C
O        0.487   0.3256   0.3148     O
C       0.4885   0.0013    0.903     C
O       0.4892    0.987   0.8148     O
C       0.4987   0.5855    0.597     C
C       0.5013   0.4145    0.403     C
O       0.5108    0.013   0.1852     O
C       0.5115   0.9987    0.097     C
O        0.513   0.6744   0.6852     O
C       0.5331   0.0729   0.4528     C
O       0.5506   0.1288   0.4018     O
C       0.5729   0.9197   0.9528     C
C        0.575   0.5288    0.452     C
C       0.5768    0.925    0.048     C
C       0.5803   0.6201   0.5472     C
C       0.5983   0.0115    0.597     C
C        0.623   0.0768    0.548     C
Y        0.625    0.875     0.75     Y
O       0.6288   0.8512   0.9018     O
O       0.6488    0.727   0.5982     O
Cl     0.66444  0.56824  0.39508    Cl
O       0.6722   0.0108   0.6852     O
Cl     0.67316  0.83556  0.10492    Cl
Cl     0.76936  0.17316  0.60492    Cl
O        0.773   0.0506   0.9018     O
O       0.8256   0.8278   0.8148     O
C       0.8799   0.0331   0.9528     C
C       0.9145   0.9017    0.903     C
Cl     0.93176  0.26936  0.10492    Cl
C       0.9712    0.123    0.048     C
