data_I
_chemical_name_common  '/home/zhangsd/repos/MofS-CGCNN/ML/data/SSD/clean_cifs/MOTMAK_clean'
_cell_length_a  9.61960
_cell_length_b  9.61960
_cell_length_c 12.81700
_cell_angle_alpha 90.00000
_cell_angle_beta  90.00000
_cell_angle_gamma 92.04700
_space_group_name_H-M_alt      'P 1'


loop_
_space_group_symop_operation_xyz
  'x, y, z' 

loop_
_atom_site_label
_atom_site_fract_x
_atom_site_fract_y
_atom_site_fract_z
_atom_site_type_symbol
H       0.0032   0.3714   0.6391     H
H       0.0099   0.5985   0.5863     H
C        0.014   0.3928  0.56879     C
O      0.01431  0.19991  0.96105     O
C      0.01939  0.52839  0.53717     C
H       0.0198   0.1952    0.518     H
C      0.02456   0.2876   0.4965     C
O      0.03312  0.08218  0.34681     O
C       0.0383  0.71338  0.40005     C
C      0.03888  0.56358  0.43312     C
Li      0.0395   0.1177   0.0966    Li
C      0.04246     0.32   0.3905     C
C      0.05053  0.20313  0.31229     C
C      0.05204  0.45776  0.36017     C
H       0.0674     0.48   0.2904     H
Li       0.071    0.929     0.25    Li
O      0.07566  0.23312  0.21916     O
O      0.08218  0.03312  0.65319     O
O      0.08381  0.74469  0.31101     O
Li      0.1177   0.0395   0.9034    Li
H       0.1952   0.0198    0.482     H
O      0.19991  0.01431  0.03895     O
C      0.20313  0.05053  0.68771     C
O      0.23312  0.07566  0.78084     O
O      0.25531  0.91619  0.18899     O
Li      0.2694   0.7306     0.25    Li
C      0.28662   0.9617  0.09995     C
C       0.2876  0.02456   0.5035     C
C         0.32  0.04246   0.6095     C
H       0.3714   0.0032   0.3609     H
C       0.3928    0.014  0.43121     C
H       0.4015   0.9901   0.9137     H
C      0.43642  0.96112  0.06688     C
C      0.45776  0.05204  0.63983     C
C      0.47161  0.98061  0.96283     C
H         0.48   0.0674   0.7096     H
H         0.52   0.9326   0.2096     H
C      0.52839  0.01939  0.46283     C
C      0.54224  0.94796  0.13983     C
C      0.56358  0.03888  0.56688     C
H       0.5985   0.0099   0.4137     H
C       0.6072    0.986  0.93121     C
H       0.6286   0.9968   0.8609     H
C         0.68  0.95754   0.1095     C
C       0.7124  0.97544   0.0035     C
C      0.71338   0.0383  0.59995     C
Li      0.7306   0.2694     0.75    Li
O      0.74469  0.08381  0.68899     O
O      0.76688  0.92434  0.28084     O
C      0.79687  0.94947  0.18771     C
O      0.80009  0.98569  0.53895     O
H       0.8048   0.9802    0.982     H
Li      0.8823   0.9605   0.4034    Li
O      0.91619  0.25531  0.81101     O
O      0.91782  0.96688  0.15319     O
O      0.92434  0.76688  0.71916     O
Li       0.929    0.071     0.75    Li
H       0.9326     0.52   0.7904     H
C      0.94796  0.54224  0.86017     C
C      0.94947  0.79687  0.81229     C
C      0.95754     0.68   0.8905     C
Li      0.9605   0.8823   0.5966    Li
C      0.96112  0.43642  0.93312     C
C       0.9617  0.28662  0.90005     C
O      0.96688  0.91782  0.84681     O
C      0.97544   0.7124   0.9965     C
H       0.9802   0.8048    0.018     H
C      0.98061  0.47161  0.03717     C
O      0.98569  0.80009  0.46105     O
C        0.986   0.6072  0.06879     C
H       0.9901   0.4015   0.0863     H
H       0.9968   0.6286   0.1391     H
