data_I
_chemical_name_common  '/home/zhangsd/repos/MofS-CGCNN/ML/data/SSD/clean_cifs/MOTVOI_clean'
_cell_length_a 15.47240
_cell_length_b 14.14590
_cell_length_c 24.04000
_cell_angle_alpha 90.00000
_cell_angle_beta  90.18800
_cell_angle_gamma 90.00000
_space_group_name_H-M_alt      'P 1'


loop_
_space_group_symop_operation_xyz
  'x, y, z' 

loop_
_atom_site_label
_atom_site_fract_x
_atom_site_fract_y
_atom_site_fract_z
_atom_site_type_symbol
Eu         0.0      0.0      0.0    Eu
O       0.0109   0.2576     0.93     O
O       0.0225   0.1122   0.0657     O
O       0.0232   0.1025   0.9315     O
C       0.0357   0.1819   0.9085     C
H       0.0501   0.0397   0.2631     H
O       0.0502   0.6278   0.9401     O
Eu     0.05602  0.37368  0.99155    Eu
O       0.0626    0.542   0.0488     O
H       0.0692   0.9331   0.2817     H
C        0.074   0.1751   0.0778     C
H       0.0803   0.0387   0.1575     H
C       0.0835   0.1868   0.8552     C
O       0.0857   0.2434   0.0468     O
H       0.0875   0.6702   0.1249     H
H       0.0884   0.3279   0.8499     H
C       0.0908   0.9982   0.2826     C
H       0.0947   0.0449   0.8441     H
H       0.0966   0.0189   0.3214     H
H       0.0978   0.9809   0.7017     H
H       0.1024   0.9342   0.7622     H
C       0.1049   0.2711   0.8317     C
C       0.1057   0.5725   0.9193     C
C       0.1104   0.1044   0.8288     C
O       0.1165   0.4848   0.9317     O
C       0.1214   0.0872   0.1646     C
C       0.1284   0.5084    0.075     C
C       0.1308   0.1653   0.1277     C
C       0.1315   0.6394   0.1458     C
H       0.1356   0.7483   0.8889     H
C       0.1364   0.9543     0.73     C
H       0.1376    0.738   0.2033     H
C       0.1501   0.2766   0.7821     C
H       0.1569   0.3357   0.7639     H
C       0.1585   0.1072   0.7818     C
C       0.1602   0.6787   0.1918     C
O        0.161    0.432   0.0564     O
C       0.1615   0.6081   0.8727     C
C       0.1643   0.5533    0.127     C
H       0.1671   0.8998   0.7146     H
C       0.1672   0.7068   0.8655     C
C       0.1724   0.0846   0.2095     C
C       0.1761   0.0026   0.2551     C
C       0.1842   0.1976   0.7598     C
C       0.1891   0.2337   0.1413     C
H       0.1942   0.2866   0.1172     H
H       0.1967    0.482    0.844     H
C       0.2022   0.5483   0.8387     C
C       0.2027   0.0304   0.7484     C
O       0.2027   0.9217   0.2327     O
H       0.2146   0.7777   0.3021     H
C       0.2199   0.7428   0.8236     C
C       0.2246   0.6338   0.2246     C
H       0.2246    0.809   0.8179     H
C       0.2276   0.5043   0.1561     C
C       0.2303   0.1572   0.2221     C
C       0.2344   0.1795   0.7102     C
H       0.2358   0.4111    0.275     H
O       0.2364   0.4905   0.7174     O
H       0.2374   0.9579   0.8132     H
C       0.2425   0.0479   0.2952     C
C       0.2435   0.2306   0.1899     C
C       0.2464   0.0837   0.7052     C
H       0.2493   0.4451   0.1438     H
H       0.2507   0.9451   0.3562     H
C       0.2536   0.5837   0.7948     C
C       0.2565   0.7306   0.3101     C
C       0.2575   0.5479   0.2048     C
H       0.2626   0.4579   0.6868     H
O       0.2636   0.9905   0.7826     O
H       0.2642   0.9111    0.225     H
C       0.2656   0.6795   0.7898     C
C       0.2697   0.6572   0.2779     C
C       0.2724   0.0043   0.3439     C
C       0.2754   0.1338   0.2754     C
H       0.2754    0.309   0.6821     H
C       0.2801   0.2428   0.6764     C
H       0.2854   0.2777   0.1979     H
O       0.2973   0.4217   0.2673     O
C       0.2973   0.5304   0.7516     C
C       0.2978   0.0483   0.6613     C
H       0.3033    0.982    0.656     H
H       0.3058   0.7866   0.3828     H
C       0.3109   0.7337   0.3587     C
C       0.3158   0.6976   0.7402     C
C       0.3239   0.5026   0.2449     C
C       0.3276   0.5846   0.2905     C
C       0.3328   0.2068   0.6345     C
H       0.3329   0.3998   0.7854     H
C       0.3357   0.0533    0.373     C
C       0.3385   0.1081   0.6273     C
O        0.339    0.932   0.4436     O
C       0.3398   0.1787   0.3082     C
C       0.3415   0.6072   0.7182     C
H       0.3431   0.8357   0.7361     H
C       0.3499   0.7766   0.7179     C
H       0.3624    0.238   0.2967     H
C       0.3636   0.4543     0.77     C
H       0.3644   0.2483   0.6111     H
C       0.3685   0.1394   0.3542     C
C       0.3692   0.6653   0.3723     C
C       0.3716   0.0084    0.425     C
C       0.3786   0.5872   0.3354     C
O       0.3835   0.9848   0.5683     O
C       0.3896   0.6044   0.6712     C
C       0.3943   0.0725   0.5807     C
C       0.3951   0.7711   0.6683     C
H       0.3976   0.4342   0.7378     H
H       0.4022   0.4809   0.7983     H
H       0.4034   0.5189   0.1786     H
H       0.4053   0.5449   0.6559     H
C       0.4092   0.4982   0.2174     C
H       0.4116   0.8279   0.6501     H
H       0.4125   0.1702   0.3751     H
O       0.4143   0.7434   0.4532     O
C       0.4165   0.6868   0.6448     C
H       0.4197   0.5387   0.3425     H
C        0.426   0.6751   0.4222     C
H       0.4308   0.4331   0.2183     H
O       0.4374    0.042   0.4512     O
Eu     0.44398  0.87368  0.50845    Eu
O       0.4498   0.1278   0.5599     O
H       0.4499   0.5397   0.2369     H
C       0.4643   0.6819   0.5915     C
O       0.4768   0.6025   0.5685     O
O       0.4775   0.6122   0.4343     O
O       0.4891   0.7576     0.57     O
Eu         0.5      0.5      0.5    Eu
O       0.5109   0.2424     0.43     O
O       0.5225   0.3878   0.5657     O
O       0.5232   0.3975   0.4315     O
C       0.5357   0.3181   0.4085     C
H       0.5501   0.4603   0.7631     H
O       0.5502   0.8722   0.4401     O
Eu     0.55602  0.12632  0.49155    Eu
O       0.5626    0.958   0.5488     O
H       0.5692   0.5669   0.7817     H
C        0.574   0.3249   0.5778     C
H       0.5803   0.4613   0.6575     H
C       0.5835   0.3132   0.3552     C
O       0.5857   0.2566   0.5468     O
H       0.5875   0.8298   0.6249     H
H       0.5884   0.1721   0.3499     H
C       0.5908   0.5018   0.7826     C
H       0.5947   0.4551   0.3441     H
H       0.5966   0.4811   0.8214     H
H       0.5978   0.5191   0.2017     H
H       0.6024   0.5658   0.2622     H
C       0.6049   0.2289   0.3317     C
C       0.6057   0.9275   0.4193     C
C       0.6104   0.3956   0.3288     C
O       0.6165   0.0152   0.4317     O
C       0.6214   0.4128   0.6646     C
C       0.6284   0.9916    0.575     C
C       0.6308   0.3347   0.6277     C
C       0.6315   0.8606   0.6458     C
H       0.6356   0.7517   0.3889     H
C       0.6364   0.5457     0.23     C
H       0.6376    0.762   0.7033     H
C       0.6501   0.2234   0.2821     C
H       0.6569   0.1643   0.2639     H
C       0.6585   0.3928   0.2818     C
C       0.6602   0.8213   0.6918     C
O        0.661    0.068   0.5564     O
C       0.6615   0.8919   0.3727     C
C       0.6643   0.9467    0.627     C
H       0.6671   0.6002   0.2146     H
C       0.6672   0.7932   0.3655     C
C       0.6724   0.4154   0.7095     C
C       0.6761   0.4974   0.7551     C
C       0.6842   0.3024   0.2598     C
C       0.6891   0.2663   0.6413     C
H       0.6942   0.2134   0.6172     H
H       0.6967    0.018    0.344     H
C       0.7022   0.9517   0.3387     C
C       0.7027   0.4696   0.2484     C
O       0.7027   0.5783   0.7327     O
H       0.7146   0.7223   0.8021     H
C       0.7199   0.7572   0.3236     C
H       0.7246    0.691   0.3179     H
C       0.7246   0.8662   0.7246     C
C       0.7276   0.9957   0.6561     C
C       0.7303   0.3428   0.7221     C
C       0.7344   0.3205   0.2102     C
H       0.7358   0.0889    0.775     H
O       0.7364   0.0095   0.2174     O
H       0.7374   0.5421   0.3132     H
C       0.7425   0.4521   0.7952     C
C       0.7435   0.2694   0.6899     C
C       0.7464   0.4163   0.2052     C
H       0.7493   0.0549   0.6438     H
H       0.7507   0.5549   0.8562     H
C       0.7536   0.9163   0.2948     C
C       0.7565   0.7694   0.8101     C
C       0.7575   0.9521   0.7048     C
H       0.7626   0.0421   0.1868     H
O       0.7636   0.5095   0.2826     O
H       0.7642   0.5889    0.725     H
C       0.7656   0.8205   0.2898     C
C       0.7697   0.8428   0.7779     C
C       0.7724   0.4957   0.8439     C
H       0.7754    0.191   0.1821     H
C       0.7754   0.3662   0.7754     C
C       0.7801   0.2572   0.1764     C
H       0.7854   0.2223   0.6979     H
O       0.7973   0.0783   0.7673     O
C       0.7973   0.9696   0.2516     C
C       0.7978   0.4517   0.1613     C
H       0.8033    0.518    0.156     H
H       0.8058   0.7134   0.8828     H
C       0.8109   0.7663   0.8587     C
C       0.8158   0.8024   0.2402     C
C       0.8239   0.9974   0.7449     C
C       0.8276   0.9154   0.7905     C
C       0.8328   0.2932   0.1345     C
H       0.8329   0.1002   0.2854     H
C       0.8357   0.4467    0.873     C
C       0.8385   0.3919   0.1273     C
O        0.839    0.568   0.9436     O
C       0.8398   0.3213   0.8082     C
C       0.8415   0.8928   0.2182     C
H       0.8431   0.6643   0.2361     H
C       0.8499   0.7234   0.2179     C
H       0.8624    0.262   0.7967     H
C       0.8636   0.0457     0.27     C
H       0.8644   0.2517   0.1111     H
C       0.8685   0.3606   0.8542     C
C       0.8692   0.8347   0.8723     C
C       0.8716   0.4916    0.925     C
C       0.8786   0.9128   0.8354     C
O       0.8835   0.5152   0.0683     O
C       0.8896   0.8956   0.1712     C
C       0.8943   0.4275   0.0807     C
C       0.8951   0.7289   0.1683     C
H       0.8976   0.0658   0.2378     H
H       0.9022   0.0191   0.2983     H
H       0.9034   0.9811   0.6786     H
H       0.9053   0.9551   0.1559     H
C       0.9092   0.0018   0.7174     C
H       0.9116   0.6721   0.1501     H
H       0.9125   0.3298   0.8751     H
O       0.9143   0.7566   0.9532     O
C       0.9165   0.8132   0.1448     C
H       0.9197   0.9613   0.8425     H
C        0.926   0.8249   0.9222     C
H       0.9308   0.0669   0.7183     H
O       0.9374    0.458   0.9512     O
Eu     0.94398  0.62632  0.00845    Eu
O       0.9498   0.3722   0.0599     O
H       0.9499   0.9603   0.7369     H
C       0.9643   0.8181   0.0915     C
O       0.9768   0.8975   0.0685     O
O       0.9775   0.8878   0.9343     O
O       0.9891   0.7424     0.07     O
