data_I
_chemical_name_common  '/home/zhangsd/repos/MofS-CGCNN/ML/data/SSD/clean_cifs/MOYYIJ_clean'
_cell_length_a 14.29700
_cell_length_b 18.90170
_cell_length_c 18.90170
_cell_angle_alpha 66.13100
_cell_angle_beta  75.39650
_cell_angle_gamma 104.60300
_space_group_name_H-M_alt      'P 1'


loop_
_space_group_symop_operation_xyz
  'x, y, z' 

loop_
_atom_site_label
_atom_site_fract_x
_atom_site_fract_y
_atom_site_fract_z
_atom_site_type_symbol
H       0.0133   0.4837    0.768     H
Cu     0.02806  0.55498  0.42003    Cu
O      0.03161  0.38431  0.53076     O
H        0.035   0.6882   0.8186     H
C      0.04388  0.44084  0.20382     C
C      0.04723  0.51456  0.20131     C
C      0.05379  0.63739  0.74349     C
C      0.07183   0.4107  0.45335     C
H       0.0744   0.2616   0.5456     H
O      0.07975  0.47788  0.39555     O
C      0.08036  0.69713  0.76792     C
H       0.1066   0.6158   0.6478     H
C       0.1091  0.28016  0.48853     C
O      0.11325  0.51188  0.56285     O
C      0.11725  0.35679  0.42791     C
C      0.12239  0.65396  0.66655     C
H       0.1352   0.3899   0.1578     H
C      0.13629  0.43946  0.15768     C
C      0.14006  0.58681  0.15353     C
H       0.1406   0.6369   0.1513     H
H       0.1464   0.1814   0.5068     H
C      0.15172  0.23208  0.46505     C
O       0.1619  0.60436  0.42661     O
C      0.16857  0.38223  0.34439     C
C      0.17106  0.76869  0.71984     C
H       0.1748   0.4334   0.3031     H
C      0.17688   0.5749   0.4939     C
H       0.1872   0.8072   0.7384     H
C      0.20272  0.25651  0.38088     C
C      0.21106  0.33345  0.32051     C
C      0.21366  0.72662  0.61777     C
H       0.2187    0.232   0.2517     H
C      0.22878  0.51085  0.11219     C
C      0.23004  0.58493  0.10995     C
C      0.23954   0.7847  0.64321     C
H       0.2456   0.3522   0.2636     H
C       0.2477  0.20382  0.35534     C
C      0.24854  0.20131  0.28413     C
H       0.2547   0.5477   0.6101     H
H       0.2586   0.7365   0.5666     H
C      0.28207  0.62304  0.48915     C
H       0.2919   0.1513   0.2118     H
H       0.2922   0.6333   0.0787     H
H        0.293   0.1578   0.4523     H
C      0.29359  0.15353  0.25966     C
C      0.29397  0.15768  0.40286     C
C      0.30317  0.59714  0.56054     C
O       0.3239  0.43715  0.07473     O
C      0.32922   0.5061   0.0688     C
C      0.33887  0.86405   0.5893     C
C      0.33999  0.10995  0.30512     C
C      0.34097  0.11219  0.37696     C
H       0.3411    0.712   0.3667     H
H       0.3468   0.4932   0.6882     H
O       0.3527  0.91507  0.61569     O
C      0.35489  0.69488  0.41507     C
H       0.3709   0.0787    0.288     H
H         0.38   0.4544   0.8072     H
C      0.38323  0.53495  0.69713     C
C      0.39696  0.64466  0.55916     C
C      0.39802   0.0688   0.4251     C
O      0.39813  0.87343  0.52212     O
O      0.39863  0.07473  0.48812     O
C      0.40237  0.51147  0.76869     C
O      0.41149  0.57339  0.03097     O
C       0.4164  0.61912  0.63739     C
O      0.43763  0.46924  0.91507     O
O      0.44246  0.03097  0.39564     O
C      0.44675  0.74034  0.41319     C
Cu     0.44809  0.42003  0.02499    Cu
C      0.45484  0.57209   0.7847     C
C      0.46733  0.71587  0.48544     C
C      0.46843  0.67949  0.65396     C
H       0.4704   0.2517   0.5163     H
Cu     0.47308  0.02499  0.55498    Cu
C      0.47482  0.54665  0.86405     C
O       0.4753  0.39555  0.12657     O
H       0.4779   0.3031   0.2635     H
C      0.48704  0.65561  0.72662     C
H       0.4908   0.7364   0.6158     H
H       0.4963   0.7882   0.3631     H
H       0.5037   0.2118   0.6369     H
H       0.5092   0.2636   0.3842     H
C      0.51296  0.34439  0.27338     C
H       0.5221   0.6969   0.7365     H
O       0.5247  0.60445  0.87343     O
C      0.52518  0.45335  0.13595     C
Cu     0.52692  0.97501  0.44502    Cu
H       0.5296   0.7483   0.4837     H
C      0.53157  0.32051  0.34604     C
C      0.53267  0.28413  0.51456     C
C      0.54516  0.42791   0.2153     C
Cu     0.55191  0.57997  0.97501    Cu
C      0.55325  0.25966  0.58681     C
O      0.55754  0.96903  0.60436     O
O      0.56237  0.53076  0.08493     O
C       0.5836  0.38088  0.36261     C
O      0.58851  0.42661  0.96903     O
C      0.59763  0.48853  0.23131     C
O      0.60137  0.92527  0.51188     O
O      0.60187  0.12657  0.47788     O
C      0.60198   0.9312   0.5749     C
C      0.60304  0.35534  0.44084     C
C      0.61677  0.46505  0.30287     C
H         0.62   0.5456   0.1928     H
H       0.6291   0.9213    0.712     H
C      0.64511  0.30512  0.58493     C
O       0.6473  0.08493  0.38431     O
H       0.6532   0.5068   0.3118     H
H       0.6589    0.288   0.6333     H
C      0.65903  0.88781  0.62304     C
C      0.66001  0.89005  0.69488     C
C      0.66113  0.13595   0.4107     C
C      0.67078   0.4939   0.9312     C
O       0.6761  0.56285  0.92527     O
C      0.69683  0.40286  0.43946     C
C      0.70603  0.84232  0.59714     C
C      0.70641  0.84647  0.74034     C
H        0.707   0.8422   0.5477     H
H       0.7078   0.3667   0.9213     H
H       0.7081   0.8487   0.7882     H
C      0.71793  0.37696  0.51085     C
H       0.7414   0.2635   0.4334     H
H       0.7453   0.4523   0.3899     H
C      0.75146  0.79869  0.71587     C
C       0.7523  0.79618  0.64466     C
H       0.7544   0.6478   0.7364     H
C      0.76046   0.2153  0.35679     C
C      0.76996  0.41507  0.89005     C
C      0.77122  0.48915  0.88781     C
H       0.7813    0.768   0.7483     H
C      0.78634  0.27338  0.38223     C
C      0.78894  0.66655  0.67949     C
C      0.79728  0.74349  0.61912     C
H       0.8128   0.1928   0.2616     H
C      0.82312   0.4251   0.5061     C
H       0.8252   0.5666   0.6969     H
C      0.82894  0.23131  0.28016     C
C      0.83143  0.61777  0.65561     C
O       0.8381  0.39564  0.57339     O
C      0.84828  0.76792  0.53495     C
H       0.8536   0.8186   0.4932     H
H       0.8594   0.3631   0.8487     H
C      0.85994  0.41319  0.84647     C
C      0.86371  0.56054  0.84232     C
H       0.8648   0.6101   0.8422     H
C      0.87761  0.34604  0.33345     C
C      0.88275  0.64321  0.57209     C
O      0.88675  0.48812  0.43715     O
C       0.8909  0.71984  0.51147     C
H       0.8934   0.3842   0.3522     H
C      0.91964  0.30287  0.23208     C
O      0.92025  0.52212  0.60445     O
H       0.9256   0.7384   0.4544     H
C      0.92817   0.5893  0.54665     C
C      0.94621  0.36261  0.25651     C
C      0.95277  0.48544  0.79869     C
C      0.95612  0.55916  0.79618     C
H        0.965   0.3118   0.1814     H
O      0.96839  0.61569  0.46924     O
Cu     0.97194  0.44502  0.57997    Cu
H       0.9867   0.5163    0.232     H
