data_I
_chemical_name_common  '/home/zhangsd/repos/MofS-CGCNN/ML/data/SSD/clean_cifs/MUDTEL_clean'
_cell_length_a 30.28750
_cell_length_b 30.28750
_cell_length_c 30.28750
_cell_angle_alpha 60.00000
_cell_angle_beta  60.00000
_cell_angle_gamma 60.00000
_space_group_name_H-M_alt      'P 1'


loop_
_space_group_symop_operation_xyz
  'x, y, z' 

loop_
_atom_site_label
_atom_site_fract_x
_atom_site_fract_y
_atom_site_fract_z
_atom_site_type_symbol
Cu         0.0      0.0  0.26244    Cu
Cu         0.0      0.0  0.64961    Cu
Cu         0.0      0.0  0.73756    Cu
Cu         0.0  0.26244      0.0    Cu
Cu         0.0  0.26244  0.73756    Cu
Cu         0.0  0.35039      0.0    Cu
Cu         0.0  0.64961      0.0    Cu
Cu         0.0  0.64961  0.35039    Cu
Cu         0.0  0.73756      0.0    Cu
Cu         0.0  0.73756  0.26244    Cu
Cu         0.0      1.0  0.35039    Cu
O      0.01286  0.30086  0.76314     O
O      0.01286  0.30086  0.92314     O
O      0.01286  0.76314  0.30086     O
O      0.01286  0.76314  0.92314     O
O      0.01286  0.92314  0.30086     O
O      0.01286  0.92314  0.76314     O
O       0.0131   0.3755  0.68868     O
O       0.0131   0.3755  0.92272     O
O       0.0131  0.68868   0.3755     O
O       0.0131  0.68868  0.92272     O
O       0.0131  0.92272   0.3755     O
O       0.0131  0.92272  0.68868     O
C      0.01586   0.3484  0.73598     C
C      0.01586   0.3484  0.89976     C
C      0.01586  0.73598   0.3484     C
C      0.01586  0.73598  0.89976     C
C      0.01586  0.89976   0.3484     C
C      0.01586  0.89976  0.73598     C
H       0.0163   0.3139   0.8349     H
H       0.0163   0.8349   0.3139     H
H       0.0163   0.8349   0.8349     H
C      0.02017  0.34861  0.81561     C
C      0.02017  0.81561  0.34861     C
C      0.02017  0.81561  0.81561     C
C      0.02294  0.37354  0.76192     C
C      0.02294  0.37354   0.8416     C
C      0.02294  0.76192  0.37354     C
C      0.02294  0.76192   0.8416     C
C      0.02294   0.8416  0.37354     C
C      0.02294   0.8416  0.76192     C
C      0.02961  0.42379  0.73387     C
C      0.02961  0.42379  0.81273     C
C      0.02961  0.73387  0.42379     C
C      0.02961  0.73387  0.81273     C
C      0.02961  0.81273  0.42379     C
C      0.02961  0.81273  0.73387     C
H       0.0312   0.4414   0.6972     H
H       0.0312   0.4414   0.8302     H
H       0.0312   0.6972   0.4414     H
H       0.0312   0.6972   0.8302     H
H       0.0312   0.8302   0.4414     H
H       0.0312   0.8302   0.6972     H
C      0.03394  0.44866   0.7587     C
C      0.03394   0.7587  0.44866     C
C      0.03394   0.7587   0.7587     C
C       0.0431   0.5011   0.7279     C
C       0.0431   0.7279   0.5011     C
C       0.0431   0.7279   0.7279     C
C       0.0448   0.5444   0.7054     C
C       0.0448   0.7054   0.5444     C
C       0.0448   0.7054   0.7054     C
C       0.0466   0.5982   0.6776     C
C       0.0466   0.6776   0.5982     C
C       0.0466   0.6776   0.6776     C
C       0.0483   0.6243   0.6243     C
C       0.0483   0.6243   0.7031     C
C       0.0483   0.7031   0.6243     C
H       0.0506   0.6054   0.6054     H
H       0.0506   0.6054   0.7386     H
H       0.0506   0.7386   0.6054     H
O      0.07686  0.23686  0.69914     O
O      0.07686  0.23686  0.98714     O
O      0.07686  0.69914  0.23686     O
O      0.07686  0.69914  0.98714     O
O      0.07686  0.98714  0.23686     O
O      0.07686  0.98714  0.69914     O
O      0.07728  0.31132   0.6245     O
O      0.07728  0.31132   0.9869     O
O      0.07728   0.6245  0.31132     O
O      0.07728   0.6245   0.9869     O
O      0.07728   0.9869  0.31132     O
O      0.07728   0.9869   0.6245     O
C      0.10024  0.26402   0.6516     C
C      0.10024  0.26402  0.98414     C
C      0.10024   0.6516  0.26402     C
C      0.10024   0.6516  0.98414     C
C      0.10024  0.98414  0.26402     C
C      0.10024  0.98414   0.6516     C
C       0.1584  0.23808  0.62646     C
C       0.1584  0.23808  0.97706     C
C       0.1584  0.62646  0.23808     C
C       0.1584  0.62646  0.97706     C
C       0.1584  0.97706  0.23808     C
C       0.1584  0.97706  0.62646     C
H       0.1651   0.1651   0.6861     H
H       0.1651   0.1651   0.9837     H
H       0.1651   0.6861   0.1651     H
H       0.1651   0.6861   0.9837     H
H       0.1651   0.9837   0.1651     H
H       0.1651   0.9837   0.6861     H
H       0.1698   0.3028   0.5586     H
H       0.1698   0.3028   0.9688     H
H       0.1698   0.5586   0.3028     H
H       0.1698   0.5586   0.9688     H
H       0.1698   0.9688   0.3028     H
H       0.1698   0.9688   0.5586     H
C      0.18439  0.18439  0.65139     C
C      0.18439  0.18439  0.97983     C
C      0.18439  0.65139  0.18439     C
C      0.18439  0.65139  0.97983     C
C      0.18439  0.97983  0.18439     C
C      0.18439  0.97983  0.65139     C
C      0.18727  0.26613  0.57621     C
C      0.18727  0.26613  0.97039     C
C      0.18727  0.57621  0.26613     C
C      0.18727  0.57621  0.97039     C
C      0.18727  0.97039  0.26613     C
C      0.18727  0.97039  0.57621     C
O      0.23686  0.07686  0.69914     O
O      0.23686  0.07686  0.98714     O
O      0.23686  0.69914  0.07686     O
O      0.23686  0.69914  0.98714     O
O      0.23686  0.98714  0.07686     O
O      0.23686  0.98714  0.69914     O
C      0.23808   0.1584  0.62646     C
C      0.23808   0.1584  0.97706     C
C      0.23808  0.62646   0.1584     C
C      0.23808  0.62646  0.97706     C
C      0.23808  0.97706   0.1584     C
C      0.23808  0.97706  0.62646     C
C       0.2413   0.2413  0.55134     C
C       0.2413   0.2413  0.96606     C
C       0.2413  0.55134   0.2413     C
C       0.2413  0.55134  0.96606     C
C       0.2413  0.96606   0.2413     C
C       0.2413  0.96606  0.55134     C
H       0.2614   0.3946   0.3946     H
H       0.2614   0.3946   0.9494     H
H       0.2614   0.9494   0.3946     H
Cu     0.26244      0.0      0.0    Cu
Cu     0.26244      0.0  0.73756    Cu
Cu     0.26244  0.73756      0.0    Cu
C      0.26402  0.10024   0.6516     C
C      0.26402  0.10024  0.98414     C
C      0.26402   0.6516  0.10024     C
C      0.26402   0.6516  0.98414     C
C      0.26402  0.98414  0.10024     C
C      0.26402  0.98414   0.6516     C
C      0.26613  0.18727  0.57621     C
C      0.26613  0.18727  0.97039     C
C      0.26613  0.57621  0.18727     C
C      0.26613  0.57621  0.97039     C
C      0.26613  0.97039  0.18727     C
C      0.26613  0.97039  0.57621     C
C       0.2721   0.2721   0.4989     C
C       0.2721   0.2721   0.9569     C
C       0.2721   0.4989   0.2721     C
C       0.2721   0.4989   0.9569     C
C       0.2721   0.9569   0.2721     C
C       0.2721   0.9569   0.4989     C
C       0.2946   0.2946   0.4556     C
C       0.2946   0.2946   0.9552     C
C       0.2946   0.4556   0.2946     C
C       0.2946   0.4556   0.9552     C
C       0.2946   0.9552   0.2946     C
C       0.2946   0.9552   0.4556     C
C       0.2969   0.3757   0.3757     C
C       0.2969   0.3757   0.9517     C
C       0.2969   0.9517   0.3757     C
O      0.30086  0.01286  0.76314     O
O      0.30086  0.01286  0.92314     O
O      0.30086  0.76314  0.01286     O
O      0.30086  0.76314  0.92314     O
O      0.30086  0.92314  0.01286     O
O      0.30086  0.92314  0.76314     O
H       0.3028   0.1698   0.5586     H
H       0.3028   0.1698   0.9688     H
H       0.3028   0.5586   0.1698     H
H       0.3028   0.5586   0.9688     H
H       0.3028   0.9688   0.1698     H
H       0.3028   0.9688   0.5586     H
O      0.31132  0.07728   0.6245     O
O      0.31132  0.07728   0.9869     O
O      0.31132   0.6245  0.07728     O
O      0.31132   0.6245   0.9869     O
O      0.31132   0.9869  0.07728     O
O      0.31132   0.9869   0.6245     O
H       0.3139   0.0163   0.8349     H
H       0.3139   0.8349   0.0163     H
H       0.3139   0.8349   0.8349     H
C       0.3224   0.3224   0.4018     C
C       0.3224   0.3224   0.9534     C
C       0.3224   0.4018   0.3224     C
C       0.3224   0.4018   0.9534     C
C       0.3224   0.9534   0.3224     C
C       0.3224   0.9534   0.4018     C
C       0.3484  0.01586  0.73598     C
C       0.3484  0.01586  0.89976     C
C       0.3484  0.73598  0.01586     C
C       0.3484  0.73598  0.89976     C
C       0.3484  0.89976  0.01586     C
C       0.3484  0.89976  0.73598     C
C      0.34861  0.02017  0.81561     C
C      0.34861  0.81561  0.02017     C
C      0.34861  0.81561  0.81561     C
Cu     0.35039     -0.0      0.0    Cu
Cu     0.35039  0.64961      0.0    Cu
Cu     0.35039      1.0  0.64961    Cu
C      0.37354  0.02294  0.76192     C
C      0.37354  0.02294   0.8416     C
C      0.37354  0.76192  0.02294     C
C      0.37354  0.76192   0.8416     C
C      0.37354   0.8416  0.02294     C
C      0.37354   0.8416  0.76192     C
O       0.3755   0.0131  0.68868     O
O       0.3755   0.0131  0.92272     O
O       0.3755  0.68868   0.0131     O
O       0.3755  0.68868  0.92272     O
O       0.3755  0.92272   0.0131     O
O       0.3755  0.92272  0.68868     O
C       0.3757   0.2969   0.3757     C
C       0.3757   0.2969   0.9517     C
C       0.3757   0.3757   0.2969     C
C       0.3757   0.3757   0.9517     C
C       0.3757   0.9517   0.2969     C
C       0.3757   0.9517   0.3757     C
H       0.3946   0.2614   0.3946     H
H       0.3946   0.2614   0.9494     H
H       0.3946   0.3946   0.2614     H
H       0.3946   0.3946   0.9494     H
H       0.3946   0.9494   0.2614     H
H       0.3946   0.9494   0.3946     H
C       0.4018   0.3224   0.3224     C
C       0.4018   0.3224   0.9534     C
C       0.4018   0.9534   0.3224     C
C      0.42379  0.02961  0.73387     C
C      0.42379  0.02961  0.81273     C
C      0.42379  0.73387  0.02961     C
C      0.42379  0.73387  0.81273     C
C      0.42379  0.81273  0.02961     C
C      0.42379  0.81273  0.73387     C
H       0.4414   0.0312   0.6972     H
H       0.4414   0.0312   0.8302     H
H       0.4414   0.6972   0.0312     H
H       0.4414   0.6972   0.8302     H
H       0.4414   0.8302   0.0312     H
H       0.4414   0.8302   0.6972     H
C      0.44866  0.03394   0.7587     C
C      0.44866   0.7587  0.03394     C
C      0.44866   0.7587   0.7587     C
C       0.4556   0.2946   0.2946     C
C       0.4556   0.2946   0.9552     C
C       0.4556   0.9552   0.2946     C
C       0.4989   0.2721   0.2721     C
C       0.4989   0.2721   0.9569     C
C       0.4989   0.9569   0.2721     C
C       0.5011   0.0431   0.7279     C
C       0.5011   0.7279   0.0431     C
C       0.5011   0.7279   0.7279     C
C       0.5444   0.0448   0.7054     C
C       0.5444   0.7054   0.0448     C
C       0.5444   0.7054   0.7054     C
C      0.55134   0.2413   0.2413     C
C      0.55134   0.2413  0.96606     C
C      0.55134  0.96606   0.2413     C
H       0.5586   0.1698   0.3028     H
H       0.5586   0.1698   0.9688     H
H       0.5586   0.3028   0.1698     H
H       0.5586   0.3028   0.9688     H
H       0.5586   0.9688   0.1698     H
H       0.5586   0.9688   0.3028     H
C      0.57621  0.18727  0.26613     C
C      0.57621  0.18727  0.97039     C
C      0.57621  0.26613  0.18727     C
C      0.57621  0.26613  0.97039     C
C      0.57621  0.97039  0.18727     C
C      0.57621  0.97039  0.26613     C
C       0.5982   0.0466   0.6776     C
C       0.5982   0.6776   0.0466     C
C       0.5982   0.6776   0.6776     C
H       0.6054   0.0506   0.6054     H
H       0.6054   0.0506   0.7386     H
H       0.6054   0.6054   0.0506     H
H       0.6054   0.6054   0.7386     H
H       0.6054   0.7386   0.0506     H
H       0.6054   0.7386   0.6054     H
C       0.6243   0.0483   0.6243     C
C       0.6243   0.0483   0.7031     C
C       0.6243   0.6243   0.0483     C
C       0.6243   0.6243   0.7031     C
C       0.6243   0.7031   0.0483     C
C       0.6243   0.7031   0.6243     C
O       0.6245  0.07728  0.31132     O
O       0.6245  0.07728   0.9869     O
O       0.6245  0.31132  0.07728     O
O       0.6245  0.31132   0.9869     O
O       0.6245   0.9869  0.07728     O
O       0.6245   0.9869  0.31132     O
C      0.62646   0.1584  0.23808     C
C      0.62646   0.1584  0.97706     C
C      0.62646  0.23808   0.1584     C
C      0.62646  0.23808  0.97706     C
C      0.62646  0.97706   0.1584     C
C      0.62646  0.97706  0.23808     C
Cu     0.64961      0.0      0.0    Cu
Cu     0.64961      0.0  0.35039    Cu
Cu     0.64961  0.35039      0.0    Cu
C      0.65139  0.18439  0.18439     C
C      0.65139  0.18439  0.97983     C
C      0.65139  0.97983  0.18439     C
C       0.6516  0.10024  0.26402     C
C       0.6516  0.10024  0.98414     C
C       0.6516  0.26402  0.10024     C
C       0.6516  0.26402  0.98414     C
C       0.6516  0.98414  0.10024     C
C       0.6516  0.98414  0.26402     C
C       0.6776   0.0466   0.5982     C
C       0.6776   0.0466   0.6776     C
C       0.6776   0.5982   0.0466     C
C       0.6776   0.5982   0.6776     C
C       0.6776   0.6776   0.0466     C
C       0.6776   0.6776   0.5982     C
H       0.6861   0.1651   0.1651     H
H       0.6861   0.1651   0.9837     H
H       0.6861   0.9837   0.1651     H
O      0.68868   0.0131   0.3755     O
O      0.68868   0.0131  0.92272     O
O      0.68868   0.3755   0.0131     O
O      0.68868   0.3755  0.92272     O
O      0.68868  0.92272   0.0131     O
O      0.68868  0.92272   0.3755     O
H       0.6972   0.0312   0.4414     H
H       0.6972   0.0312   0.8302     H
H       0.6972   0.4414   0.0312     H
H       0.6972   0.4414   0.8302     H
H       0.6972   0.8302   0.0312     H
H       0.6972   0.8302   0.4414     H
O      0.69914  0.07686  0.23686     O
O      0.69914  0.07686  0.98714     O
O      0.69914  0.23686  0.07686     O
O      0.69914  0.23686  0.98714     O
O      0.69914  0.98714  0.07686     O
O      0.69914  0.98714  0.23686     O
C       0.7031   0.0483   0.6243     C
C       0.7031   0.6243   0.0483     C
C       0.7031   0.6243   0.6243     C
C       0.7054   0.0448   0.5444     C
C       0.7054   0.0448   0.7054     C
C       0.7054   0.5444   0.0448     C
C       0.7054   0.5444   0.7054     C
C       0.7054   0.7054   0.0448     C
C       0.7054   0.7054   0.5444     C
C       0.7279   0.0431   0.5011     C
C       0.7279   0.0431   0.7279     C
C       0.7279   0.5011   0.0431     C
C       0.7279   0.5011   0.7279     C
C       0.7279   0.7279   0.0431     C
C       0.7279   0.7279   0.5011     C
C      0.73387  0.02961  0.42379     C
C      0.73387  0.02961  0.81273     C
C      0.73387  0.42379  0.02961     C
C      0.73387  0.42379  0.81273     C
C      0.73387  0.81273  0.02961     C
C      0.73387  0.81273  0.42379     C
C      0.73598  0.01586   0.3484     C
C      0.73598  0.01586  0.89976     C
C      0.73598   0.3484  0.01586     C
C      0.73598   0.3484  0.89976     C
C      0.73598  0.89976  0.01586     C
C      0.73598  0.89976   0.3484     C
Cu     0.73756      0.0      0.0    Cu
Cu     0.73756      0.0  0.26244    Cu
Cu     0.73756  0.26244      0.0    Cu
H       0.7386   0.0506   0.6054     H
H       0.7386   0.6054   0.0506     H
H       0.7386   0.6054   0.6054     H
C       0.7587  0.03394  0.44866     C
C       0.7587  0.03394   0.7587     C
C       0.7587  0.44866  0.03394     C
C       0.7587  0.44866   0.7587     C
C       0.7587   0.7587  0.03394     C
C       0.7587   0.7587  0.44866     C
C      0.76192  0.02294  0.37354     C
C      0.76192  0.02294   0.8416     C
C      0.76192  0.37354  0.02294     C
C      0.76192  0.37354   0.8416     C
C      0.76192   0.8416  0.02294     C
C      0.76192   0.8416  0.37354     C
O      0.76314  0.01286  0.30086     O
O      0.76314  0.01286  0.92314     O
O      0.76314  0.30086  0.01286     O
O      0.76314  0.30086  0.92314     O
O      0.76314  0.92314  0.01286     O
O      0.76314  0.92314  0.30086     O
C      0.81273  0.02961  0.42379     C
C      0.81273  0.02961  0.73387     C
C      0.81273  0.42379  0.02961     C
C      0.81273  0.42379  0.73387     C
C      0.81273  0.73387  0.02961     C
C      0.81273  0.73387  0.42379     C
C      0.81561  0.02017  0.34861     C
C      0.81561  0.02017  0.81561     C
C      0.81561  0.34861  0.02017     C
C      0.81561  0.34861  0.81561     C
C      0.81561  0.81561  0.02017     C
C      0.81561  0.81561  0.34861     C
H       0.8302   0.0312   0.4414     H
H       0.8302   0.0312   0.6972     H
H       0.8302   0.4414   0.0312     H
H       0.8302   0.4414   0.6972     H
H       0.8302   0.6972   0.0312     H
H       0.8302   0.6972   0.4414     H
H       0.8349   0.0163   0.3139     H
H       0.8349   0.0163   0.8349     H
H       0.8349   0.3139   0.0163     H
H       0.8349   0.3139   0.8349     H
H       0.8349   0.8349   0.0163     H
H       0.8349   0.8349   0.3139     H
C       0.8416  0.02294  0.37354     C
C       0.8416  0.02294  0.76192     C
C       0.8416  0.37354  0.02294     C
C       0.8416  0.37354  0.76192     C
C       0.8416  0.76192  0.02294     C
C       0.8416  0.76192  0.37354     C
C      0.89976  0.01586   0.3484     C
C      0.89976  0.01586  0.73598     C
C      0.89976   0.3484  0.01586     C
C      0.89976   0.3484  0.73598     C
C      0.89976  0.73598  0.01586     C
C      0.89976  0.73598   0.3484     C
O      0.92272   0.0131   0.3755     O
O      0.92272   0.0131  0.68868     O
O      0.92272   0.3755   0.0131     O
O      0.92272   0.3755  0.68868     O
O      0.92272  0.68868   0.0131     O
O      0.92272  0.68868   0.3755     O
O      0.92314  0.01286  0.30086     O
O      0.92314  0.01286  0.76314     O
O      0.92314  0.30086  0.01286     O
O      0.92314  0.30086  0.76314     O
O      0.92314  0.76314  0.01286     O
O      0.92314  0.76314  0.30086     O
H       0.9494   0.2614   0.3946     H
H       0.9494   0.3946   0.2614     H
H       0.9494   0.3946   0.3946     H
C       0.9517   0.2969   0.3757     C
C       0.9517   0.3757   0.2969     C
C       0.9517   0.3757   0.3757     C
C       0.9534   0.3224   0.3224     C
C       0.9534   0.3224   0.4018     C
C       0.9534   0.4018   0.3224     C
C       0.9552   0.2946   0.2946     C
C       0.9552   0.2946   0.4556     C
C       0.9552   0.4556   0.2946     C
C       0.9569   0.2721   0.2721     C
C       0.9569   0.2721   0.4989     C
C       0.9569   0.4989   0.2721     C
C      0.96606   0.2413   0.2413     C
C      0.96606   0.2413  0.55134     C
C      0.96606  0.55134   0.2413     C
H       0.9688   0.1698   0.3028     H
H       0.9688   0.1698   0.5586     H
H       0.9688   0.3028   0.1698     H
H       0.9688   0.3028   0.5586     H
H       0.9688   0.5586   0.1698     H
H       0.9688   0.5586   0.3028     H
C      0.97039  0.18727  0.26613     C
C      0.97039  0.18727  0.57621     C
C      0.97039  0.26613  0.18727     C
C      0.97039  0.26613  0.57621     C
C      0.97039  0.57621  0.18727     C
C      0.97039  0.57621  0.26613     C
C      0.97706   0.1584  0.23808     C
C      0.97706   0.1584  0.62646     C
C      0.97706  0.23808   0.1584     C
C      0.97706  0.23808  0.62646     C
C      0.97706  0.62646   0.1584     C
C      0.97706  0.62646  0.23808     C
C      0.97983  0.18439  0.18439     C
C      0.97983  0.18439  0.65139     C
C      0.97983  0.65139  0.18439     C
H       0.9837   0.1651   0.1651     H
H       0.9837   0.1651   0.6861     H
H       0.9837   0.6861   0.1651     H
C      0.98414  0.10024  0.26402     C
C      0.98414  0.10024   0.6516     C
C      0.98414  0.26402  0.10024     C
C      0.98414  0.26402   0.6516     C
C      0.98414   0.6516  0.10024     C
C      0.98414   0.6516  0.26402     C
O       0.9869  0.07728  0.31132     O
O       0.9869  0.07728   0.6245     O
O       0.9869  0.31132  0.07728     O
O       0.9869  0.31132   0.6245     O
O       0.9869   0.6245  0.07728     O
O       0.9869   0.6245  0.31132     O
O      0.98714  0.07686  0.23686     O
O      0.98714  0.07686  0.69914     O
O      0.98714  0.23686  0.07686     O
O      0.98714  0.23686  0.69914     O
O      0.98714  0.69914  0.07686     O
O      0.98714  0.69914  0.23686     O
Cu         1.0  0.35039  0.64961    Cu
