data_I
_chemical_name_common  '/home/zhangsd/repos/MofS-CGCNN/ML/data/SSD/clean_cifs/MUPYIG_clean'
_cell_length_a  5.51440
_cell_length_b  8.00210
_cell_length_c  9.24670
_cell_angle_alpha 78.48700
_cell_angle_beta  72.86900
_cell_angle_gamma 87.20000
_space_group_name_H-M_alt      'P 1'


loop_
_space_group_symop_operation_xyz
  'x, y, z' 

loop_
_atom_site_label
_atom_site_fract_x
_atom_site_fract_y
_atom_site_fract_z
_atom_site_type_symbol
Cd         0.0      0.0      0.0    Cd
C       0.0089   0.5677   0.7759     C
H       0.0788   0.5197   0.2406     H
N       0.0865   0.3358   0.1232     N
N        0.091   0.7766   0.8715     N
H       0.2392   0.3429   0.0626     H
N       0.2479   0.6113   0.7003     N
O       0.2486   0.9314   0.1639     O
C         0.29   0.7408   0.7627     C
O       0.3052   0.6918   0.3497     O
O       0.3347   0.1366    0.809     O
S      0.42056  0.79238  0.19269     S
H       0.4441   0.7992   0.7322     H
O        0.462   0.6818   0.0804     O
Cd         0.5      0.5      0.5    Cd
O        0.538   0.3182   0.9196     O
H       0.5559   0.2008   0.2678     H
S      0.57944  0.20762  0.80731     S
O       0.6653   0.8634    0.191     O
O       0.6948   0.3082   0.6503     O
C         0.71   0.2592   0.2373     C
O       0.7514   0.0686   0.8361     O
N       0.7521   0.3887   0.2997     N
H       0.7608   0.6571   0.9374     H
N        0.909   0.2234   0.1285     N
N       0.9135   0.6642   0.8768     N
H       0.9212   0.4803   0.7594     H
C       0.9911   0.4323   0.2241     C
