data_I
_chemical_name_common  '/home/zhangsd/repos/MofS-CGCNN/ML/data/SSD/clean_cifs/MUWQEB_clean'
_cell_length_a 18.82350
_cell_length_b 18.82350
_cell_length_c 18.82350
_cell_angle_alpha 90.00000
_cell_angle_beta  90.00000
_cell_angle_gamma 90.00000
_space_group_name_H-M_alt      'P 1'


loop_
_space_group_symop_operation_xyz
  'x, y, z' 

loop_
_atom_site_label
_atom_site_fract_x
_atom_site_fract_y
_atom_site_fract_z
_atom_site_type_symbol
Fe         0.0  0.14071      0.5    Fe
Fe         0.0      0.5  0.14071    Fe
Fe         0.0      0.5  0.85929    Fe
Fe         0.0  0.85929      0.5    Fe
N      0.08129  0.13083  0.42169     N
N      0.08129  0.13083  0.57831     N
N      0.08129  0.42169  0.13083     N
N      0.08129  0.42169  0.86917     N
N      0.08129  0.57831  0.13083     N
N      0.08129  0.57831  0.86917     N
N      0.08129  0.86917  0.42169     N
N      0.08129  0.86917  0.57831     N
N      0.09125  0.17458  0.36667     N
N      0.09125  0.17458  0.63333     N
N      0.09125  0.36667  0.17458     N
N      0.09125  0.36667  0.82542     N
N      0.09125  0.63333  0.17458     N
N      0.09125  0.63333  0.82542     N
N      0.09125  0.82542  0.36667     N
N      0.09125  0.82542  0.63333     N
H       0.1081   0.2607   0.2607     H
H       0.1081   0.2607   0.7393     H
H       0.1081   0.7393   0.2607     H
H       0.1081   0.7393   0.7393     H
N      0.13083  0.08129  0.42169     N
N      0.13083  0.08129  0.57831     N
N      0.13083  0.42169  0.08129     N
N      0.13083  0.42169  0.91871     N
N      0.13083  0.57831  0.08129     N
N      0.13083  0.57831  0.91871     N
N      0.13083  0.91871  0.42169     N
N      0.13083  0.91871  0.57831     N
Fe     0.14071      0.0      0.5    Fe
Fe     0.14071      0.5      1.0    Fe
C      0.14881  0.14881  0.33428     C
C      0.14881  0.14881  0.66572     C
C      0.14881  0.33428  0.14881     C
C      0.14881  0.33428  0.85119     C
C      0.14881  0.66572  0.14881     C
C      0.14881  0.66572  0.85119     C
C      0.14881  0.85119  0.33428     C
C      0.14881  0.85119  0.66572     C
C      0.14956  0.24031  0.24031     C
C      0.14956  0.24031  0.75969     C
C      0.14956  0.75969  0.24031     C
C      0.14956  0.75969  0.75969     C
N      0.17458  0.09125  0.36667     N
N      0.17458  0.09125  0.63333     N
N      0.17458  0.36667  0.09125     N
N      0.17458  0.36667  0.90875     N
N      0.17458  0.63333  0.09125     N
N      0.17458  0.63333  0.90875     N
N      0.17458  0.90875  0.36667     N
N      0.17458  0.90875  0.63333     N
C      0.18003  0.18003  0.27058     C
C      0.18003  0.18003  0.72942     C
C      0.18003  0.27058  0.18003     C
C      0.18003  0.27058  0.81997     C
C      0.18003  0.72942  0.18003     C
C      0.18003  0.72942  0.81997     C
C      0.18003  0.81997  0.27058     C
C      0.18003  0.81997  0.72942     C
C      0.24031  0.14956  0.24031     C
C      0.24031  0.14956  0.75969     C
C      0.24031  0.24031  0.14956     C
C      0.24031  0.24031  0.85044     C
C      0.24031  0.75969  0.14956     C
C      0.24031  0.75969  0.85044     C
C      0.24031  0.85044  0.24031     C
C      0.24031  0.85044  0.75969     C
H       0.2607   0.1081   0.2607     H
H       0.2607   0.1081   0.7393     H
H       0.2607   0.2607   0.1081     H
H       0.2607   0.2607   0.8919     H
H       0.2607   0.7393   0.1081     H
H       0.2607   0.7393   0.8919     H
H       0.2607   0.8919   0.2607     H
H       0.2607   0.8919   0.7393     H
C      0.27058  0.18003  0.18003     C
C      0.27058  0.18003  0.81997     C
C      0.27058  0.81997  0.18003     C
C      0.27058  0.81997  0.81997     C
C      0.33428  0.14881  0.14881     C
C      0.33428  0.14881  0.85119     C
C      0.33428  0.85119  0.14881     C
C      0.33428  0.85119  0.85119     C
N      0.36667  0.09125  0.17458     N
N      0.36667  0.09125  0.82542     N
N      0.36667  0.17458  0.09125     N
N      0.36667  0.17458  0.90875     N
N      0.36667  0.82542  0.09125     N
N      0.36667  0.82542  0.90875     N
N      0.36667  0.90875  0.17458     N
N      0.36667  0.90875  0.82542     N
N      0.42169  0.08129  0.13083     N
N      0.42169  0.08129  0.86917     N
N      0.42169  0.13083  0.08129     N
N      0.42169  0.13083  0.91871     N
N      0.42169  0.86917  0.08129     N
N      0.42169  0.86917  0.91871     N
N      0.42169  0.91871  0.13083     N
N      0.42169  0.91871  0.86917     N
Fe         0.5      0.0  0.14071    Fe
Fe         0.5      0.0  0.85929    Fe
Fe         0.5  0.14071      1.0    Fe
Fe         0.5  0.85929      1.0    Fe
N      0.57831  0.08129  0.13083     N
N      0.57831  0.08129  0.86917     N
N      0.57831  0.13083  0.08129     N
N      0.57831  0.13083  0.91871     N
N      0.57831  0.86917  0.08129     N
N      0.57831  0.86917  0.91871     N
N      0.57831  0.91871  0.13083     N
N      0.57831  0.91871  0.86917     N
N      0.63333  0.09125  0.17458     N
N      0.63333  0.09125  0.82542     N
N      0.63333  0.17458  0.09125     N
N      0.63333  0.17458  0.90875     N
N      0.63333  0.82542  0.09125     N
N      0.63333  0.82542  0.90875     N
N      0.63333  0.90875  0.17458     N
N      0.63333  0.90875  0.82542     N
C      0.66572  0.14881  0.14881     C
C      0.66572  0.14881  0.85119     C
C      0.66572  0.85119  0.14881     C
C      0.66572  0.85119  0.85119     C
C      0.72942  0.18003  0.18003     C
C      0.72942  0.18003  0.81997     C
C      0.72942  0.81997  0.18003     C
C      0.72942  0.81997  0.81997     C
H       0.7393   0.1081   0.2607     H
H       0.7393   0.1081   0.7393     H
H       0.7393   0.2607   0.1081     H
H       0.7393   0.2607   0.8919     H
H       0.7393   0.7393   0.1081     H
H       0.7393   0.7393   0.8919     H
H       0.7393   0.8919   0.2607     H
H       0.7393   0.8919   0.7393     H
C      0.75969  0.14956  0.24031     C
C      0.75969  0.14956  0.75969     C
C      0.75969  0.24031  0.14956     C
C      0.75969  0.24031  0.85044     C
C      0.75969  0.75969  0.14956     C
C      0.75969  0.75969  0.85044     C
C      0.75969  0.85044  0.24031     C
C      0.75969  0.85044  0.75969     C
C      0.81997  0.18003  0.27058     C
C      0.81997  0.18003  0.72942     C
C      0.81997  0.27058  0.18003     C
C      0.81997  0.27058  0.81997     C
C      0.81997  0.72942  0.18003     C
C      0.81997  0.72942  0.81997     C
C      0.81997  0.81997  0.27058     C
C      0.81997  0.81997  0.72942     C
N      0.82542  0.09125  0.36667     N
N      0.82542  0.09125  0.63333     N
N      0.82542  0.36667  0.09125     N
N      0.82542  0.36667  0.90875     N
N      0.82542  0.63333  0.09125     N
N      0.82542  0.63333  0.90875     N
N      0.82542  0.90875  0.36667     N
N      0.82542  0.90875  0.63333     N
C      0.85044  0.24031  0.24031     C
C      0.85044  0.24031  0.75969     C
C      0.85044  0.75969  0.24031     C
C      0.85044  0.75969  0.75969     C
C      0.85119  0.14881  0.33428     C
C      0.85119  0.14881  0.66572     C
C      0.85119  0.33428  0.14881     C
C      0.85119  0.33428  0.85119     C
C      0.85119  0.66572  0.14881     C
C      0.85119  0.66572  0.85119     C
C      0.85119  0.85119  0.33428     C
C      0.85119  0.85119  0.66572     C
Fe     0.85929      0.0      0.5    Fe
Fe     0.85929      0.5      1.0    Fe
N      0.86917  0.08129  0.42169     N
N      0.86917  0.08129  0.57831     N
N      0.86917  0.42169  0.08129     N
N      0.86917  0.42169  0.91871     N
N      0.86917  0.57831  0.08129     N
N      0.86917  0.57831  0.91871     N
N      0.86917  0.91871  0.42169     N
N      0.86917  0.91871  0.57831     N
H       0.8919   0.2607   0.2607     H
H       0.8919   0.2607   0.7393     H
H       0.8919   0.7393   0.2607     H
H       0.8919   0.7393   0.7393     H
N      0.90875  0.17458  0.36667     N
N      0.90875  0.17458  0.63333     N
N      0.90875  0.36667  0.17458     N
N      0.90875  0.36667  0.82542     N
N      0.90875  0.63333  0.17458     N
N      0.90875  0.63333  0.82542     N
N      0.90875  0.82542  0.36667     N
N      0.90875  0.82542  0.63333     N
N      0.91871  0.13083  0.42169     N
N      0.91871  0.13083  0.57831     N
N      0.91871  0.42169  0.13083     N
N      0.91871  0.42169  0.86917     N
N      0.91871  0.57831  0.13083     N
N      0.91871  0.57831  0.86917     N
N      0.91871  0.86917  0.42169     N
N      0.91871  0.86917  0.57831     N
