data_I
_chemical_name_common  '/home/zhangsd/repos/MofS-CGCNN/ML/data/SSD/clean_cifs/MUZGAQ_clean'
_cell_length_a 21.10700
_cell_length_b 21.18500
_cell_length_c 36.32300
_cell_angle_alpha 89.00100
_cell_angle_beta  82.48600
_cell_angle_gamma 68.35900
_space_group_name_H-M_alt      'P 1'


loop_
_space_group_symop_operation_xyz
  'x, y, z' 

loop_
_atom_site_label
_atom_site_fract_x
_atom_site_fract_y
_atom_site_fract_z
_atom_site_type_symbol
Zn         0.0      0.5      0.0    Zn
C       0.0037   0.4764   0.2206     C
C       0.0049   0.1709   0.9134     C
Dy     0.00507  0.25325  0.18013    Dy
O       0.0061    0.177   0.7205     O
C       0.0075   0.1771   0.6007     C
H       0.0105   0.7998   0.1068     H
O        0.012   0.0492   0.2091     O
C        0.012   0.3854   0.8718     C
O       0.0128   0.0443   0.7782     O
C        0.014   0.5354   0.2289     C
O       0.0146   0.0725   0.7032     O
C       0.0159   0.0588   0.0508     C
C       0.0163    0.066   0.6153     C
O       0.0181   0.1374   0.2646     O
C       0.0196   0.8653   0.2884     C
H       0.0224    0.574    0.133     H
H        0.023   0.3672   0.0407     H
H       0.0233   0.9595   0.0478     H
H       0.0234   0.1924   0.9298     H
C       0.0238   0.6199   0.9606     C
O       0.0241   0.9567   0.6397     O
O       0.0249   0.6364   0.7954     O
C       0.0257   0.9874   0.2097     C
H       0.0279   0.3462     0.82     H
H       0.0294    0.208   0.5967     H
N         0.03   0.3776   0.9049     N
H       0.0332    0.838   0.0733     H
H       0.0333   0.1466   0.0425     H
N        0.034   0.4108    0.753     N
H       0.0342   0.6995   0.9309     H
H       0.0385   0.4409   0.2068     H
O       0.0398   0.8327  0.82601     O
C       0.0408    0.337   0.8436     C
C       0.0411   0.1169   0.6152     C
C       0.0445   0.9894   0.0392     C
H       0.0448   0.7928    0.495     H
C       0.0457   0.9182   0.3923     C
C       0.0462   0.9143   0.9209     C
C       0.0492    0.101    0.035     C
C       0.0535   0.9985   0.6313     C
N        0.054   0.5647    0.978     N
O        0.054   0.8642   0.9015     O
N       0.0551    0.806   0.4079     N
C       0.0559    0.529   0.7677     C
H       0.0571   0.5372   0.2214     H
C       0.0579   0.6612   0.9435     C
C       0.0621    0.102   0.8974     C
O       0.0633   0.0641   0.8684     O
O       0.0639   0.9337  0.71537     O
H       0.0661   0.9505    0.391     H
H       0.0682   0.5953   0.3171     H
H       0.0698   0.8325   0.5544     H
C       0.0704   0.5891    0.775     C
C       0.0715    0.142   0.2477     C
O       0.0721   0.7421   0.7656     O
O       0.0756   0.1698    0.217     O
Dy     0.07711  0.85175  0.76456    Dy
H       0.0792    0.321   0.2393     H
C       0.0811   0.3187   0.9104     C
H       0.0815     0.11   0.6252     H
H       0.0825   0.4784   0.9045     H
C       0.0827   0.8504    0.403     C
O       0.0878   0.9461    0.919     O
H       0.0888   0.8512   0.1939     H
C       0.0897   0.2737   0.8507     C
C       0.0902    0.782   0.4991     C
C       0.0921    0.417   0.7419     C
H        0.093   0.0796    0.309     H
H       0.0964   0.3126   0.9336     H
C        0.097   0.8389   0.2864     C
C       0.1002   0.9413   0.1956     C
H        0.102   0.9272   0.3022     H
C       0.1038   0.0755   0.0092     C
C        0.104   0.9677   0.0149     C
C       0.1045   0.8064   0.5362     C
O       0.1074   0.7039   0.8362     O
Zn     0.10766  0.71566  0.42767    Zn
C       0.1078   0.5813   0.2999     C
C       0.1082   0.4736   0.7485     C
O       0.1085   0.1007  0.77045     O
Dy     0.10994  0.18719  0.72946    Dy
C       0.1114   0.2682   0.8846     C
O       0.1121   0.2347   0.7857     O
Dy     0.11215  0.01079  0.73195    Dy
O       0.1126   0.0806    0.914     O
N        0.114    0.621   0.2731     N
O       0.1157   0.9844   0.6354     O
O       0.1161   0.2198   0.6644     O
H       0.1169   0.2738   0.6041     H
N       0.1171   0.2725   0.1898     N
H       0.1172   0.7419   0.2771     H
C        0.118   0.2196   0.8192     C
C       0.1192   0.5479    0.982     C
C       0.1206   0.2972   0.2246     C
C       0.1207   0.8724   0.1908     C
H       0.1213   0.5318   0.8555     H
H       0.1235   0.1042   0.9972     H
O       0.1254    0.594   0.7591     O
H       0.1254   0.9215    0.009     H
H       0.1261   0.3805   0.7284     H
Dy     0.12647  0.87345  0.65913    Dy
C       0.1274   0.6436   0.9459     C
C       0.1277   0.8829   0.2935     C
H       0.1285   0.8383   0.4065     H
C       0.1293   0.4699   0.8998     C
H       0.1302   0.1915   0.5425     H
N       0.1313   0.0073   0.0002     N
C        0.134   0.0819   0.2973     C
O       0.1353    0.902   0.8363     O
C       0.1361   0.1118   0.2651     C
C       0.1382   0.7733   0.2789     C
O       0.1388    0.921  0.77497     O
O        0.139   0.7301   0.9096     O
O       0.1396   0.8428   0.5983     O
Dy     0.13964  0.79225  0.85536    Dy
H       0.1405   0.0148   0.1952     H
H       0.1406   0.5107    0.996     H
N       0.1419   0.7454   0.4725     N
C       0.1449   0.2977   0.6078     C
O       0.1453   0.1601   0.8311     O
H       0.1473   0.2293     0.89     H
C       0.1493   0.9332   0.8073     C
C         0.15   0.2569   0.6715     C
H       0.1502   0.3349   0.5552     H
C       0.1515   0.9687   0.1906     C
H       0.1516   0.4744   0.7405     H
O        0.152   0.8045   0.7105     O
C       0.1521   0.5027     0.87     C
O       0.1548   0.0818  0.69369     O
C       0.1556   0.5853   0.9657     C
H       0.1566   0.4908   0.3235     H
C       0.1587   0.1459   0.5397     C
C       0.1597   0.5178   0.3034     C
N       0.1623   0.1091   0.5085     N
C       0.1649   0.3345   0.5783     C
C        0.166   0.2976   0.6403     C
O       0.1661   0.2605   0.7014     O
Dy     0.16663  0.97045  0.88011    Dy
C       0.1673   0.6042   0.2499     C
N       0.1696   0.4278   0.9216     N
C       0.1703   0.6808    0.927     C
H       0.1715   0.6356   0.2324     H
C        0.173   0.7861   0.5397     C
O       0.1732   0.7756  0.79156     O
O        0.175   0.9784   0.8148     O
H       0.1755   0.2078   0.9733     H
H       0.1761   0.2237   0.1465     H
C       0.1768   0.2396   0.1701     C
H       0.1786   0.3073    0.262     H
C       0.1789   0.2893   0.2388     C
Dy     0.17981  0.66536  0.77749    Dy
H       0.1869   0.0134   0.4905     H
O       0.1878   0.9247   0.6915     O
C       0.1903   0.8072   0.5746     C
C       0.1909   0.0399   0.5096     C
C       0.1909   0.8347   0.1813     C
H       0.1921    0.032   0.3353     H
C       0.1945   0.0541   0.3131     C
H       0.1964   0.5816    0.398     H
C        0.197   0.7457   0.6966     C
N       0.1984   0.6697   0.3915     N
C       0.1985   0.1104   0.2505     C
C       0.1985   0.1137   0.5671     C
O       0.1988   0.5792   0.8208     O
H       0.2021   0.5707   0.9681     H
C       0.2024   0.8578   0.2868     C
H       0.2027   0.1302   0.2277     H
H       0.2038   0.1408   0.5855     H
H       0.2045   0.7876   0.1795     H
C       0.2058   0.3359   0.6454     C
N       0.2066   0.3699   0.5844     N
C       0.2086   0.7496   0.2739     C
C       0.2115   0.7286   0.4734     C
O        0.215   0.6946  0.71639     O
Dy     0.21559   0.0646    0.794    Dy
C       0.2159   0.6071   0.3826     C
C        0.216   0.4966   0.2757     C
H       0.2177    0.338    0.669     H
C       0.2189   0.9268   0.1788     C
H         0.22   0.7487   0.3825     H
C       0.2211   0.7381   0.5097     C
C       0.2213   0.4907   0.8629     C
O       0.2213   0.7415    0.663     O
C       0.2221   0.5392   0.2489     C
C       0.2233   0.1893   0.9698     C
O       0.2244   0.9962  0.74225     O
O       0.2247   0.8225    0.883     O
H       0.2252   0.8872   0.2897     H
O       0.2256   0.1256  0.73864     O
C       0.2287   0.3712   0.6175     C
C       0.2294   0.0056   0.5418     C
O       0.2305   0.6611   0.9294     O
C       0.2308   0.0438   0.5689     C
C       0.2315   0.7036   0.3752     C
H       0.2327   0.1067   0.9398     H
H        0.234   0.7037   0.2687     H
C       0.2364    0.418   0.9152     C
O       0.2386   0.0284  0.85544     O
N       0.2392   0.7914   0.2764     N
C       0.2404   0.2262   0.1809     C
C       0.2411   0.2515   0.2156     C
N       0.2413   0.8613   0.1744     N
C       0.2438   0.9005   0.6698     C
C       0.2447   0.5276    0.831     C
H        0.246   0.7136   0.4532     H
H       0.2473   0.2871    0.735     H
O       0.2479   0.8573  0.64581     O
O        0.249   0.7008   0.8501     O
O       0.2492   0.7792   0.5785     O
H       0.2509   0.9475   0.1736     H
H       0.2512   0.9586    0.542     H
O       0.2521   0.0516   0.6303     O
N       0.2548    0.056   0.2999     N
C       0.2558   0.0816   0.2673     C
N       0.2571   0.2191   0.9826     N
H       0.2574   0.3942   0.6213     H
C       0.2582   0.1278   0.9501     C
H       0.2601    0.527   0.2306     H
H       0.2612   0.5099    0.579     H
O       0.2614   0.5667  0.74143     O
C       0.2626   0.5732   0.3513     C
H       0.2635   0.7107   0.5164     H
C        0.265    0.449   0.8843     C
H       0.2657   0.3905    0.931     H
C        0.266   0.0157   0.6014     C
H       0.2667   0.2466   0.8176     H
H       0.2685   0.5296   0.3435     H
O       0.2708   0.6073   0.6162     O
Dy     0.27193  0.59552  0.67891    Dy
C       0.2735   0.4301   0.2796     C
H        0.274   0.3937   0.4298     H
O       0.2744   0.3965    0.308     O
Dy     0.27459   0.0394  0.69137    Dy
O       0.2763   0.4795   0.6709     O
H       0.2808   0.2015   0.1657     H
C        0.282   0.8307   0.8731     C
O       0.2822   0.8907  0.86385     O
O       0.2853   0.1243   0.8081     O
H       0.2869    0.419   0.1785     H
C       0.2873   0.6731   0.3451     C
H       0.2891   0.3746   0.7351     H
H       0.2903   0.4387   0.1367     H
O       0.2909   0.6454  0.79543     O
H       0.2913   0.3157   0.4238     H
H       0.2913    0.345   0.4631     H
H       0.2922    0.339   0.8386     H
O       0.2929   0.9227   0.6732     O
C       0.2935   0.2765   0.7371     C
C       0.2974   0.6574   0.8272     C
H       0.2976   0.3645   0.1473     H
H       0.2977   0.0802   0.2549     H
C       0.2983   0.6097   0.3333     C
C       0.3015   0.3491   0.4369     C
C       0.3052   0.2392   0.8294     C
C       0.3055   0.4961   0.5663     C
O       0.3062   0.5065   0.8193     O
O       0.3071   0.2691   0.2585     O
C       0.3074   0.2378   0.2303     C
C       0.3079   0.4031   0.1536     C
O       0.3103   0.9577   0.5971     O
H       0.3118   0.4061   0.5485     H
H        0.312   0.4401   0.8797     H
H       0.3141   0.6966   0.3344     H
C       0.3145   0.6015     0.59     C
C       0.3173   0.3303   0.7393     C
O       0.3209   0.4087   0.2524     O
H       0.3217   0.1848   0.6133     H
Dy     0.32229   0.6851  0.90012    Dy
Dy     0.32249  0.74466  0.62108    Dy
C       0.3232   0.2949   0.8407     C
O        0.324   0.0517   0.1425     O
C       0.3243   0.1949   0.9793     C
O       0.3256   0.1197   0.6734     O
O       0.3266   0.0063   0.9098     O
O       0.3292   0.9764  0.79054     O
C       0.3298   0.0966    0.945     C
C        0.331   0.1142   0.8281     C
N       0.3331   0.2127   0.7379     N
C       0.3366   0.4345   0.5474     C
C       0.3367   0.4575   0.6626     C
O       0.3378   0.7806    0.872     O
O       0.3396   0.6468   0.5806     O
C       0.3443   0.5357   0.5653     C
H       0.3459   0.3254   0.0536     H
H       0.3466   0.2196   0.9895     H
C       0.3479   0.5774   0.2996     C
C       0.3486   0.1734   0.8371     C
H       0.3494   0.3602   0.6638     H
O       0.3553    0.651  0.65931     O
O       0.3558   0.6292   0.8408     O
Dy      0.3559  0.95003  0.85166    Dy
O       0.3564   0.0003   0.7321     O
H       0.3573   0.5882   0.4778     H
O       0.3597   0.5164   0.2929     O
O       0.3602   0.1906   0.2133     O
H       0.3641   0.2417   0.5656     H
O       0.3642   0.5976   0.7111     O
H       0.3648   0.0319   0.5265     H
C       0.3648   0.1875    0.613     C
O       0.3653   0.0592   0.8406     O
C       0.3656   0.1294   0.9596     C
O       0.3656   0.8184   0.5853     O
C       0.3663   0.0296   0.9239     C
Dy     0.36884  0.53591  0.76603    Dy
O         0.37   0.1269   0.1218     O
O       0.3707   0.4298     0.75     O
H       0.3724    0.371   0.0761     H
O       0.3734   0.4945   0.6611     O
C       0.3736    0.387   0.6517     C
C       0.3744   0.9742   0.7632     C
O       0.3752   0.6124   0.2789     O
C       0.3761   0.0674   0.1261     C
O       0.3764   0.5754   0.9194     O
C       0.3767   0.3378   0.4272     C
H        0.377   0.3815   0.6253     H
H       0.3787   0.8319   0.2739     H
N       0.3816   0.2864   0.8537     N
Dy      0.3817  0.30609  0.28391    Dy
C       0.3831   0.3159   0.7477     C
C       0.3834   0.5904   0.4555     C
C       0.3849    0.337   0.0565     C
C       0.3858   0.1168   0.6686     C
H       0.3874   0.5016   0.4359     H
O       0.3878   0.7753  0.65812     O
C       0.3879   0.3822   0.1511     C
C       0.3889   0.6302    0.687     C
O        0.389   0.9796  0.65619     O
C       0.3906   0.8558   0.2542     C
C       0.3909   0.2226   0.5842     C
O       0.3923   0.3425   0.3919     O
C       0.3933   0.0213   0.5039     C
N       0.3934   0.8321   0.2208     N
Dy     0.39484  0.87682  0.63078    Dy
C       0.3951   0.1976   0.7463     C
N       0.3982   0.4117   0.5277     N
H       0.3994   0.3544   0.0337     H
N       0.3998    0.644   0.4503     N
H       0.4006   0.9242    0.288     H
N       0.4016   0.9643   0.4868     N
C        0.402   0.5376   0.4304     C
C       0.4033   0.9118   0.2633     C
C       0.4044   0.1653   0.8556     C
C       0.4047   0.1588   0.6396     C
C       0.4074   0.5125    0.546     C
C       0.4112   0.8662   0.1923     C
C       0.4117   0.3682   0.7527     C
H       0.4134   0.1115   0.9574     H
H       0.4135   0.8515    0.168     H
O       0.4141   0.8696  0.89332     O
O        0.415   0.4253   0.1586     O
C       0.4161   0.2269   0.8637     C
H       0.4166    0.107   0.5049     H
O       0.4168   0.3786  0.31858     O
H       0.4189   0.3724   0.6589     H
O       0.4196   0.3201   0.4485     O
C       0.4203   0.9497   0.2351     C
O       0.4208   0.8463  0.81812     O
H       0.4213   0.1521   0.7491     H
C       0.4239   0.0681   0.4909     C
C       0.4249   0.2462   0.7512     C
O       0.4252   0.3222   0.1407     O
C       0.4264    0.925   0.1991     C
O       0.4296   0.0044   0.9225     O
C        0.431   0.4497   0.5274     C
H       0.4327   0.1228   0.8626     H
O       0.4331   0.6034  0.77044     O
O       0.4338   0.0784   0.6854     O
O       0.4344   0.0201   0.1168     O
C       0.4344   0.6441   0.4193     C
C       0.4346   0.5237   0.9088     C
H       0.4351    0.538   0.5452     H
C       0.4364   0.0086   0.2421     C
O       0.4364   0.0498   0.2161     O
O       0.4385   0.6632  0.87913     O
O       0.4385   0.9454  0.76394     O
O       0.4405   0.6903  0.59493     O
H       0.4407    0.947   0.1792     H
C       0.4413   0.5364   0.3974     C
C       0.4414   0.9519   0.4559     C
O       0.4418   0.4874  0.22022     O
O       0.4419   0.6423  0.69121     O
H        0.443   0.4741   0.9587     H
O       0.4446    0.205   0.0719     O
C       0.4452   0.2721   0.0665     C
H       0.4468   0.6815   0.4148     H
O       0.4474    0.487   0.8091     O
N       0.4501    0.229   0.5829     N
H       0.4507   0.9106   0.4437     H
O       0.4508   0.0137   0.2727     O
H       0.4519   0.2224   0.8772     H
O       0.4536   0.2564  0.22333     O
Dy       0.454  0.59495  0.22395    Dy
C       0.4557   0.5949   0.3912     C
O       0.4571   0.8653   0.6829     O
O       0.4572   0.9212   0.5861     O
O       0.4586   0.1874  0.14921     O
Dy     0.45877  0.76196  0.86257    Dy
C       0.4615   0.4795   0.3691     C
O       0.4629   0.3436   0.2478     O
C       0.4642   0.0551   0.4575     C
C       0.4658   0.1665    0.639     C
O       0.4661   0.1618   0.2782     O
O       0.4682   0.4936   0.3347     O
Dy     0.46866  0.96429  0.69841    Dy
H       0.4692    0.791   0.3927     H
H       0.4697   0.2333   0.7566     H
Dy        0.47  0.75894  0.54858    Dy
O       0.4712   0.9389    0.844     O
Dy     0.47138  0.43682  0.27715    Dy
C       0.4721   0.4908   0.9421     C
C       0.4723   0.9953   0.4391     C
O       0.4731   0.5211     0.88     O
O       0.4735    0.352   0.7598     O
O       0.4738   0.4221   0.3801     O
H       0.4746   0.4351   0.5137     H
Dy     0.47596  0.58212  0.82672    Dy
Dy     0.47745   0.1399  0.20716    Dy
O       0.4787   0.6947   0.8079     O
H       0.4792   0.6008   0.3687     H
O       0.4808   0.4799  0.73373     O
C       0.4821   0.3009   0.2205     C
H       0.4827   0.5241    0.955     H
O       0.4835   0.7414   0.9256     O
O       0.4839   0.2441  0.30734     O
H       0.4861   0.5462   0.0667     H
O       0.4886   0.1537    0.462     O
C       0.4887   0.2038   0.6082     C
Dy     0.48875  0.10452  0.09994    Dy
H       0.4931   0.1487   0.6576     H
O       0.4944   0.7849  0.60806     O
H       0.4981    0.984   0.4157     H
C       0.4983    0.901   0.5559     C
C       0.4984   0.1809   0.3006     C
Dy      0.4999  0.30962  0.35575    Dy
Dy      0.5001  0.69038  0.64425    Dy
C       0.5016   0.8191   0.6994     C
C       0.5017    0.099   0.4441     C
H       0.5019    0.016   0.5843     H
O       0.5056   0.2151  0.39194     O
H       0.5069   0.8513   0.3424     H
Dy     0.51125  0.89548  0.90006    Dy
C       0.5113   0.7962   0.3918     C
O       0.5114   0.8463    0.538     O
H       0.5139   0.4538   0.9333     H
O       0.5161   0.7559  0.69266     O
O       0.5165   0.2586   0.0744     O
H       0.5173   0.4759    0.045     H
C       0.5179   0.6991   0.7795     C
O       0.5192   0.5201  0.26627     O
H       0.5208   0.3992   0.6313     H
O       0.5213   0.3053   0.1921     O
Dy     0.52255   0.8601  0.79284    Dy
Dy     0.52404  0.41788  0.17328    Dy
H       0.5254   0.5649   0.4863     H
O       0.5262   0.5779   0.6199     O
O       0.5265    0.648   0.2402     O
O       0.5269   0.4789     0.12     O
C       0.5277   0.0047   0.5609     C
C       0.5279   0.5092   0.0579     C
Dy     0.52862  0.56318  0.72285    Dy
O       0.5288   0.0611    0.156     O
Dy        0.53  0.24106  0.45142    Dy
H       0.5303   0.7667   0.2434     H
H       0.5308    0.209   0.6073     H
Dy     0.53134  0.03571  0.30159    Dy
O       0.5318   0.5064   0.6653     O
O       0.5339   0.8382   0.7218     O
C       0.5342   0.8335    0.361     C
C       0.5358   0.9449   0.5425     C
O       0.5371   0.6564   0.7522     O
C       0.5385   0.5205   0.6309     C
Dy     0.54123  0.23804  0.13743    Dy
O       0.5414   0.8126  0.85079     O
O       0.5428   0.0788   0.4139     O
O       0.5429   0.1347   0.3171     O
C       0.5443   0.4051   0.6088     C
Dy       0.546  0.40505  0.77605    Dy
O       0.5464   0.7436  0.77667     O
H       0.5481   0.7776   0.1228     H
O       0.5492   0.9863   0.7273     O
H       0.5493   0.0894   0.5563     H
N       0.5499    0.771   0.4171     N
O       0.5526    0.513   0.1909     O
H       0.5532   0.3185   0.5852     H
C       0.5548   0.7279   0.9335     C
O       0.5554    0.795   0.9281     O
H        0.557   0.5259   0.0413     H
O       0.5581   0.3577  0.30879     O
O       0.5582   0.5126  0.77978     O
C       0.5586   0.0481   0.5441     C
C       0.5587   0.4636   0.6026     C
H       0.5593    0.053   0.8208     H
O       0.5595   0.3097  0.40507     O
O       0.5615   0.0546  0.23606     O
O       0.5615   0.3368  0.12087     O
O       0.5636   0.9502   0.7839     O
C       0.5636   0.9914   0.7579     C
H       0.5649    0.462   0.4548     H
C       0.5654   0.4763   0.0912     C
C       0.5656   0.3559   0.5807     C
O       0.5656   0.9799   0.8832     O
O       0.5662   0.9216   0.3146     O
O       0.5669   0.3966  0.22956     O
H       0.5673   0.8772   0.1374     H
C        0.569   0.5503   0.4726     C
O       0.5704   0.9956   0.0775     O
C       0.5736    0.075   0.8009     C
O       0.5748   0.6778   0.8593     O
C       0.5751   0.7538   0.2488     C
C       0.5761   0.9319   0.5091     C
H       0.5787   0.8479   0.2509     H
O       0.5792   0.1537  0.18188     O
C       0.5797   0.0503   0.7649     C
O       0.5804   0.6799   0.5515     O
H       0.5811   0.6276   0.3411     H
O       0.5832   0.6214  0.68142     O
H       0.5834    0.893   0.4951     H
C       0.5839   0.7731   0.1363     C
O        0.585   0.5747   0.8414     O
O       0.5859   0.1304  0.10668     O
H       0.5865   0.1485    0.832     H
H       0.5866   0.8885   0.0426     H
C       0.5883   0.6318   0.2473     C
C       0.5888   0.1338   0.8077     C
C       0.5926   0.4875    0.454     C
C       0.5953   0.8412   0.3604     C
C       0.5956   0.8347   0.1444     C
C       0.5967   0.0882   0.7367     C
C        0.598   0.4624   0.5696     C
N       0.5984   0.0357   0.5132     N
H       0.5994   0.0758    0.712     H
N       0.6002    0.356   0.5497     N
H       0.6006   0.6456   0.9663     H
N       0.6018   0.5883   0.4723     N
C       0.6049   0.8024   0.2537     C
Dy     0.60516  0.12318  0.36922    Dy
N       0.6066   0.1679   0.7792     N
C       0.6067   0.9787   0.4961     C
O       0.6077   0.6575   0.6081     O
C       0.6091   0.7774   0.4158     C
C       0.6094   0.1442   0.7458     C
O        0.611   0.0204  0.34381     O
C       0.6111   0.3698    0.313     C
C       0.6121   0.6178   0.8489     C
O       0.6122   0.2247  0.34188     O
H       0.6126   0.4984   0.5641     H
C       0.6142   0.8832   0.3314     C
C       0.6151    0.663   0.9435     C
C       0.6166   0.4096   0.5445     C
C       0.6169   0.6841   0.2523     C
Dy      0.6183  0.69391  0.71609    Dy
N       0.6184   0.7136   0.1463     N
H       0.6213   0.1681   0.7261     H
H        0.623   0.6185   0.3747     H
C       0.6233   0.6622   0.5728     C
O       0.6236   0.4246   0.0806     O
C       0.6239   0.9326   0.8739     C
O       0.6248   0.3876   0.7211     O
C       0.6256   0.0258   0.2368     C
C       0.6264    0.613   0.3483     C
O       0.6266   0.5055   0.3389     O
H       0.6276    0.629   0.9239     H
O       0.6293   0.5702     0.25     O
O         0.63   0.8731   0.8782     O
Dy     0.63116  0.46409  0.23397    Dy
C       0.6337   0.9704   0.0761     C
O       0.6344   0.1816   0.4147     O
C       0.6344   0.8706   0.0404     C
O       0.6347   0.9408   0.1594     O
C       0.6352   0.8125    0.387     C
H       0.6352   0.9681   0.4735     H
O       0.6358   0.4024   0.2889     O
H       0.6359   0.7583   0.4344     H
O       0.6398   0.8094   0.7867     O
O       0.6403   0.4836   0.7071     O
H       0.6427   0.4118   0.5222     H
O       0.6436   0.9997   0.2679     O
Dy      0.6441  0.04997  0.14834    Dy
O       0.6442   0.3708   0.1592     O
O       0.6447    0.349  0.34069     O
H       0.6506   0.6398   0.3362     H
C       0.6514   0.8266   0.1629     C
C       0.6521   0.4226   0.7004     C
H       0.6534   0.7804   0.0105     H
H       0.6541   0.6746   0.9464     H
C       0.6557   0.4643   0.4347     C
O       0.6604   0.3532   0.4194     O
O       0.6622   0.2194    0.128     O
C       0.6633   0.5425   0.3374     C
C       0.6634   0.5655   0.4526     C
N       0.6669   0.7873   0.2621     N
C        0.669   0.8858   0.1719     C
C       0.6702   0.9034    0.055     C
O       0.6708   0.0236  0.20946     O
O       0.6734   0.9937   0.0902     O
O       0.6744   0.8803   0.3266     O
C       0.6757   0.8051   0.0207     C
O        0.676   0.9483   0.8575     O
C       0.6768   0.7051   0.1593     C
Dy     0.67751  0.25534  0.37892    Dy
Dy     0.67771   0.3149  0.09988    Dy
H       0.6783   0.8152   0.3867     H
O       0.6791   0.5913   0.7476     O
C       0.6827   0.6697   0.2607     C
C       0.6855   0.3985     0.41     C
H       0.6859   0.3034   0.6656     H
H        0.688   0.5599   0.1203     H
H       0.6882   0.5939   0.4515     H
O       0.6897   0.0423   0.4029     O
C       0.6921   0.5969   0.8464     C
C       0.6926   0.7622   0.7697     C
O       0.6929   0.7309   0.7415     O
O       0.6938   0.4935   0.1807     O
C       0.6945   0.5039   0.4337     C
C       0.6948   0.7608   0.1706     C
C       0.6985   0.6509   0.5631     C
C       0.7017   0.3903   0.6667     C
H       0.7023   0.9198   0.7451     H
H       0.7024   0.6355   0.8527     H
C       0.7026   0.3426   0.1728     C
C       0.7065   0.7235   0.2629     C
O       0.7071   0.0773   0.3268     O
H       0.7078    0.661   0.1614     H
H       0.7087    0.655   0.5369     H
H       0.7087   0.6843   0.5762     H
O       0.7091   0.3546  0.20457     O
H       0.7097   0.5613   0.8633     H
H       0.7109   0.6254   0.2649     H
C       0.7127   0.3269   0.6549     C
H       0.7131    0.581   0.8215     H
O       0.7147   0.8757   0.1919     O
O       0.7178   0.1093  0.13615     O
C        0.718   0.1693   0.1269     C
H       0.7192   0.7985   0.8343     H
O       0.7237   0.5205   0.3291     O
Dy     0.72541   0.9606  0.30863    Dy
O       0.7256   0.6035    0.692     O
H        0.726   0.6063   0.5702     H
C       0.7265   0.5699   0.7204     C
Dy     0.72807  0.40448  0.32109    Dy
O       0.7292   0.3927   0.3838     O
H       0.7315   0.4704   0.6565     H
H       0.7333   0.7534   0.1824     H
C        0.734   0.9843   0.3986     C
H       0.7343   0.6095    0.069     H
C        0.735    0.551   0.1157     C
H       0.7365   0.2893   0.4836     H
C       0.7374   0.4268   0.6487     C
O       0.7386   0.4333  0.25857     O
H       0.7388   0.4901    0.421     H
H       0.7399    0.473   0.7694     H
C       0.7418   0.8722   0.0499     C
H       0.7426   0.6058   0.3787     H
N       0.7429   0.7809   0.0174     N
C       0.7442   0.9184   0.7327     C
N       0.7452    0.944   0.7001     N
O       0.7479   0.9484   0.3697     O
H       0.7488   0.0414    0.458     H
H       0.7491   0.0525   0.8264     H
O       0.7508   0.2208   0.4215     O
O        0.751   0.2992   0.1499     O
O       0.7521   0.1427  0.35419     O
H       0.7527   0.7129    0.265     H
H        0.754   0.2864   0.5468     H
C       0.7553   0.4724    0.169     C
C       0.7562   0.0995   0.3302     C
N       0.7587   0.1387   0.8256     N
C       0.7589   0.7485   0.7844     C
C       0.7596   0.7738   0.8191     C
N       0.7608   0.2086   0.7236     N
O       0.7614   0.9716  0.14456     O
C       0.7636    0.582   0.0848     C
H        0.766   0.2963   0.7313     H
H       0.7673   0.8933   0.0602     H
C       0.7685   0.2964   0.6248     C
C       0.7692   0.9562   0.4311     C
O       0.7695   0.3389   0.0706     O
C       0.7706   0.9944   0.4582     C
C       0.7713   0.6288   0.3825     C
O       0.7744   0.8744  0.26136     O
H       0.7748   0.1128   0.7103     H
O       0.7753   0.1775    0.117     O
O       0.7756   0.0038  0.25775     O
C       0.7767   0.8107   0.0302     C
C       0.7779   0.4608   0.7511     C
O       0.7787   0.2585    0.337     O
C       0.7787   0.5093   0.1371     C
C       0.7789   0.2619   0.4903     C
H         0.78   0.2513   0.6175     H
C       0.7811   0.0732   0.8212     C
H       0.7823    0.662    0.331     H
C        0.784   0.5034   0.7243     C
C       0.7841   0.3929   0.6174     C
Dy     0.78441   0.9354    0.206    Dy
O        0.785   0.3054  0.28361     O
C       0.7885   0.2714   0.5266     C
C       0.7914   0.2504   0.7261     C
N       0.7934   0.6301   0.4156     N
C       0.7942   0.6641   0.3546     C
H       0.7955   0.2124   0.8205     H
H       0.7962   0.8592   0.4145     H
H       0.7973   0.8698   0.7723     H
C       0.7976   0.1422   0.7132     C
H       0.7979   0.4293   0.0319     H
O       0.8012   0.4208   0.1792     O
C       0.8015   0.8863   0.4329     C
C       0.8015   0.8896   0.7495     C
N       0.8016   0.3303   0.6085     N
C        0.803   0.2543   0.3034     C
H       0.8036   0.4184    0.602     H
C       0.8055   0.9459   0.6869     C
H       0.8079    0.968   0.6647     H
C       0.8091   0.1653   0.8187     C
C       0.8091   0.9601   0.4904     C
C       0.8097   0.1928   0.4254     C
O       0.8122   0.0753   0.3085     O
H       0.8131   0.9866   0.5095     H
Dy     0.82019  0.33464  0.22251    Dy
C       0.8211   0.7107   0.7612     C
H       0.8214   0.6927    0.738     H
C       0.8232   0.7604   0.8299     C
H       0.8239   0.7763   0.8535     H
H       0.8245   0.7922   0.0267     H
O        0.825   0.0216   0.1852     O
O       0.8268   0.2244  0.20844     O
C        0.827   0.2139   0.4603     C
H       0.8285   0.3644   0.7676     H
C       0.8297   0.3192    0.073     C
N       0.8304   0.5722   0.0784     N
C       0.8327   0.3958   0.7501     C
Dy     0.83337  0.02955  0.11989    Dy
O       0.8339   0.7395   0.2986     O
C        0.834   0.7024   0.3597     C
C       0.8351   0.6655   0.4217     C
N       0.8377   0.8909   0.4915     N
C       0.8403   0.4822   0.6966     C
C       0.8413   0.8541   0.4603     C
H       0.8434   0.5092   0.6765     H
C       0.8444   0.4147   0.0343     C
O       0.8452   0.9182  0.30631     O
C       0.8479   0.4973     0.13     C
O        0.848   0.1955   0.2895     O
H       0.8484   0.5256   0.2595     H
C       0.8485   0.0313   0.8094     C
H       0.8498   0.6651   0.4448     H
C         0.85   0.7431   0.3285     C
C       0.8507   0.0668   0.1927     C
H       0.8527   0.7707     0.11     H
O       0.8547   0.8399   0.1689     O
C       0.8551   0.7023   0.3922     C
N       0.8581   0.2546   0.5275     N
H       0.8594   0.4893    0.004     H
H       0.8595   0.9852   0.8048     H
Dy     0.86036  0.20775  0.14464    Dy
O       0.8604   0.1572   0.4017     O
O        0.861   0.2699   0.0904     O
O       0.8612    0.079  0.22503     O
C       0.8618   0.2267   0.7211     C
C       0.8639   0.8882   0.7349     C
O       0.8647    0.098   0.1637     O
C        0.866   0.9181   0.7027     C
N       0.8687   0.9927   0.9998     N
H       0.8698   0.8085   0.4575     H
C       0.8707   0.5301   0.1002     C
H       0.8715   0.1617   0.5935     H
C       0.8723   0.1171   0.7065     C
C       0.8726   0.3564   0.0541     C
Dy     0.87353  0.12655  0.34087    Dy
H       0.8739   0.6195   0.2716     H
H       0.8746   0.0785    0.991     H
O       0.8746    0.406   0.2409     O
H       0.8765   0.8958   0.0028     H
H       0.8787   0.4682   0.1445     H
C       0.8793   0.1276   0.8092     C
C       0.8794   0.7028   0.7754     C
C       0.8808   0.4521    0.018     C
C        0.882   0.7804   0.1808     C
H       0.8828   0.2581   0.7229     H
N       0.8829   0.7275   0.8102     N
H       0.8831   0.7262   0.3959     H
O       0.8839   0.7802   0.3356     O
O       0.8843   0.0156   0.3646     O
N        0.886    0.379   0.7269     N
O       0.8874   0.9194    0.086     O
Dy     0.88785  0.98921  0.26805    Dy
O       0.8879   0.7653   0.2143     O
C       0.8886   0.7318   0.1154     C
Dy     0.89006  0.81281  0.27054    Dy
O       0.8915   0.8993  0.22955     O
C       0.8918   0.5264   0.2515     C
C       0.8922   0.4187   0.7001     C
Zn     0.89234  0.28434  0.57233    Zn
O       0.8926   0.2961   0.1638     O
C       0.8955   0.1936   0.4638     C
C        0.896   0.0323   0.9851     C
C       0.8962   0.9245   0.9908     C
H        0.898   0.0728   0.6978     H
C       0.8998   0.0587   0.8044     C
C        0.903   0.1611   0.7136     C
H       0.9036   0.6874   0.0664     H
H        0.907   0.9204    0.691     H
C       0.9079    0.583   0.2581     C
C       0.9098    0.218   0.5009     C
C       0.9103   0.7263   0.1493     C
H       0.9112   0.1488   0.8061     H
O       0.9122   0.0539    0.081     O
C       0.9173   0.1496    0.597     C
H       0.9175   0.5216   0.0955     H
H       0.9185     0.89   0.3748     H
C       0.9189   0.6813   0.0896     C
H       0.9208    0.679   0.7607     H
Dy     0.92289  0.14825  0.23544    Dy
O       0.9244   0.8302    0.783     O
O       0.9279   0.2579   0.2344     O
C       0.9285    0.858   0.7523     C
C       0.9296   0.4109    0.225     C
H       0.9302   0.1675   0.4456     H
H       0.9318   0.4047   0.6829     H
H       0.9339   0.0495    0.609     H
O       0.9361   0.0663  0.28463     O
O       0.9367   0.9359   0.1316     O
C       0.9379    0.898   0.1026     C
C       0.9421   0.3388   0.0565     C
H       0.9429   0.4628   0.7786     H
C       0.9441    0.471   0.2323     C
N       0.9449    0.194   0.5921     N
O        0.946   0.1358   0.0985     O
N        0.946   0.4353    0.022     N
C       0.9465   0.0015   0.3687     C
C       0.9508    0.899    0.965     C
C       0.9538   0.0857   0.0791     C
C       0.9543   0.0818   0.6077     C
H       0.9552   0.2072    0.505     H
C       0.9555   0.0106   0.9608     C
C       0.9589   0.8831   0.3848     C
C       0.9592    0.663   0.1564     C
O       0.9602   0.1673  0.17399     O
H       0.9615   0.5591   0.7932     H
H       0.9658   0.3005   0.0691     H
N        0.966   0.5892    0.247     N
H       0.9667   0.8534   0.9575     H
H       0.9668    0.162   0.9267     H
N         0.97   0.6224   0.0951     N
H       0.9706    0.792   0.4033     H
H       0.9721   0.6538     0.18     H
C       0.9743   0.0126   0.7903     C
O       0.9751   0.3636   0.2046     O
O       0.9759   0.0433   0.3603     O
C       0.9762   0.3801   0.0394     C
H       0.9766   0.8076   0.0702     H
H       0.9767   0.0405   0.9522     H
H        0.977   0.6328   0.9593     H
H       0.9776    0.426    0.867     H
C       0.9804   0.1347   0.7116     C
O       0.9819   0.8626   0.7354     O
C       0.9837    0.934   0.3847     C
C       0.9841   0.9412   0.9492     C
O       0.9854   0.9275   0.2968     O
C        0.986   0.4646   0.7711     C
O       0.9872   0.9557   0.2218     O
C        0.988   0.6146   0.1282     C
O        0.988   0.9508   0.7909     O
H       0.9895   0.2002   0.8932     H
C       0.9925   0.8229   0.3993     C
O       0.9939    0.823   0.2795     O
Dy     0.99493  0.74675  0.81987    Dy
C       0.9951   0.8291   0.0866     C
C       0.9963   0.5236   0.7794     C
