data_I
_chemical_name_common  '/home/zhangsd/repos/MofS-CGCNN/ML/data/SSD/clean_cifs/NABNUA_clean'
_cell_length_a  9.89760
_cell_length_b 14.58220
_cell_length_c 26.57320
_cell_angle_alpha 90.00000
_cell_angle_beta  91.93000
_cell_angle_gamma 90.00000
_space_group_name_H-M_alt      'P 1'


loop_
_space_group_symop_operation_xyz
  'x, y, z' 

loop_
_atom_site_label
_atom_site_fract_x
_atom_site_fract_y
_atom_site_fract_z
_atom_site_type_symbol
H       0.0014   0.8842    0.112     H
C       0.0054   0.1104    0.766     C
H       0.0237   0.1237   0.2587     H
H       0.0241   0.1205   0.9943     H
H       0.0266   0.1368   0.3455     H
C       0.0279   0.7854   0.5511     C
H       0.0288   0.9463   0.4316     H
O       0.0305   0.8697   0.5592     O
C       0.0306   0.7185   0.0472     C
O       0.0334   0.6319   0.0538     O
H       0.0334   0.7957   0.4063     H
C       0.0341    0.881   0.1459     C
C       0.0557   0.1078   0.8177     C
H       0.0581    0.306    0.084     H
H       0.0587   0.1001   0.6919     H
H       0.0686   0.6172    0.514     H
H       0.0699   0.5956   0.2334     H
H       0.0766   0.6144   0.1474     H
H       0.0779   0.4585   0.0568     H
O       0.0845   0.2583   0.4509     O
H       0.0931   0.6812   0.8035     H
C       0.1033   0.2355   0.9622     C
C        0.106   0.1493   0.9853     C
C       0.1074   0.1203   0.2772     C
C       0.1076   0.0968    0.725     C
C       0.1096   0.1291   0.3291     C
C       0.1143   0.9176   0.4285     C
C       0.1155    0.828   0.4128     C
C        0.129   0.8749   0.2423     C
H       0.1318   0.5759   0.7968     H
O       0.1391   0.7645   0.0479     O
O       0.1406    0.998   0.0536     O
H       0.1422   0.0727   0.1828     H
C       0.1445   0.3335   0.0813     C
H       0.1455   0.0342   0.7284     H
H        0.149   0.0984   0.8256     H
C       0.1522   0.6482   0.5192     C
C       0.1545   0.6045   0.2182     C
C       0.1551   0.7357   0.5412     C
C        0.158   0.4251    0.065     C
C       0.1591   0.6153   0.1667     C
O        0.161   0.4684   0.4787     O
H       0.1648   0.6547   0.3945     H
H       0.1657   0.8729   0.2758     H
H       0.1659    0.721   0.3134     H
C       0.1671   0.6361   0.8083     C
N       0.1687   0.8651   0.1543     N
H       0.1734   0.1578   0.1013     H
H       0.1737   0.2347   0.1821     H
H        0.185    0.491   0.8722     H
H       0.1862   0.2232   0.7136     H
H       0.1941   0.3519   0.2909     H
H       0.1972   0.5578   0.3141     H
C       0.2015   0.6294   0.8637     C
C       0.2029    0.547   0.8894     C
Cd     0.20516  0.36894  0.41556    Cd
C       0.2124   0.8626   0.2022     C
H       0.2181   0.3379   0.9359     H
H       0.2191   0.2579   0.5407     H
C       0.2212   0.2783   0.9503     C
C       0.2215   0.1627   0.7246     C
Cd     0.22199  0.12533  0.44561    Cd
N       0.2242   0.9673   0.4396     N
N       0.2257    0.127   0.3571     N
C       0.2273   0.1064   0.2517     C
C       0.2275   0.1066    0.995     C
C       0.2287   0.0991   0.1957     C
H       0.2288   0.4911   0.9584     H
C       0.2309   0.5479   0.9409     C
C       0.2313   0.7061   0.8902     C
H       0.2323   0.7636   0.8734     H
C       0.2345   0.0179   0.0249     C
C       0.2393   0.7856   0.4067     C
C       0.2396   0.2027   0.5584     C
N       0.2399   0.1224    0.533     N
H       0.2414   0.6697   0.7405     H
C       0.2455   0.6899   0.3848     C
C       0.2489   0.1941   0.1727     C
C       0.2511   0.6941   0.3273     C
C       0.2545   0.1899   0.1152     C
H       0.2586   0.1697   0.7595     H
N       0.2601   0.6224    0.967     N
C       0.2604   0.7027   0.9416     C
C       0.2607   0.2856   0.0933     C
C       0.2655   0.5179   0.4751     C
H       0.2677   0.2636   0.6266     H
C       0.2687   0.2061   0.6098     C
C       0.2691   0.0479   0.5591     C
H       0.2712   0.9911   0.5416     H
C       0.2713   0.5991   0.3043     C
C       0.2725   0.6066    0.505     C
C       0.2727   0.6064   0.2483     C
N       0.2743    0.627   0.1429     N
N       0.2758   0.4673   0.0604     N
Cd     0.27801  0.62533  0.05439    Cd
C       0.2785   0.6627   0.7754     C
C       0.2788   0.7783   0.5497     C
H       0.2809   0.7579   0.9593     H
H       0.2819   0.8379   0.5641     H
C       0.2876   0.3626   0.2978     C
Cd     0.29484  0.86894  0.08444    Cd
C       0.2971    0.047   0.6106     C
C       0.2985   0.1294   0.6363     C
H       0.3028   0.0578   0.1859     H
H       0.3059   0.8519   0.2091     H
H       0.3138   0.7232   0.7864     H
H        0.315    0.991   0.6278     H
H       0.3263   0.7347   0.3179     H
H       0.3266   0.6578   0.3987     H
N       0.3313   0.3651   0.3457     N
C       0.3329   0.1361   0.6917     C
H       0.3341    0.221   0.1866     H
H       0.3343   0.3729   0.2242     H
H       0.3352   0.1547   0.1055     H
O        0.339   0.9684   0.0213     O
C       0.3409   0.1153   0.3333     C
C        0.342   0.9251    0.435     C
C       0.3449   0.2357   0.9588     C
C       0.3455   0.1045   0.2818     C
C       0.3478   0.1482   0.9808     C
H        0.351   0.5984   0.6744     H
H       0.3545   0.5342   0.7716     H
C       0.3555   0.8335   0.4187     C
H       0.3578   0.5727   0.3172     H
O       0.3594    0.498   0.4464     O
O       0.3609   0.2645   0.4521     O
H       0.3682   0.0759   0.7032     H
C        0.371   0.3749   0.2577     C
C       0.3845    0.328   0.0872     C
C       0.3857   0.4176   0.0715     C
C       0.3904   0.6291   0.1709     C
C       0.3924   0.5968    0.775     C
C       0.3926   0.6203   0.2228     C
C        0.394   0.6493   0.5147     C
C       0.3967   0.7355   0.5378     C
H       0.4069   0.1812   0.6965     H
O       0.4155   0.7583   0.0491     O
H       0.4221   0.9585   0.4432     H
H       0.4234   0.1144   0.3526     H
H       0.4301   0.0956   0.2666     H
H       0.4314   0.1172    0.986     H
H       0.4413   0.6001   0.8081     H
H       0.4419    0.806    0.416     H
C       0.4443   0.6078   0.6823     C
C       0.4659    0.381   0.3541     C
O       0.4666   0.1319   0.4462     O
H       0.4666   0.2957   0.0937     H
C       0.4694   0.2185   0.4528     C
O       0.4695   0.3697   0.9408     O
H       0.4712   0.4463   0.0684     H
C       0.4721   0.2854   0.9489     C
H       0.4734   0.6368   0.1545     H
H       0.4759   0.6205   0.5057     H
H       0.4763   0.6237   0.2413     H
C       0.4946   0.6104    0.734     C
H       0.4986   0.3842    0.388     H
H       0.5014   0.6158    0.612     H
C       0.5054   0.3896    0.266     C
H       0.5237   0.3763   0.7587     H
H       0.5241   0.3795   0.4943     H
H       0.5266   0.3632   0.8455     H
C       0.5279   0.7146   0.0511     C
H       0.5288   0.5537   0.9316     H
O       0.5305   0.6303   0.0592     O
C       0.5306   0.7815   0.5472     C
H       0.5334   0.7043   0.9063     H
O       0.5334   0.8681   0.5538     O
C       0.5341    0.619   0.6459     C
C       0.5557   0.3922   0.3177     C
H       0.5581    0.194    0.584     H
H       0.5587   0.3999   0.1919     H
H       0.5686   0.8828    0.014     H
H       0.5699   0.9044   0.7334     H
H       0.5766   0.8856   0.6474     H
H       0.5779   0.0415   0.5568     H
O       0.5845   0.2417   0.9509     O
H       0.5931   0.8188   0.3035     H
C       0.6033   0.2645   0.4622     C
C        0.606   0.3507   0.4853     C
C       0.6074   0.3797   0.7772     C
C       0.6076   0.4032    0.225     C
C       0.6096   0.3709   0.8291     C
C       0.6143   0.5824   0.9285     C
C       0.6155    0.672   0.9128     C
C        0.629   0.6251   0.7423     C
H       0.6318   0.9241   0.2968     H
O       0.6391   0.7355   0.5479     O
O       0.6406    0.502   0.5536     O
H       0.6422   0.4273   0.6828     H
C       0.6445   0.1665   0.5813     C
H       0.6455   0.4658   0.2284     H
H        0.649   0.4016   0.3256     H
C       0.6522   0.8518   0.0192     C
C       0.6545   0.8955   0.7182     C
C       0.6551   0.7643   0.0412     C
C        0.658   0.0749    0.565     C
C       0.6591   0.8847   0.6667     C
O        0.661   0.0316   0.9787     O
H       0.6648   0.8453   0.8945     H
H       0.6657   0.6271   0.7758     H
H       0.6659    0.779   0.8134     H
C       0.6671   0.8639   0.3083     C
N       0.6687   0.6349   0.6543     N
H       0.6734   0.3422   0.6013     H
H       0.6737   0.2653   0.6821     H
H        0.685    0.009   0.3722     H
H       0.6862   0.2768   0.2136     H
H       0.6941   0.1481   0.7909     H
H       0.6972   0.9422   0.8141     H
C       0.7015   0.8706   0.3637     C
C       0.7029    0.953   0.3894     C
Cd     0.70516  0.13106  0.91556    Cd
C       0.7124   0.6374   0.7022     C
H       0.7181   0.1621   0.4359     H
H       0.7191   0.2421   0.0407     H
C       0.7212   0.2217   0.4503     C
C       0.7215   0.3373   0.2246     C
Cd     0.72199  0.37467  0.94561    Cd
N       0.7242   0.5327   0.9396     N
N       0.7257    0.373   0.8571     N
C       0.7273   0.3936   0.7517     C
C       0.7275   0.3934    0.495     C
C       0.7287   0.4009   0.6957     C
H       0.7288   0.0089   0.4584     H
C       0.7309   0.9521   0.4409     C
C       0.7313   0.7939   0.3902     C
H       0.7323   0.7364   0.3734     H
C       0.7345   0.4821   0.5249     C
C       0.7393   0.7144   0.9067     C
C       0.7396   0.2973   0.0584     C
N       0.7399   0.3776    0.033     N
H       0.7414   0.8303   0.2405     H
C       0.7455   0.8101   0.8848     C
C       0.7489   0.3059   0.6727     C
C       0.7511   0.8059   0.8273     C
C       0.7545   0.3101   0.6152     C
H       0.7586   0.3303   0.2595     H
N       0.7601   0.8776    0.467     N
C       0.7604   0.7973   0.4416     C
C       0.7607   0.2144   0.5933     C
C       0.7655   0.9821   0.9751     C
H       0.7677   0.2364   0.1266     H
C       0.7687   0.2939   0.1098     C
C       0.7691   0.4521   0.0591     C
H       0.7712   0.5089   0.0416     H
C       0.7713   0.9009   0.8043     C
C       0.7725   0.8934    0.005     C
C       0.7727   0.8936   0.7483     C
N       0.7743    0.873   0.6429     N
N       0.7758   0.0327   0.5604     N
Cd     0.77801  0.87467  0.55439    Cd
C       0.7785   0.8373   0.2754     C
C       0.7788   0.7217   0.0497     C
H       0.7809   0.7421   0.4593     H
H       0.7819   0.6621   0.0641     H
C       0.7876   0.1374   0.7978     C
Cd     0.79484  0.63106  0.58444    Cd
C       0.7971    0.453   0.1106     C
C       0.7985   0.3706   0.1363     C
H       0.8028   0.4422   0.6859     H
H       0.8059   0.6481   0.7091     H
H       0.8138   0.7768   0.2864     H
H        0.815    0.509   0.1278     H
H       0.8263   0.7653   0.8179     H
H       0.8266   0.8422   0.8987     H
N       0.8313   0.1349   0.8457     N
C       0.8329   0.3639   0.1917     C
H       0.8341    0.279   0.6866     H
H       0.8343   0.1271   0.7242     H
H       0.8352   0.3453   0.6055     H
O        0.839   0.5316   0.5213     O
C       0.8409   0.3847   0.8333     C
C        0.842   0.5749    0.935     C
C       0.8449   0.2643   0.4588     C
C       0.8455   0.3955   0.7818     C
C       0.8478   0.3518   0.4808     C
H        0.851   0.9016   0.1744     H
H       0.8545   0.9658   0.2716     H
C       0.8555   0.6665   0.9187     C
H       0.8578   0.9273   0.8172     H
O       0.8594    0.002   0.9464     O
O       0.8609   0.2355   0.9521     O
H       0.8682   0.4241   0.2032     H
C        0.871   0.1251   0.7577     C
C       0.8845    0.172   0.5872     C
C       0.8857   0.0824   0.5715     C
C       0.8904   0.8709   0.6709     C
C       0.8924   0.9032    0.275     C
C       0.8926   0.8797   0.7228     C
C        0.894   0.8507   0.0147     C
C       0.8967   0.7645   0.0378     C
H       0.9069   0.3188   0.1965     H
O       0.9155   0.7417   0.5491     O
H       0.9221   0.5415   0.9432     H
H       0.9234   0.3856   0.8526     H
H       0.9301   0.4044   0.7666     H
H       0.9314   0.3828    0.486     H
H       0.9413   0.8999   0.3081     H
H       0.9419    0.694    0.916     H
C       0.9443   0.8922   0.1823     C
C       0.9659    0.119   0.8541     C
H       0.9666   0.2043   0.5937     H
O       0.9666   0.3681   0.9462     O
C       0.9694   0.2815   0.9528     C
O       0.9695   0.1303   0.4408     O
H       0.9712   0.0537   0.5684     H
C       0.9721   0.2146   0.4489     C
H       0.9734   0.8632   0.6545     H
H       0.9759   0.8795   0.0057     H
H       0.9763   0.8763   0.7413     H
C       0.9946   0.8896    0.234     C
H       0.9986   0.1158    0.888     H
