data_I
_chemical_name_common  '/home/zhangsd/repos/MofS-CGCNN/ML/data/SSD/clean_cifs/NARPOO_clean'
_cell_length_a 10.21200
_cell_length_b 21.28800
_cell_length_c  7.90500
_cell_angle_alpha 90.00000
_cell_angle_beta  98.85100
_cell_angle_gamma 90.00000
_space_group_name_H-M_alt      'P 1'


loop_
_space_group_symop_operation_xyz
  'x, y, z' 

loop_
_atom_site_label
_atom_site_fract_x
_atom_site_fract_y
_atom_site_fract_z
_atom_site_type_symbol
C       0.0003   0.0602   0.5667     C
C       0.0003   0.4398   0.0667     C
C       0.0007   0.1272   0.6364     C
C       0.0007   0.3728   0.1364     C
O       0.0102   0.6328   0.7089     O
O       0.0102   0.8672   0.2089     O
Pr     0.01055  0.21505  0.00493    Pr
Pr     0.01055  0.28495  0.50493    Pr
O       0.0145   0.1698   0.5307     O
O       0.0145   0.3302   0.0307     O
C       0.1169   0.5299   0.9916     C
C       0.1169   0.9701   0.4916     C
C       0.1175   0.0296   0.5578     C
C       0.1175   0.4704   0.0578     C
O       0.1291   0.7405   0.2515     O
O       0.1291   0.7595   0.7515     O
O       0.1522    0.242   0.2829     O
O       0.1522    0.258   0.7829     O
O       0.2245   0.6838   0.4662     O
O       0.2245   0.8162   0.9662     O
F       0.2302    0.059   0.6123     F
F       0.2302    0.441   0.1123     F
F       0.2307   0.5592   0.9845     F
F       0.2307   0.9408   0.4845     F
C       0.2309   0.7167   0.3383     C
C       0.2309   0.7833   0.8383     C
O       0.2464   0.1899   0.9703     O
O       0.2464   0.3101   0.4703     O
C       0.2529    0.228    0.857     C
C       0.2529    0.272    0.357     C
F        0.334   0.6612   0.8225     F
F        0.334   0.8388   0.3225     F
F       0.3563   0.1478   0.3378     F
F       0.3563   0.3522   0.8378     F
C       0.3637   0.7301   0.2884     C
C       0.3637   0.7699   0.7884     C
C       0.3874   0.2434    0.806     C
C       0.3874   0.2566    0.306     C
C       0.4089    0.708   0.7784     C
C       0.4089    0.792   0.2784     C
F       0.4106   0.6227   0.2584     F
F       0.4106   0.8773   0.7584     F
C        0.431   0.1963   0.2948     C
C        0.431   0.3037   0.7948     C
F       0.4319   0.1356   0.7725     F
F       0.4319   0.3644   0.2725     F
C        0.448   0.6829   0.2497     C
C        0.448   0.8171   0.7497     C
C       0.4706   0.1964   0.7676     C
C       0.4706   0.3036   0.2676     C
C       0.5294   0.6964   0.7324     C
C       0.5294   0.8036   0.2324     C
C        0.552   0.1829   0.2503     C
C        0.552   0.3171   0.7503     C
F       0.5681   0.6356   0.7275     F
F       0.5681   0.8644   0.2275     F
C        0.569   0.6963   0.2052     C
C        0.569   0.8037   0.7052     C
F       0.5894   0.1227   0.2416     F
F       0.5894   0.3773   0.7416     F
C       0.5911    0.208   0.7216     C
C       0.5911    0.292   0.2216     C
C       0.6126   0.7434    0.694     C
C       0.6126   0.7566    0.194     C
C       0.6363   0.2301   0.2116     C
C       0.6363   0.2699   0.7116     C
F       0.6437   0.6478   0.1622     F
F       0.6437   0.8522   0.6622     F
F        0.666   0.1612   0.6775     F
F        0.666   0.3388   0.1775     F
C       0.7471    0.728    0.643     C
C       0.7471    0.772    0.143     C
O       0.7536   0.6899   0.5297     O
O       0.7536   0.8101   0.0297     O
C       0.7691   0.2167   0.1617     C
C       0.7691   0.2833   0.6617     C
F       0.7693   0.0592   0.5155     F
F       0.7693   0.4408   0.0155     F
F       0.7698    0.559   0.8877     F
F       0.7698    0.941   0.3877     F
O       0.7755   0.1838   0.0338     O
O       0.7755   0.3162   0.5338     O
O       0.8478    0.742   0.2171     O
O       0.8478    0.758   0.7171     O
O       0.8709   0.2405   0.2485     O
O       0.8709   0.2595   0.7485     O
C       0.8825   0.5296   0.9422     C
C       0.8825   0.9704   0.4422     C
C       0.8831   0.0299   0.5084     C
C       0.8831   0.4701   0.0084     C
O       0.9855   0.6698   0.9693     O
O       0.9855   0.8302   0.4693     O
Pr     0.98945  0.71505  0.49507    Pr
Pr     0.98945  0.78495  0.99507    Pr
O       0.9898   0.1328   0.7911     O
O       0.9898   0.3672   0.2911     O
C       0.9993   0.6272   0.8636     C
C       0.9993   0.8728   0.3636     C
C       0.9997   0.5602   0.9333     C
C       0.9997   0.9398   0.4333     C
