data_I
_chemical_name_common  '/home/zhangsd/repos/MofS-CGCNN/ML/data/SSD/clean_cifs/NASROR_clean'
_cell_length_a 19.40320
_cell_length_b 19.40320
_cell_length_c 26.78700
_cell_angle_alpha 90.00000
_cell_angle_beta  90.00000
_cell_angle_gamma 90.00000
_space_group_name_H-M_alt      'P 1'


loop_
_space_group_symop_operation_xyz
  'x, y, z' 

loop_
_atom_site_label
_atom_site_fract_x
_atom_site_fract_y
_atom_site_fract_z
_atom_site_type_symbol
C       0.0007   0.6083   0.4604     C
C       0.0007   0.8917   0.0396     C
C       0.0081   0.7186   0.3875     C
C       0.0081   0.7814   0.1125     C
O       0.0112    0.613   0.0161     O
O       0.0112    0.887   0.4839     O
C       0.0151   0.7241   0.0825     C
C       0.0151   0.7759   0.4175     C
H       0.0185   0.6143   0.4936     H
H       0.0185   0.8857   0.0064     H
H        0.023    0.065   0.9583     H
H        0.023    0.435   0.5417     H
C       0.0244   0.1065   0.5537     C
C       0.0244   0.3935   0.9463     C
H       0.0307   0.1451   0.9528     H
H       0.0307   0.3549   0.5472     H
C       0.0337   0.1687   0.5868     C
C       0.0337   0.3313   0.9132     C
Zn     0.04185  0.54185  0.96478    Zn
Zn     0.04185  0.95815  0.53522    Zn
C       0.0485   0.2128   0.8563     C
C       0.0485   0.2872   0.6437     C
H       0.0511   0.7213   0.0596     H
H       0.0511   0.7787   0.4404     H
O       0.0515   0.0527    0.432     O
O       0.0515   0.4473    0.068     O
O       0.0527   0.0515    0.568     O
O       0.0527   0.4485    0.932     O
H       0.0548   0.1721   0.8385     H
H       0.0548   0.3279   0.6615     H
C       0.0592   0.6092   0.4237     C
C       0.0592   0.8908   0.0763     C
C       0.0636   0.6635   0.3882     C
C       0.0636   0.8365   0.1118     C
H        0.065    0.023   0.0417     H
H        0.065    0.477   0.4583     H
C       0.0869   0.1734   0.6196     C
C       0.0869   0.3266   0.8804     C
H       0.0919   0.7368     0.17     H
H       0.0919   0.7632     0.33     H
C       0.0954   0.2351   0.6494     C
C       0.0954   0.2649   0.8506     C
H        0.099   0.7111   0.2856     H
H        0.099   0.7889   0.2144     H
C       0.1065   0.0244   0.4463     C
C       0.1065   0.4756   0.0537     C
C       0.1083   0.5007   0.4604     C
C       0.1083   0.9993   0.0396     C
C       0.1092   0.5592   0.4237     C
C       0.1092   0.9408   0.0763     C
O        0.113   0.5112   0.0161     O
O        0.113   0.9888   0.4839     O
H       0.1143   0.5185   0.4936     H
H       0.1143   0.9815   0.0064     H
C       0.1167   0.6651   0.3539     C
C       0.1167   0.8349   0.1461     C
H       0.1177    0.137   0.6229     H
H       0.1177    0.363   0.8771     H
C       0.1183   0.7255   0.3168     C
C       0.1183   0.7745   0.1832     C
H        0.137   0.1177   0.3771     H
H        0.137   0.3823   0.1229     H
H       0.1451   0.0307   0.0472     H
H       0.1451   0.4693   0.4528     H
C       0.1553   0.2414    0.684     C
C       0.1553   0.2586    0.816     C
C       0.1635   0.5636   0.3882     C
C       0.1635   0.9364   0.1118     C
C       0.1651   0.6167   0.3539     C
H       0.1651     0.74   0.3118     H
H       0.1651     0.76   0.1882     H
C       0.1651   0.8833   0.1461     C
O       0.1652   0.2029   0.7957     O
O       0.1652   0.2971   0.7043     O
C       0.1687   0.0337   0.4132     C
C       0.1687   0.4663   0.0868     C
H       0.1721   0.0548   0.1615     H
H       0.1721   0.4452   0.3385     H
C       0.1734   0.0869   0.3804     C
C       0.1734   0.4131   0.1196     C
Zn     0.17363     0.25     0.25    Zn
O       0.1864   0.1895   0.3089     O
O       0.1864   0.3105   0.1911     O
O       0.1895   0.1864   0.6911     O
O       0.1895   0.3136   0.8089     O
O       0.2029   0.1652   0.2043     O
O       0.2029   0.3348   0.2957     O
H       0.2111    0.599   0.2856     H
H       0.2111    0.901   0.2144     H
C       0.2128   0.0485   0.1437     C
C       0.2128   0.4515   0.3563     C
C       0.2186   0.5081   0.3875     C
C       0.2186   0.9919   0.1125     C
H       0.2213   0.5511   0.0596     H
H       0.2213   0.9489   0.4404     H
C       0.2241   0.5151   0.0825     C
C       0.2241   0.9849   0.4175     C
C       0.2255   0.6183   0.3168     C
C       0.2255   0.8817   0.1832     C
C       0.2351   0.0954   0.3506     C
C       0.2351   0.4046   0.1494     C
H       0.2368   0.5919     0.17     H
H       0.2368   0.9081     0.33     H
H         0.24   0.6651   0.3118     H
H         0.24   0.8349   0.1882     H
C       0.2414   0.1553    0.316     C
C       0.2414   0.3447    0.184     C
Zn        0.25  0.17363     0.75    Zn
Zn        0.25  0.32637     0.75    Zn
C       0.2586   0.1553    0.184     C
C       0.2586   0.3447    0.316     C
H         0.26   0.6651   0.1882     H
H         0.26   0.8349   0.3118     H
H       0.2632   0.5919     0.33     H
H       0.2632   0.9081     0.17     H
C       0.2649   0.0954   0.1494     C
C       0.2649   0.4046   0.3506     C
C       0.2745   0.6183   0.1832     C
C       0.2745   0.8817   0.3168     C
C       0.2759   0.5151   0.4175     C
C       0.2759   0.9849   0.0825     C
H       0.2787   0.5511   0.4404     H
H       0.2787   0.9489   0.0596     H
C       0.2814   0.5081   0.1125     C
C       0.2814   0.9919   0.3875     C
C       0.2872   0.0485   0.3563     C
C       0.2872   0.4515   0.1437     C
H       0.2889    0.599   0.2144     H
H       0.2889    0.901   0.2856     H
O       0.2971   0.1652   0.2957     O
O       0.2971   0.3348   0.2043     O
O       0.3105   0.1864   0.8089     O
O       0.3105   0.3136   0.6911     O
O       0.3136   0.1895   0.1911     O
O       0.3136   0.3105   0.3089     O
Zn     0.32637     0.25     0.25    Zn
C       0.3266   0.0869   0.1196     C
C       0.3266   0.4131   0.3804     C
H       0.3279   0.0548   0.3385     H
H       0.3279   0.4452   0.1615     H
C       0.3313   0.0337   0.0868     C
C       0.3313   0.4663   0.4132     C
O       0.3348   0.2029   0.7043     O
O       0.3348   0.2971   0.7957     O
C       0.3349   0.6167   0.1461     C
H       0.3349     0.74   0.1882     H
H       0.3349     0.76   0.3118     H
C       0.3349   0.8833   0.3539     C
C       0.3365   0.5636   0.1118     C
C       0.3365   0.9364   0.3882     C
C       0.3447   0.2414    0.816     C
C       0.3447   0.2586    0.684     C
H       0.3549   0.0307   0.4528     H
H       0.3549   0.4693   0.0472     H
H        0.363   0.1177   0.1229     H
H        0.363   0.3823   0.3771     H
C       0.3817   0.7255   0.1832     C
C       0.3817   0.7745   0.3168     C
H       0.3823    0.137   0.8771     H
H       0.3823    0.363   0.6229     H
C       0.3833   0.6651   0.1461     C
C       0.3833   0.8349   0.3539     C
H       0.3857   0.5185   0.0064     H
H       0.3857   0.9815   0.4936     H
O        0.387   0.5112   0.4839     O
O        0.387   0.9888   0.0161     O
C       0.3908   0.5592   0.0763     C
C       0.3908   0.9408   0.4237     C
C       0.3917   0.5007   0.0396     C
C       0.3917   0.9993   0.4604     C
C       0.3935   0.0244   0.0537     C
C       0.3935   0.4756   0.4463     C
H        0.401   0.7111   0.2144     H
H        0.401   0.7889   0.2856     H
C       0.4046   0.2351   0.8506     C
C       0.4046   0.2649   0.6494     C
H       0.4081   0.7368     0.33     H
H       0.4081   0.7632     0.17     H
C       0.4131   0.1734   0.8804     C
C       0.4131   0.3266   0.6196     C
H        0.435    0.023   0.4583     H
H        0.435    0.477   0.0417     H
C       0.4364   0.6635   0.1118     C
C       0.4364   0.8365   0.3882     C
C       0.4408   0.6092   0.0763     C
C       0.4408   0.8908   0.4237     C
H       0.4452   0.1721   0.6615     H
H       0.4452   0.3279   0.8385     H
O       0.4473   0.0515    0.932     O
O       0.4473   0.4485    0.568     O
O       0.4485   0.0527    0.068     O
O       0.4485   0.4473    0.432     O
H       0.4489   0.7213   0.4404     H
H       0.4489   0.7787   0.0596     H
C       0.4515   0.2128   0.6437     C
C       0.4515   0.2872   0.8563     C
Zn     0.45815  0.54185  0.53522    Zn
Zn     0.45815  0.95815  0.96478    Zn
C       0.4663   0.1687   0.9132     C
C       0.4663   0.3313   0.5868     C
H       0.4693   0.1451   0.5472     H
H       0.4693   0.3549   0.9528     H
C       0.4756   0.1065   0.9463     C
C       0.4756   0.3935   0.5537     C
H        0.477    0.065   0.5417     H
H        0.477    0.435   0.9583     H
H       0.4815   0.6143   0.0064     H
H       0.4815   0.8857   0.4936     H
C       0.4849   0.7241   0.4175     C
C       0.4849   0.7759   0.0825     C
O       0.4888    0.613   0.4839     O
O       0.4888    0.887   0.0161     O
C       0.4919   0.7186   0.1125     C
C       0.4919   0.7814   0.3875     C
C       0.4993   0.6083   0.0396     C
C       0.4993   0.8917   0.4604     C
C       0.5007   0.1083   0.5396     C
C       0.5007   0.3917   0.9604     C
C       0.5081   0.2186   0.6125     C
C       0.5081   0.2814   0.8875     C
O       0.5112    0.113   0.9839     O
O       0.5112    0.387   0.5161     O
C       0.5151   0.2241   0.9175     C
C       0.5151   0.2759   0.5825     C
H       0.5185   0.1143   0.5064     H
H       0.5185   0.3857   0.9936     H
H        0.523    0.565   0.0417     H
H        0.523    0.935   0.4583     H
C       0.5244   0.6065   0.4463     C
C       0.5244   0.8935   0.0537     C
H       0.5307   0.6451   0.0472     H
H       0.5307   0.8549   0.4528     H
C       0.5337   0.6687   0.4132     C
C       0.5337   0.8313   0.0868     C
Zn     0.54185  0.04185  0.03522    Zn
Zn     0.54185  0.45815  0.46478    Zn
C       0.5485   0.7128   0.1437     C
C       0.5485   0.7872   0.3563     C
H       0.5511   0.2213   0.9404     H
H       0.5511   0.2787   0.5596     H
O       0.5515   0.5527    0.568     O
O       0.5515   0.9473    0.932     O
O       0.5527   0.5515    0.432     O
O       0.5527   0.9485    0.068     O
H       0.5548   0.6721   0.1615     H
H       0.5548   0.8279   0.3385     H
C       0.5592   0.1092   0.5763     C
C       0.5592   0.3908   0.9237     C
C       0.5636   0.1635   0.6118     C
C       0.5636   0.3365   0.8882     C
H        0.565    0.523   0.9583     H
H        0.565    0.977   0.5417     H
C       0.5869   0.6734   0.3804     C
C       0.5869   0.8266   0.1196     C
H       0.5919   0.2368     0.83     H
H       0.5919   0.2632     0.67     H
C       0.5954   0.7351   0.3506     C
C       0.5954   0.7649   0.1494     C
H        0.599   0.2111   0.7144     H
H        0.599   0.2889   0.7856     H
C       0.6065   0.5244   0.5537     C
C       0.6065   0.9756   0.9463     C
C       0.6083   0.0007   0.5396     C
C       0.6083   0.4993   0.9604     C
C       0.6092   0.0592   0.5763     C
C       0.6092   0.4408   0.9237     C
O        0.613   0.0112   0.9839     O
O        0.613   0.4888   0.5161     O
H       0.6143   0.0185   0.5064     H
H       0.6143   0.4815   0.9936     H
C       0.6167   0.1651   0.6461     C
C       0.6167   0.3349   0.8539     C
H       0.6177    0.637   0.3771     H
H       0.6177    0.863   0.1229     H
C       0.6183   0.2255   0.6832     C
C       0.6183   0.2745   0.8168     C
H        0.637   0.6177   0.6229     H
H        0.637   0.8823   0.8771     H
H       0.6451   0.5307   0.9528     H
H       0.6451   0.9693   0.5472     H
C       0.6553   0.7414    0.316     C
C       0.6553   0.7586    0.184     C
C       0.6635   0.0636   0.6118     C
C       0.6635   0.4364   0.8882     C
C       0.6651   0.1167   0.6461     C
H       0.6651     0.24   0.6882     H
H       0.6651     0.26   0.8118     H
C       0.6651   0.3833   0.8539     C
O       0.6652   0.7029   0.2043     O
O       0.6652   0.7971   0.2957     O
C       0.6687   0.5337   0.5868     C
C       0.6687   0.9663   0.9132     C
H       0.6721   0.5548   0.8385     H
H       0.6721   0.9452   0.6615     H
C       0.6734   0.5869   0.6196     C
C       0.6734   0.9131   0.8804     C
Zn     0.67363     0.75     0.75    Zn
O       0.6864   0.6895   0.6911     O
O       0.6864   0.8105   0.8089     O
O       0.6895   0.6864   0.3089     O
O       0.6895   0.8136   0.1911     O
O       0.7029   0.6652   0.7957     O
O       0.7029   0.8348   0.7043     O
H       0.7111    0.099   0.7144     H
H       0.7111    0.401   0.7856     H
C       0.7128   0.5485   0.8563     C
C       0.7128   0.9515   0.6437     C
C       0.7186   0.0081   0.6125     C
C       0.7186   0.4919   0.8875     C
H       0.7213   0.0511   0.9404     H
H       0.7213   0.4489   0.5596     H
C       0.7241   0.0151   0.9175     C
C       0.7241   0.4849   0.5825     C
C       0.7255   0.1183   0.6832     C
C       0.7255   0.3817   0.8168     C
C       0.7351   0.5954   0.6494     C
C       0.7351   0.9046   0.8506     C
H       0.7368   0.0919     0.83     H
H       0.7368   0.4081     0.67     H
H         0.74   0.1651   0.6882     H
H         0.74   0.3349   0.8118     H
C       0.7414   0.6553    0.684     C
C       0.7414   0.8447    0.816     C
Zn        0.75  0.67363     0.25    Zn
Zn        0.75  0.82637     0.25    Zn
C       0.7586   0.6553    0.816     C
C       0.7586   0.8447    0.684     C
H         0.76   0.1651   0.8118     H
H         0.76   0.3349   0.6882     H
H       0.7632   0.0919     0.67     H
H       0.7632   0.4081     0.83     H
C       0.7649   0.5954   0.8506     C
C       0.7649   0.9046   0.6494     C
C       0.7745   0.1183   0.8168     C
C       0.7745   0.3817   0.6832     C
C       0.7759   0.0151   0.5825     C
C       0.7759   0.4849   0.9175     C
H       0.7787   0.0511   0.5596     H
H       0.7787   0.4489   0.9404     H
C       0.7814   0.0081   0.8875     C
C       0.7814   0.4919   0.6125     C
C       0.7872   0.5485   0.6437     C
C       0.7872   0.9515   0.8563     C
H       0.7889    0.099   0.7856     H
H       0.7889    0.401   0.7144     H
O       0.7971   0.6652   0.7043     O
O       0.7971   0.8348   0.7957     O
O       0.8105   0.6864   0.1911     O
O       0.8105   0.8136   0.3089     O
O       0.8136   0.6895   0.8089     O
O       0.8136   0.8105   0.6911     O
Zn     0.82637     0.75     0.75    Zn
C       0.8266   0.5869   0.8804     C
C       0.8266   0.9131   0.6196     C
H       0.8279   0.5548   0.6615     H
H       0.8279   0.9452   0.8385     H
C       0.8313   0.5337   0.9132     C
C       0.8313   0.9663   0.5868     C
O       0.8348   0.7029   0.2957     O
O       0.8348   0.7971   0.2043     O
C       0.8349   0.1167   0.8539     C
H       0.8349     0.24   0.8118     H
H       0.8349     0.26   0.6882     H
C       0.8349   0.3833   0.6461     C
C       0.8365   0.0636   0.8882     C
C       0.8365   0.4364   0.6118     C
C       0.8447   0.7414    0.184     C
C       0.8447   0.7586    0.316     C
H       0.8549   0.5307   0.5472     H
H       0.8549   0.9693   0.9528     H
H        0.863   0.6177   0.8771     H
H        0.863   0.8823   0.6229     H
C       0.8817   0.2255   0.8168     C
C       0.8817   0.2745   0.6832     C
H       0.8823    0.637   0.1229     H
H       0.8823    0.863   0.3771     H
C       0.8833   0.1651   0.8539     C
C       0.8833   0.3349   0.6461     C
H       0.8857   0.0185   0.9936     H
H       0.8857   0.4815   0.5064     H
O        0.887   0.0112   0.5161     O
O        0.887   0.4888   0.9839     O
C       0.8908   0.0592   0.9237     C
C       0.8908   0.4408   0.5763     C
C       0.8917   0.0007   0.9604     C
C       0.8917   0.4993   0.5396     C
C       0.8935   0.5244   0.9463     C
C       0.8935   0.9756   0.5537     C
H        0.901   0.2111   0.7856     H
H        0.901   0.2889   0.7144     H
C       0.9046   0.7351   0.1494     C
C       0.9046   0.7649   0.3506     C
H       0.9081   0.2368     0.67     H
H       0.9081   0.2632     0.83     H
C       0.9131   0.6734   0.1196     C
C       0.9131   0.8266   0.3804     C
H        0.935    0.523   0.5417     H
H        0.935    0.977   0.9583     H
C       0.9364   0.1635   0.8882     C
C       0.9364   0.3365   0.6118     C
C       0.9408   0.1092   0.9237     C
C       0.9408   0.3908   0.5763     C
H       0.9452   0.6721   0.3385     H
H       0.9452   0.8279   0.1615     H
O       0.9473   0.5515    0.068     O
O       0.9473   0.9485    0.432     O
O       0.9485   0.5527    0.932     O
O       0.9485   0.9473    0.568     O
H       0.9489   0.2213   0.5596     H
H       0.9489   0.2787   0.9404     H
C       0.9515   0.7128   0.3563     C
C       0.9515   0.7872   0.1437     C
Zn     0.95815  0.04185  0.46478    Zn
Zn     0.95815  0.45815  0.03522    Zn
C       0.9663   0.6687   0.0868     C
C       0.9663   0.8313   0.4132     C
H       0.9693   0.6451   0.4528     H
H       0.9693   0.8549   0.0472     H
C       0.9756   0.6065   0.0537     C
C       0.9756   0.8935   0.4463     C
H        0.977    0.565   0.4583     H
H        0.977    0.935   0.0417     H
H       0.9815   0.1143   0.9936     H
H       0.9815   0.3857   0.5064     H
C       0.9849   0.2241   0.5825     C
C       0.9849   0.2759   0.9175     C
O       0.9888    0.113   0.5161     O
O       0.9888    0.387   0.9839     O
C       0.9919   0.2186   0.8875     C
C       0.9919   0.2814   0.6125     C
C       0.9993   0.1083   0.9604     C
C       0.9993   0.3917   0.5396     C
