data_I
_chemical_name_common  '/home/zhangsd/repos/MofS-CGCNN/ML/data/SSD/clean_cifs/NASREH_clean'
_cell_length_a 14.74880
_cell_length_b 10.74340
_cell_length_c 28.87740
_cell_angle_alpha 90.00000
_cell_angle_beta  90.00000
_cell_angle_gamma 90.00000
_space_group_name_H-M_alt      'P 1'


loop_
_space_group_symop_operation_xyz
  'x, y, z' 

loop_
_atom_site_label
_atom_site_fract_x
_atom_site_fract_y
_atom_site_fract_z
_atom_site_type_symbol
C          0.0      0.0   0.0481     C
C          0.0      0.0      0.1     C
C          0.0      0.0   0.1963     C
H          0.0      0.0   0.2285     H
H          0.0      0.0   0.7715     H
C          0.0      0.0   0.8037     C
C          0.0      0.0      0.9     C
C          0.0      0.0   0.9519     C
H          0.0      0.5   0.2715     H
C          0.0      0.5   0.3037     C
C          0.0      0.5      0.4     C
C          0.0      0.5   0.4519     C
C          0.0      0.5   0.5481     C
C          0.0      0.5      0.6     C
C          0.0      0.5   0.6963     C
H          0.0      0.5   0.7285     H
C       0.0512   0.0852  0.02439     C
C       0.0512   0.0852  0.97561     C
C       0.0512   0.4148  0.47561     C
C       0.0512   0.4148  0.52439     C
C       0.0594   0.5756  0.37539     C
C       0.0594   0.5756  0.62461     C
C       0.0594   0.9244  0.12461     C
C       0.0594   0.9244  0.87539     C
C       0.0606   0.5738  0.32743     C
C       0.0606   0.5738  0.67257     C
C       0.0606   0.9262  0.17257     C
C       0.0606   0.9262  0.82743     C
H       0.0738   0.2011   0.0819     H
H       0.0738   0.2011   0.9181     H
H       0.0738   0.2989   0.4181     H
H       0.0738   0.2989   0.5819     H
H       0.0886   0.2281   0.4649     H
H       0.0886   0.2281   0.5351     H
H       0.0886   0.2719   0.0351     H
H       0.0886   0.2719   0.9649     H
C       0.0987   0.1952   0.0513     C
C       0.0987   0.1952   0.9487     C
C       0.0987   0.3048   0.4487     C
C       0.0987   0.3048   0.5513     C
H       0.0987   0.6281   0.3913     H
H       0.0987   0.6281   0.6087     H
H       0.0987   0.8719   0.1087     H
H       0.0987   0.8719   0.8913     H
C       0.1295   0.6485  0.30069     C
C       0.1295   0.6485  0.69931     C
C       0.1295   0.8515  0.19931     C
C       0.1295   0.8515  0.80069     C
O       0.1547   0.6062  0.26314     O
O       0.1547   0.6062  0.73686     O
O       0.1547   0.8938  0.23686     O
O       0.1547   0.8938  0.76314     O
O       0.1559   0.7482  0.31899     O
O       0.1559   0.7482  0.68101     O
O       0.1559   0.7518  0.18101     O
O       0.1559   0.7518  0.81899     O
H       0.1627   0.1794   0.0533     H
H       0.1627   0.1794   0.9467     H
H       0.1627   0.3206   0.4467     H
H       0.1627   0.3206   0.5533     H
Co        0.25  0.65388  0.21474    Co
Co        0.25  0.65388  0.78526    Co
Co        0.25  0.84612  0.28526    Co
Co        0.25  0.84612  0.71474    Co
H       0.3373   0.1794   0.0533     H
H       0.3373   0.1794   0.9467     H
H       0.3373   0.3206   0.4467     H
H       0.3373   0.3206   0.5533     H
O       0.3441   0.7482  0.31899     O
O       0.3441   0.7482  0.68101     O
O       0.3441   0.7518  0.18101     O
O       0.3441   0.7518  0.81899     O
O       0.3453   0.6062  0.26314     O
O       0.3453   0.6062  0.73686     O
O       0.3453   0.8938  0.23686     O
O       0.3453   0.8938  0.76314     O
C       0.3705   0.6485  0.30069     C
C       0.3705   0.6485  0.69931     C
C       0.3705   0.8515  0.19931     C
C       0.3705   0.8515  0.80069     C
C       0.4013   0.1952   0.0513     C
C       0.4013   0.1952   0.9487     C
C       0.4013   0.3048   0.4487     C
C       0.4013   0.3048   0.5513     C
H       0.4013   0.6281   0.3913     H
H       0.4013   0.6281   0.6087     H
H       0.4013   0.8719   0.1087     H
H       0.4013   0.8719   0.8913     H
H       0.4114   0.2281   0.4649     H
H       0.4114   0.2281   0.5351     H
H       0.4114   0.2719   0.0351     H
H       0.4114   0.2719   0.9649     H
H       0.4262   0.2011   0.0819     H
H       0.4262   0.2011   0.9181     H
H       0.4262   0.2989   0.4181     H
H       0.4262   0.2989   0.5819     H
C       0.4394   0.5738  0.32743     C
C       0.4394   0.5738  0.67257     C
C       0.4394   0.9262  0.17257     C
C       0.4394   0.9262  0.82743     C
C       0.4406   0.5756  0.37539     C
C       0.4406   0.5756  0.62461     C
C       0.4406   0.9244  0.12461     C
C       0.4406   0.9244  0.87539     C
C       0.4488   0.0852  0.02439     C
C       0.4488   0.0852  0.97561     C
C       0.4488   0.4148  0.47561     C
C       0.4488   0.4148  0.52439     C
C          0.5      0.0   0.0481     C
C          0.5      0.0      0.1     C
C          0.5      0.0   0.1963     C
H          0.5      0.0   0.2285     H
H          0.5      0.0   0.7715     H
C          0.5      0.0   0.8037     C
C          0.5      0.0      0.9     C
C          0.5      0.0   0.9519     C
H          0.5      0.5   0.2715     H
C          0.5      0.5   0.3037     C
C          0.5      0.5      0.4     C
C          0.5      0.5   0.4519     C
C          0.5      0.5   0.5481     C
C          0.5      0.5      0.6     C
C          0.5      0.5   0.6963     C
H          0.5      0.5   0.7285     H
C       0.5512   0.5852  0.47561     C
C       0.5512   0.5852  0.52439     C
C       0.5512   0.9148  0.02439     C
C       0.5512   0.9148  0.97561     C
C       0.5594   0.0756  0.12461     C
C       0.5594   0.0756  0.87539     C
C       0.5594   0.4244  0.37539     C
C       0.5594   0.4244  0.62461     C
C       0.5606   0.0738  0.17257     C
C       0.5606   0.0738  0.82743     C
C       0.5606   0.4262  0.32743     C
C       0.5606   0.4262  0.67257     C
H       0.5738   0.7011   0.4181     H
H       0.5738   0.7011   0.5819     H
H       0.5738   0.7989   0.0819     H
H       0.5738   0.7989   0.9181     H
H       0.5886   0.7281   0.0351     H
H       0.5886   0.7281   0.9649     H
H       0.5886   0.7719   0.4649     H
H       0.5886   0.7719   0.5351     H
H       0.5987   0.1281   0.1087     H
H       0.5987   0.1281   0.8913     H
H       0.5987   0.3719   0.3913     H
H       0.5987   0.3719   0.6087     H
C       0.5987   0.6952   0.4487     C
C       0.5987   0.6952   0.5513     C
C       0.5987   0.8048   0.0513     C
C       0.5987   0.8048   0.9487     C
C       0.6295   0.1485  0.19931     C
C       0.6295   0.1485  0.80069     C
C       0.6295   0.3515  0.30069     C
C       0.6295   0.3515  0.69931     C
O       0.6547   0.1062  0.23686     O
O       0.6547   0.1062  0.76314     O
O       0.6547   0.3938  0.26314     O
O       0.6547   0.3938  0.73686     O
O       0.6559   0.2482  0.18101     O
O       0.6559   0.2482  0.81899     O
O       0.6559   0.2518  0.31899     O
O       0.6559   0.2518  0.68101     O
H       0.6627   0.6794   0.4467     H
H       0.6627   0.6794   0.5533     H
H       0.6627   0.8206   0.0533     H
H       0.6627   0.8206   0.9467     H
Co        0.75  0.15388  0.28526    Co
Co        0.75  0.15388  0.71474    Co
Co        0.75  0.34612  0.21474    Co
Co        0.75  0.34612  0.78526    Co
H       0.8373   0.6794   0.4467     H
H       0.8373   0.6794   0.5533     H
H       0.8373   0.8206   0.0533     H
H       0.8373   0.8206   0.9467     H
O       0.8441   0.2482  0.18101     O
O       0.8441   0.2482  0.81899     O
O       0.8441   0.2518  0.31899     O
O       0.8441   0.2518  0.68101     O
O       0.8453   0.1062  0.23686     O
O       0.8453   0.1062  0.76314     O
O       0.8453   0.3938  0.26314     O
O       0.8453   0.3938  0.73686     O
C       0.8705   0.1485  0.19931     C
C       0.8705   0.1485  0.80069     C
C       0.8705   0.3515  0.30069     C
C       0.8705   0.3515  0.69931     C
H       0.9013   0.1281   0.1087     H
H       0.9013   0.1281   0.8913     H
H       0.9013   0.3719   0.3913     H
H       0.9013   0.3719   0.6087     H
C       0.9013   0.6952   0.4487     C
C       0.9013   0.6952   0.5513     C
C       0.9013   0.8048   0.0513     C
C       0.9013   0.8048   0.9487     C
H       0.9114   0.7281   0.0351     H
H       0.9114   0.7281   0.9649     H
H       0.9114   0.7719   0.4649     H
H       0.9114   0.7719   0.5351     H
H       0.9262   0.7011   0.4181     H
H       0.9262   0.7011   0.5819     H
H       0.9262   0.7989   0.0819     H
H       0.9262   0.7989   0.9181     H
C       0.9394   0.0738  0.17257     C
C       0.9394   0.0738  0.82743     C
C       0.9394   0.4262  0.32743     C
C       0.9394   0.4262  0.67257     C
C       0.9406   0.0756  0.12461     C
C       0.9406   0.0756  0.87539     C
C       0.9406   0.4244  0.37539     C
C       0.9406   0.4244  0.62461     C
C       0.9488   0.5852  0.47561     C
C       0.9488   0.5852  0.52439     C
C       0.9488   0.9148  0.02439     C
C       0.9488   0.9148  0.97561     C
