data_I
_chemical_name_common  '/home/zhangsd/repos/MofS-CGCNN/ML/data/SSD/clean_cifs/NAWWUG_clean'
_cell_length_a 20.39500
_cell_length_b  6.94100
_cell_length_c 20.07000
_cell_angle_alpha 90.00000
_cell_angle_beta  119.18000
_cell_angle_gamma 90.00000
_space_group_name_H-M_alt      'P 1'


loop_
_space_group_symop_operation_xyz
  'x, y, z' 

loop_
_atom_site_label
_atom_site_fract_x
_atom_site_fract_y
_atom_site_fract_z
_atom_site_type_symbol
N          0.0   0.1002     0.25     N
N          0.0   0.3071     0.75     N
Ni         0.0   0.4023     0.25    Ni
Ni         0.0   0.5977     0.75    Ni
N          0.0   0.6929     0.25     N
N          0.0   0.8998     0.75     N
C       0.0536   0.1988   0.8056     C
C       0.0536   0.8012   0.3056     C
C       0.0554   0.0021   0.3077     C
C       0.0554   0.9979   0.8077     C
H       0.0936   0.2649   0.8468     H
H       0.0936   0.7351   0.3468     H
H        0.095   0.0683   0.3493     H
H        0.095   0.9317   0.8493     H
O       0.1054   0.4577   0.1657     O
O       0.1054   0.5423   0.6657     O
O       0.1069    0.404   0.2753     O
O       0.1069    0.596   0.7753     O
C       0.1392   0.4396   0.2373     C
C       0.1392   0.5604   0.7373     C
C       0.2217   0.4603    0.281     C
C       0.2217   0.5397    0.781     C
H       0.2255   0.4557    0.385     H
H       0.2255   0.5443    0.885     H
H       0.2476   0.4767   0.1951     H
H       0.2476   0.5233   0.6951     H
C       0.2559    0.465   0.3613     C
C       0.2559    0.535   0.8613     C
C       0.2687   0.4766   0.2491     C
C       0.2687   0.5234   0.7491     C
H       0.3199   0.1715   0.1207     H
H       0.3199   0.8285   0.6207     H
H       0.3209    0.151   0.6234     H
H       0.3209    0.849   0.1234     H
O       0.3218   0.4842   0.5211     O
O       0.3218   0.5158   0.0211     O
C       0.3314   0.4825   0.4051     C
C       0.3314   0.5175   0.9051     C
C       0.3466   0.4927   0.2951     C
C       0.3466   0.5073   0.7951     C
C       0.3631   0.1065   0.1257     C
C       0.3631   0.8935   0.6257     C
C       0.3635   0.0864   0.6268     C
C       0.3635   0.9136   0.1268     C
O       0.3646   0.4933   0.6882     O
O       0.3646   0.5067   0.1882     O
C       0.3648   0.4848   0.4912     C
C       0.3648   0.5152   0.9912     C
C       0.3781   0.4932   0.3743     C
C       0.3781   0.5068   0.8743     C
C       0.3972   0.4947   0.7613     C
C       0.3972   0.5053   0.2613     C
N       0.4196   0.2112   0.1311     N
N       0.4196   0.7888   0.6311     N
Ni     0.42071  0.48956  0.63041    Ni
Ni     0.42071  0.51044  0.13041    Ni
N       0.4211   0.1941   0.6324     N
N       0.4211   0.8059   0.1324     N
H        0.431   0.4991   0.9062     H
H        0.431   0.5009   0.4062     H
O        0.434   0.4888   0.5329     O
O        0.434   0.5112   0.0329     O
O       0.4652   0.4886   0.8035     O
O       0.4652   0.5114   0.3035     O
H       0.4748   0.1494   0.8489     H
H       0.4748   0.8506   0.3489     H
H       0.4763   0.1744   0.3503     H
H       0.4763   0.8256   0.8503     H
C       0.4799   0.1078   0.1421     C
C       0.4799   0.8922   0.6421     C
C       0.4807   0.0855   0.6429     C
C       0.4807   0.9145   0.1429     C
C       0.5193   0.0855   0.8571     C
C       0.5193   0.9145   0.3571     C
C       0.5201   0.1078   0.3579     C
C       0.5201   0.8922   0.8579     C
H       0.5237   0.1744   0.1497     H
H       0.5237   0.8256   0.6497     H
H       0.5252   0.1494   0.6511     H
H       0.5252   0.8506   0.1511     H
O       0.5348   0.4886   0.6965     O
O       0.5348   0.5114   0.1965     O
O        0.566   0.4888   0.9671     O
O        0.566   0.5112   0.4671     O
H        0.569   0.4991   0.5938     H
H        0.569   0.5009   0.0938     H
N       0.5789   0.1941   0.8676     N
N       0.5789   0.8059   0.3676     N
Ni     0.57929  0.48956  0.86959    Ni
Ni     0.57929  0.51044  0.36959    Ni
N       0.5804   0.2112   0.3689     N
N       0.5804   0.7888   0.8689     N
C       0.6028   0.4947   0.7387     C
C       0.6028   0.5053   0.2387     C
C       0.6219   0.4932   0.1257     C
C       0.6219   0.5068   0.6257     C
C       0.6352   0.4848   0.0088     C
C       0.6352   0.5152   0.5088     C
O       0.6354   0.4933   0.8118     O
O       0.6354   0.5067   0.3118     O
C       0.6365   0.0864   0.8732     C
C       0.6365   0.9136   0.3732     C
C       0.6369   0.1065   0.3743     C
C       0.6369   0.8935   0.8743     C
C       0.6534   0.4927   0.2049     C
C       0.6534   0.5073   0.7049     C
C       0.6686   0.4825   0.0949     C
C       0.6686   0.5175   0.5949     C
O       0.6782   0.4842   0.9789     O
O       0.6782   0.5158   0.4789     O
H       0.6791    0.151   0.8766     H
H       0.6791    0.849   0.3766     H
H       0.6801   0.1715   0.3793     H
H       0.6801   0.8285   0.8793     H
C       0.7313   0.4766   0.2509     C
C       0.7313   0.5234   0.7509     C
C       0.7441    0.465   0.1387     C
C       0.7441    0.535   0.6387     C
H       0.7524   0.4767   0.3049     H
H       0.7524   0.5233   0.8049     H
H       0.7745   0.4557    0.115     H
H       0.7745   0.5443    0.615     H
C       0.7783   0.4603    0.219     C
C       0.7783   0.5397    0.719     C
C       0.8608   0.4396   0.2627     C
C       0.8608   0.5604   0.7627     C
O       0.8931    0.404   0.2247     O
O       0.8931    0.596   0.7247     O
O       0.8946   0.4577   0.3343     O
O       0.8946   0.5423   0.8343     O
H        0.905   0.0683   0.1507     H
H        0.905   0.9317   0.6507     H
H       0.9064   0.2649   0.6532     H
H       0.9064   0.7351   0.1532     H
C       0.9446   0.0021   0.1923     C
C       0.9446   0.9979   0.6923     C
C       0.9464   0.1988   0.6944     C
C       0.9464   0.8012   0.1944     C
