data_I
_chemical_name_common  '/home/zhangsd/repos/MofS-CGCNN/ML/data/SSD/clean_cifs/NEDVUP_clean'
_cell_length_a 12.65830
_cell_length_b 15.54090
_cell_length_c 16.40940
_cell_angle_alpha 108.44600
_cell_angle_beta  98.65100
_cell_angle_gamma 109.52600
_space_group_name_H-M_alt      'P 1'


loop_
_space_group_symop_operation_xyz
  'x, y, z' 

loop_
_atom_site_label
_atom_site_fract_x
_atom_site_fract_y
_atom_site_fract_z
_atom_site_type_symbol
O       0.0071   0.5313   0.6271     O
C       0.0143   0.3929    0.317     C
H       0.0627   0.7788   0.8058     H
O       0.0754   0.3591   0.3241     O
C       0.0838   0.6506   0.7818     C
C       0.1052   0.7469    0.828     C
H       0.1139   0.5335    0.771     H
C       0.1338   0.6009   0.8078     C
H       0.1704   0.1864   0.5737     H
H       0.1856   0.1352   0.1866     H
Cu      0.1914  0.37072  0.42161    Cu
O       0.1948   0.4936   0.5138     O
C       0.1991   0.8007   0.9159     C
H       0.2022   0.0973   0.6599     H
H       0.2137   0.0489   0.0557     H
C       0.2157   0.6458   0.8891     C
H       0.2189   0.6368    0.652     H
H       0.2204   0.8686   0.9522     H
O        0.222   0.3123   0.5051     O
O       0.2312   0.2839     0.33     O
C       0.2473    0.204   0.6083     C
H       0.2485   0.6077   0.9108     H
C        0.252   0.7451   0.9404     C
C       0.2587   0.1596   0.1747     C
C       0.2666   0.1512   0.6604     C
C       0.2767   0.1084   0.0973     C
C       0.2833   0.6855   0.6461     C
H       0.2882   0.7966   0.7544     H
C       0.2886   0.5558   0.5144     C
C       0.3229   0.3388   0.5534     C
C       0.3238   0.7818   0.7078     C
H        0.327    0.968   0.7966     H
C       0.3277   0.6547    0.578     C
H       0.3317   0.1167   0.9003     H
C       0.3325   0.3064   0.3202     C
C       0.3397   0.2809   0.6075     C
O       0.3428   0.7833   0.0177     O
C       0.3473   0.2462   0.2345     C
O        0.349   0.5342   0.4636     O
H       0.3618   0.9157   0.1019     H
C        0.375   0.1758   0.7113     C
C       0.3772   0.1367   0.0766     C
O       0.3828    0.121   0.7596     O
O       0.3895   0.0806    0.999     O
C       0.4056   0.8879   0.0637     C
H        0.408   0.9449   0.8647     H
C       0.4082   0.1292   0.9384     C
C       0.4088    0.982   0.8255     C
O         0.41   0.4126   0.5629     O
H        0.416   0.9196   0.0201     H
C       0.4163   0.8579   0.7028     C
O       0.4236   0.3799    0.374     O
C       0.4258   0.7326   0.5724     C
C       0.4493   0.2742   0.2166     C
C       0.4497   0.3015   0.6564     C
H       0.4507   0.2018   0.9728     H
H       0.4534   0.8691   0.2185     H
H       0.4541   0.7328   0.2575     H
H       0.4613   0.7159   0.5261     H
H        0.462   0.7524   0.8749     H
O       0.4651   0.9532   0.7593     O
C       0.4653   0.2229   0.1373     C
H        0.466   0.1177   0.3711     H
H       0.4685   0.7789   0.1471     H
C       0.4689   0.2506   0.7088     C
C       0.4697   0.8327   0.6338     C
C       0.4777   0.0923   0.8797     C
H        0.485   0.6474   0.3458     H
H       0.4865   0.6685     0.74     H
C       0.4949   0.1486   0.8172     C
Mn         0.5      0.5      0.5    Mn
C       0.5051   0.8514   0.1828     C
H       0.5135   0.3315     0.26     H
H        0.515   0.3526   0.6542     H
C       0.5223   0.9077   0.1203     C
C       0.5303   0.1673   0.3662     C
C       0.5311   0.7494   0.2912     C
H       0.5315   0.2211   0.8529     H
H        0.534   0.8823   0.6289     H
C       0.5347   0.7771   0.8627     C
O       0.5349   0.0468   0.2407     O
H        0.538   0.2476   0.1251     H
H       0.5387   0.2841   0.4739     H
H       0.5459   0.2672   0.7425     H
H       0.5466   0.1309   0.7815     H
H       0.5493   0.7982   0.0272     H
C       0.5503   0.6985   0.3436     C
C       0.5507   0.7258   0.7834     C
C       0.5742   0.2674   0.4276     C
O       0.5764   0.6201    0.626     O
C       0.5837   0.1421   0.2972     C
H        0.584   0.0804   0.9799     H
O         0.59   0.5874   0.4371     O
C       0.5912    0.018   0.1745     C
C       0.5918   0.8708   0.0616     C
H        0.592   0.0551   0.1353     H
C       0.5944   0.1121   0.9363     C
O       0.6105   0.9194    0.001     O
O       0.6172    0.879   0.2404     O
C       0.6228   0.8633   0.9234     C
C        0.625   0.8242   0.2887     C
H       0.6382   0.0843   0.8981     H
O        0.651   0.4658   0.5364     O
C       0.6527   0.7538   0.7655     C
O       0.6572   0.2167   0.9823     O
C       0.6603   0.7191   0.3925     C
C       0.6675   0.6936   0.6798     C
H       0.6683   0.8833   0.0997     H
C       0.6723   0.3453    0.422     C
H        0.673    0.032   0.2034     H
C       0.6762   0.2182   0.2922     C
C       0.6771   0.6612   0.4466     C
C       0.7114   0.4442   0.4856     C
H       0.7118   0.2034   0.2456     H
C       0.7167   0.3145   0.3539     C
C       0.7233   0.8916   0.9027     C
C       0.7334   0.8488   0.3396     C
C       0.7413   0.8404   0.8253     C
C        0.748   0.2549   0.0596     C
H       0.7515   0.3923   0.0892     H
C       0.7527    0.796   0.3917     C
O       0.7688   0.7161     0.67     O
O        0.778   0.6877   0.4949     O
H       0.7796   0.1314   0.0478     H
H       0.7811   0.3632    0.348     H
C       0.7843   0.3542   0.1109     C
H       0.7863   0.9511   0.9443     H
H       0.7978   0.9027   0.3401     H
C       0.8009   0.1993   0.0841     C
O       0.8052   0.5064   0.4862     O
Cu      0.8086  0.62928  0.57839    Cu
H       0.8144   0.8648   0.8134     H
H       0.8296   0.8136   0.4263     H
C       0.8662   0.3991   0.1922     C
H       0.8861   0.4665    0.229     H
C       0.8948   0.2531    0.172     C
C       0.9162   0.3494   0.2182     C
O       0.9246   0.6409   0.6759     O
H       0.9373   0.2212   0.1942     H
C       0.9857   0.6071    0.683     C
O       0.9929   0.4687   0.3729     O
Cu         1.0      0.5      0.5    Cu
