data_I
_chemical_name_common  '/home/zhangsd/repos/MofS-CGCNN/ML/data/SSD/clean_cifs/NEDWEA_clean'
_cell_length_a 12.65940
_cell_length_b 15.02710
_cell_length_c 17.03170
_cell_angle_alpha 108.00900
_cell_angle_beta  101.05000
_cell_angle_gamma 106.05000
_space_group_name_H-M_alt      'P 1'


loop_
_space_group_symop_operation_xyz
  'x, y, z' 

loop_
_atom_site_label
_atom_site_fract_x
_atom_site_fract_y
_atom_site_fract_z
_atom_site_type_symbol
Co         0.0      0.5      0.5    Co
C       0.0009   0.6237   0.6842     C
O       0.0073   0.5476  0.63282     O
O       0.0621   0.3299  0.33283     O
H       0.0628   0.8021   0.8123     H
C       0.0807   0.6661   0.7764     C
C       0.1026   0.7636    0.831     C
H       0.1198   0.5423   0.7671     H
C       0.1348    0.609   0.8047     C
O      0.17608  0.49543  0.52516     O
H       0.1819   0.1829   0.5702     H
C       0.1839   0.8059   0.9144     C
H       0.2012   0.8732   0.9517     H
C       0.2105   0.6476   0.8872     C
Co     0.21509  0.37245  0.41478    Co
H       0.2153   0.1124    0.672     H
H       0.2175   0.6427   0.6639     H
O        0.225   0.3015  0.49594     O
H       0.2372     0.16   0.1948     H
C       0.2375   0.7467   0.9398     C
H       0.2439   0.6066   0.9077     H
C       0.2587   0.1985   0.6035     C
H       0.2624   0.0637    0.069     H
C       0.2731   0.5529   0.5295     C
O        0.274  0.30766  0.32415     O
C       0.2784   0.1552   0.6627     C
C       0.2832   0.6882   0.6597     C
H       0.3013   0.8061   0.7679     H
C       0.3029   0.1856   0.1782     C
C       0.3172   0.1291   0.1036     C
O       0.3188    0.779  0.01774     O
C       0.3257   0.6561   0.5931     C
O      0.32669  0.51762  0.47773     O
C       0.3282   0.3145   0.5313     C
C       0.3328   0.7855    0.722     C
H       0.3383   0.9153   0.1018     H
C       0.3501   0.2647   0.5917     C
H       0.3509   0.9764   0.8074     H
H         0.36   0.1359   0.9048     H
C        0.369   0.3424   0.3124     C
C       0.3801   0.8861   0.0635     C
C       0.3853   0.2815   0.2301     C
H       0.3868   0.9194   0.0219     H
C       0.3899   0.1744   0.7085     C
O       0.4011   0.1278  0.76533     O
C       0.4116   0.1676   0.0788     C
O       0.4127  0.36751  0.51779     O
C        0.425   0.7236   0.5878     C
O       0.4269   0.1059  0.00461     O
C        0.428   0.8512   0.7163     C
C       0.4319   0.9877   0.8362     C
H       0.4323   0.9541   0.8779     H
C       0.4377   0.1473   0.9406     C
H       0.4396   0.8765   0.2175     H
H       0.4416   0.7507   0.2728     H
H       0.4423    0.713   0.8892     H
H       0.4452   0.7768   0.1505     H
O       0.4528  0.42122  0.36482     O
H       0.4568   0.7024   0.5423     H
H       0.4587   0.1335   0.3539     H
C       0.4603   0.2829   0.6384     C
H       0.4651   0.6178   0.7592     H
C        0.475   0.8207   0.6494     C
H       0.4764   0.6723   0.3691     H
C       0.4787   0.3177   0.2054     C
H       0.4805   0.2205   0.9691     H
C       0.4815   0.2372   0.6964     C
O        0.485  0.94807  0.77302     O
C       0.4853   0.8502   0.1815     C
C       0.4929   0.2611   0.1284     C
C       0.4992   0.9007   0.1169     C
Mn         0.5      0.5      0.5    Mn
C       0.5008   0.0993   0.8831     C
C       0.5071   0.7389   0.8716     C
C       0.5147   0.1498   0.8185     C
O        0.515  0.05193  0.22698     O
C       0.5185   0.7628   0.3036     C
H       0.5195   0.7795   0.0309     H
C       0.5213   0.6823   0.7946     C
H       0.5236   0.3277   0.6309     H
C        0.525   0.1793   0.3506     C
H       0.5349   0.3822   0.2408     H
C       0.5397   0.7171   0.3616     C
H       0.5413   0.8665   0.6461     H
H       0.5432   0.2976   0.4577     H
O       0.5472  0.57878  0.63518     O
H       0.5548   0.2232   0.8495     H
H       0.5577    0.287   0.1108     H
H       0.5584   0.2493   0.7272     H
H       0.5604   0.1235   0.7825     H
C       0.5623   0.8527   0.0594     C
H       0.5677   0.0459   0.1221     H
C       0.5681   0.0123   0.1638     C
C        0.572   0.1488   0.2837     C
O       0.5731   0.8941  0.99539     O
C        0.575   0.2764   0.4122     C
O       0.5873  0.63249  0.48221     O
C       0.5884   0.8324   0.9212     C
O       0.5989   0.8722  0.23467     O
C       0.6101   0.8256   0.2915     C
H       0.6132   0.0806   0.9781     H
C       0.6147   0.7185   0.7699     C
C       0.6199   0.1139   0.9365     C
C        0.631   0.6576   0.6876     C
H         0.64   0.8641   0.0952     H
H       0.6491   0.0236   0.1926     H
C       0.6499   0.7353   0.4083     C
H       0.6617   0.0847   0.8982     H
C       0.6672   0.2145    0.278     C
C       0.6718   0.6855   0.4687     C
O      0.67331  0.48238  0.52227     O
C       0.6743   0.3439   0.4069     C
O       0.6812    0.221  0.98226     O
C       0.6828   0.8709   0.8964     C
C       0.6971   0.8144   0.8218     C
H       0.6987   0.1939   0.2321     H
C       0.7168   0.3118   0.3403     C
C       0.7216   0.8448   0.3373     C
O        0.726  0.69234  0.67585     O
C       0.7269   0.4471   0.4705     C
H       0.7376   0.9363    0.931     H
C       0.7413   0.8015   0.3965     C
H       0.7561   0.3934   0.0923     H
C       0.7625   0.2533   0.0602     C
H       0.7628     0.84   0.8052     H
O        0.775   0.6985  0.50406     O
H       0.7825   0.3573   0.3361     H
H       0.7847   0.8876    0.328     H
Co     0.78491  0.62755  0.58522    Co
C       0.7895   0.3524   0.1128     C
H       0.7988   0.1268   0.0483     H
C       0.8161   0.1941   0.0856     C
H       0.8181   0.8171   0.4298     H
O      0.82392  0.50457  0.47484     O
C       0.8652    0.391   0.1953     C
H       0.8802   0.4577   0.2329     H
C       0.8974   0.2364    0.169     C
C       0.9193   0.3339   0.2236     C
H       0.9372   0.1979   0.1877     H
O       0.9379   0.6701  0.66717     O
O       0.9927   0.4524  0.36718     O
C       0.9991   0.3763   0.3158     C
