data_I
_chemical_name_common  '/home/zhangsd/repos/MofS-CGCNN/ML/data/SSD/clean_cifs/NERVEL_clean'
_cell_length_a 10.54070
_cell_length_b 11.82660
_cell_length_c 14.11220
_cell_angle_alpha 106.87800
_cell_angle_beta  102.41100
_cell_angle_gamma 111.01100
_space_group_name_H-M_alt      'P 1'


loop_
_space_group_symop_operation_xyz
  'x, y, z' 

loop_
_atom_site_label
_atom_site_fract_x
_atom_site_fract_y
_atom_site_fract_z
_atom_site_type_symbol
H        0.001   0.9776   0.8075     H
H       0.0025   0.7293   0.1377     H
H       0.0238     0.19   0.1358     H
N       0.0366   0.5703   0.8425     N
C        0.038   0.2203   0.7266     C
H       0.0454    0.604   0.9879     H
H       0.0546   0.8062   0.3195     H
C       0.0638   0.1095   0.2383     C
C       0.0692   0.2674   0.8345     C
H       0.0745   0.5423    0.709     H
C       0.0784   0.2109   0.2051     C
C       0.1022   0.6071   0.9457     C
C       0.1186   0.5697   0.7816     C
H        0.122   0.1779   0.6143     H
H       0.1398   0.0721   0.3635     H
C       0.1454   0.2126   0.6874     C
C       0.1462    0.139     0.34     C
H       0.1536   0.7796   0.6869     H
O        0.163   0.3647  0.06026     O
H       0.1665   0.6537   0.5332     H
N       0.1675   0.3376   0.2683     N
Co      0.1933  0.49141  0.21267    Co
C       0.2027   0.8204   0.6495     C
C       0.2093   0.7455   0.5579     C
C       0.2094   0.3096   0.9006     C
O       0.2148   0.6349  0.14962     O
O       0.2173   0.6124  0.35927     O
C       0.2386   0.2699   0.4065     C
C       0.2452   0.3656   0.3679     C
C       0.2495   0.6495   0.9943     C
C       0.2579   0.3662   0.0199     C
C       0.2645    0.608   0.8224     C
H       0.2674    0.006   0.7499     H
C        0.269   0.9563    0.686     C
C       0.2805   0.8085   0.5032     C
N       0.2814   0.2529  0.74993     N
C       0.3011   0.7342   0.4059     C
C       0.3065   0.6818   0.1109     C
H       0.3066   0.4537   0.4131     H
C       0.3116   0.3019   0.8546     C
H       0.3176   0.6054   0.7777     H
C        0.333   0.6509   0.9308     C
O       0.3335   0.2169  0.54515     O
C       0.3336   0.3096   0.5191     C
N       0.3352   0.0188  0.63313     N
C       0.3394   0.9451   0.5433     C
H       0.3846    0.988   0.5053     H
O       0.3904   0.4133  0.07013     O
O       0.3998   0.7999  0.38042     O
O        0.404   0.4298   0.5765     O
H       0.4066   0.3327   0.8992     H
H       0.4186   0.5186   0.2116     H
O        0.426   0.5586  0.25748     O
H       0.4327   0.6798   0.9599     H
O       0.4414   0.7516  0.16033     O
Co      0.4512  0.23082  0.69007    Co
H       0.4735   0.5517     0.31     H
H       0.5265   0.4483     0.69     H
Co      0.5488  0.76918  0.30993    Co
O       0.5586   0.2484  0.83967     O
H       0.5673   0.3202   0.0401     H
O        0.574   0.4414  0.74252     O
H       0.5814   0.4814   0.7884     H
H       0.5934   0.6673   0.1008     H
O        0.596   0.5702   0.4235     O
O       0.6002   0.2001  0.61958     O
O       0.6096   0.5867  0.92987     O
H       0.6154    0.012   0.4947     H
C       0.6606   0.0549   0.4567     C
N       0.6648   0.9812  0.36687     N
C       0.6664   0.6904   0.4809     C
O       0.6665   0.7831  0.45485     O
C        0.667   0.3491   0.0692     C
H       0.6824   0.3946   0.2223     H
C       0.6884   0.6981   0.1454     C
H       0.6934   0.5463   0.5869     H
C       0.6935   0.3182   0.8891     C
C       0.6989   0.2658   0.5941     C
N       0.7186   0.7471  0.25007     N
C       0.7195   0.1915   0.4968     C
C        0.731   0.0437    0.314     C
H       0.7326    0.994   0.2501     H
C       0.7355    0.392   0.1776     C
C       0.7421   0.6338   0.9801     C
C       0.7505   0.3505   0.0057     C
C       0.7548   0.6344   0.6321     C
C       0.7614   0.7301   0.5935     C
O       0.7827   0.3876  0.64073     O
O       0.7852   0.3651  0.85038     O
C       0.7906   0.6904   0.0994     C
C       0.7907   0.2545   0.4421     C
C       0.7973   0.1796   0.3505     C
Co      0.8067  0.50859  0.78733    Co
N       0.8325   0.6624   0.7317     N
H       0.8335   0.3463   0.4668     H
O        0.837   0.6353  0.93974     O
H       0.8464   0.2204   0.3131     H
C       0.8538    0.861     0.66     C
C       0.8546   0.7874   0.3126     C
H       0.8602   0.9279   0.6365     H
H        0.878   0.8221   0.3857     H
C       0.8814   0.4303   0.2184     C
C       0.8978   0.3929   0.0543     C
C       0.9216   0.7891   0.7949     C
H       0.9255   0.4577    0.291     H
C       0.9308   0.7326   0.1655     C
C       0.9362   0.8905   0.7617     C
H       0.9454   0.1938   0.6805     H
H       0.9546    0.396   0.0121     H
C        0.962   0.7797   0.2734     C
N       0.9634   0.4297   0.1575     N
H       0.9762     0.81   0.8642     H
H       0.9975   0.2707   0.8623     H
H        0.999   0.0224   0.1925     H
