data_I
_chemical_name_common  '/home/zhangsd/repos/MofS-CGCNN/ML/data/SSD/clean_cifs/NEXXIZ_clean'
_cell_length_a 12.96000
_cell_length_b 21.18930
_cell_length_c 21.18930
_cell_angle_alpha 84.40150
_cell_angle_beta  72.19290
_cell_angle_gamma 72.19280
_space_group_name_H-M_alt      'P 1'


loop_
_space_group_symop_operation_xyz
  'x, y, z' 

loop_
_atom_site_label
_atom_site_fract_x
_atom_site_fract_y
_atom_site_fract_z
_atom_site_type_symbol
C       0.0086  0.10775  0.58217     C
C      0.01131  0.88942  0.67528     C
H       0.0129   0.0707   0.5585     H
Li      0.0161  0.95115  0.48585    Li
H       0.0274   0.2498   0.0844     H
C      0.02964   0.3768  0.06468     C
O      0.04617  0.55986  0.07094     O
O      0.04628  0.94187  0.57101     O
H       0.0464   0.7277   0.1323     H
C       0.0553  0.60251  0.90893     C
O      0.05916  0.42899  0.05813     O
C      0.06226  0.26111  0.11337     C
C      0.06633  0.60947  0.08641     C
C      0.06674  0.09107  0.39749     C
C      0.06797  0.69898  0.83866     C
C      0.07601  0.32472  0.11058     C
H       0.0807    0.572   0.9408     H
C      0.08255  0.79687  0.76763     C
H       0.0935   0.0592    0.428     H
H       0.0939   0.1712   0.1596     H
C      0.09725   0.1822   0.6065     C
H          0.1   0.3676    0.873     H
C      0.10008  0.21483  0.15881     C
C      0.10477  0.12713  0.57301     C
C      0.10561  0.16134  0.30102     C
C      0.10886  0.65126   0.8828     C
C       0.1125   0.3216   0.7552     C
N      0.11878  0.75047  0.81501     N
C      0.12079   0.8458  0.65922     C
C      0.12581  0.34078   0.1542     C
H       0.1292   0.8371   0.4049     H
H       0.1352   0.3838    0.152     H
H       0.1421   0.4415   0.9293     H
C      0.14292   0.1172  0.34874     C
H       0.1445   0.7471   0.3443     H
C      0.14705  0.23237  0.20313     C
O      0.15817  0.62321  0.06165     O
C      0.15839  0.79933  0.70409     C
C      0.16181  0.29591  0.20067     C
H       0.1627   0.1962   0.6004     H
Li     0.16963  0.47758  0.04596    Li
H        0.171    0.848   0.6162     H
C      0.17281  0.37442  0.85816     C
H       0.1732   0.6521   0.8949     H
O      0.17697  0.92906  0.44014     O
N      0.18426  0.18499  0.24953     N
C       0.1893   0.6784   0.2448     C
C      0.18994  0.82491  0.36541     C
Li     0.19317  0.95404  0.52242    Li
H       0.1955   0.3076     0.23     H
C      0.19824  0.77126  0.32906     C
C      0.19852  0.41783  0.89225     C
C      0.21731  0.08845  0.52951     C
O      0.21954  0.03911  0.49935     O
H       0.2202   0.1051   0.3479     H
N      0.22632  0.29948  0.76608     N
Li      0.2305   0.6951   0.0213    Li
H       0.2331     0.77   0.6924     H
H       0.2359   0.2529   0.6557     H
C       0.2365  0.73911  0.81649     C
H       0.2373   0.7408   0.8624     H
C      0.25305  0.34115  0.80275     C
O        0.258  0.50065  0.96089     O
C      0.26221  0.91359  0.39053     C
C      0.26708  0.86084   0.3459     C
H       0.2672   0.7734   0.7902     H
O      0.26867  0.45465  0.10069     O
H       0.2763   0.2022   0.3046     H
H       0.2831   0.6954   0.7978     H
C      0.28431  0.75329  0.27069     C
N      0.29188  0.70052  0.23392     N
C       0.2921  0.18351  0.26089     C
Li     0.29796  0.56331  0.00637    Li
C      0.29856  0.22874  0.67094     C
O      0.30245  0.10726  0.52514     O
C      0.30491  0.42699  0.87287     C
C      0.30829  0.24671  0.72931     C
O      0.32401  0.89931  0.54535     O
H       0.3308   0.2098   0.2266     H
C      0.33527  0.47049  0.91155     C
H       0.3388   0.3574   0.1698     H
H       0.3405   0.1376   0.2592     H
H       0.3406   0.6324    0.127     H
O      0.34303  0.93835  0.37679     O
C      0.35199  0.84385  0.28737     C
C      0.35768  0.79132  0.25012     C
C      0.35988  0.35092  0.78292     C
H       0.3616   0.7502   0.9156     H
H        0.366   0.8302   0.6426     H
O      0.36676  0.63385  0.96309     O
Li     0.36764  0.99363  0.43669    Li
H       0.3712   0.1629   0.5951     H
C      0.37128  0.45327  0.08183     C
C      0.38026  0.17509  0.63459     C
C      0.38595   0.3935   0.8178     C
C      0.39695  0.65885  0.19725     C
C      0.39912  0.20868  0.74988     C
H        0.405   0.2186   0.7912     H
C      0.40539  0.62558  0.14184     C
C      0.40638  0.91817  0.54673     C
H       0.4064   0.8677   0.2723     H
O      0.41027  0.49261  0.03877     O
H       0.4148   0.7814   0.2088     H
H       0.4157   0.3283   0.7451     H
C      0.41656  0.35555  0.15651     C
H       0.4247   0.8288   0.8404     H
C      0.42862  0.84349  0.64445     C
O      0.43485  0.47486  0.89274     O
C      0.43674  0.73889  0.88663     C
O      0.44165  0.96123  0.50739     O
Li      0.4469   0.9787   0.3049    Li
C      0.45251   0.4019  0.11112     C
Li      0.4531  0.04885  0.51415    Li
H       0.4557   0.7844   0.7224     H
H       0.4593   0.3996   0.8038     H
H       0.4625   0.2776   0.2156     H
O       0.4637  0.03691  0.36615     O
C      0.46553  0.88888   0.5981     C
C      0.47112   0.6232  0.93532     C
C      0.47372  0.78517  0.84119     C
C      0.47382  0.13916   0.6541     C
C      0.48017  0.81725  0.69297     C
C      0.48321  0.15615  0.71263     C
H       0.4891   0.6717   0.2549     H
C      0.49039  0.30703  0.18275     C
C      0.49372  0.64908  0.21708     C
C       0.5086  0.58217  0.10775     C
C      0.51131  0.67528  0.88942     C
H       0.5129   0.5585   0.0707     H
Li      0.5161  0.48585  0.95115    Li
H       0.5274   0.0844   0.2498     H
C      0.52964  0.06468   0.3768     C
O      0.54617  0.07094  0.55986     O
O      0.54628  0.57101  0.94187     O
H       0.5464   0.1323   0.7277     H
C       0.5553  0.90893  0.60251     C
O      0.55916  0.05813  0.42899     O
C      0.56226  0.11337  0.26111     C
C      0.56633  0.08641  0.60947     C
C      0.56674  0.39749  0.09107     C
C      0.56797  0.83866  0.69898     C
C      0.57601  0.11058  0.32472     C
H       0.5807   0.9408    0.572     H
C      0.58255  0.76763  0.79687     C
H       0.5935    0.428   0.0592     H
H       0.5939   0.1596   0.1712     H
C      0.59725   0.6065   0.1822     C
H          0.6    0.873   0.3676     H
C      0.60008  0.15881  0.21483     C
C      0.60477  0.57301  0.12713     C
C      0.60561  0.30102  0.16134     C
C      0.60886   0.8828  0.65126     C
C       0.6125   0.7552   0.3216     C
N      0.61878  0.81501  0.75047     N
C      0.62079  0.65922   0.8458     C
C      0.62581   0.1542  0.34078     C
H       0.6292   0.4049   0.8371     H
H       0.6352    0.152   0.3838     H
H       0.6421   0.9293   0.4415     H
C      0.64292  0.34874   0.1172     C
H       0.6445   0.3443   0.7471     H
C      0.64705  0.20313  0.23237     C
O      0.65817  0.06165  0.62321     O
C      0.65839  0.70409  0.79933     C
C      0.66181  0.20067  0.29591     C
H       0.6627   0.6004   0.1962     H
Li     0.66963  0.04596  0.47758    Li
H        0.671   0.6162    0.848     H
C      0.67281  0.85816  0.37442     C
H       0.6732   0.8949   0.6521     H
O      0.67697  0.44014  0.92906     O
N      0.68426  0.24953  0.18499     N
C       0.6893   0.2448   0.6784     C
C      0.68994  0.36541  0.82491     C
Li     0.69317  0.52242  0.95404    Li
H       0.6955     0.23   0.3076     H
C      0.69824  0.32906  0.77126     C
C      0.69852  0.89225  0.41783     C
C      0.71731  0.52951  0.08845     C
O      0.71954  0.49935  0.03911     O
H       0.7202   0.3479   0.1051     H
N      0.72632  0.76608  0.29948     N
Li      0.7305   0.0213   0.6951    Li
H       0.7331   0.6924     0.77     H
H       0.7359   0.6557   0.2529     H
C       0.7365  0.81649  0.73911     C
H       0.7373   0.8624   0.7408     H
C      0.75305  0.80275  0.34115     C
O        0.758  0.96089  0.50065     O
C      0.76221  0.39053  0.91359     C
C      0.76708   0.3459  0.86084     C
H       0.7672   0.7902   0.7734     H
O      0.76867  0.10069  0.45465     O
H       0.7763   0.3046   0.2022     H
H       0.7831   0.7978   0.6954     H
C      0.78431  0.27069  0.75329     C
N      0.79188  0.23392  0.70052     N
C       0.7921  0.26089  0.18351     C
Li     0.79796  0.00637  0.56331    Li
C      0.79856  0.67094  0.22874     C
O      0.80245  0.52514  0.10726     O
C      0.80491  0.87287  0.42699     C
C      0.80829  0.72931  0.24671     C
O      0.82401  0.54535  0.89931     O
H       0.8308   0.2266   0.2098     H
C      0.83527  0.91155  0.47049     C
H       0.8388   0.1698   0.3574     H
H       0.8405   0.2592   0.1376     H
H       0.8406    0.127   0.6324     H
O      0.84303  0.37679  0.93835     O
C      0.85199  0.28737  0.84385     C
C      0.85768  0.25012  0.79132     C
C      0.85988  0.78292  0.35092     C
H       0.8616   0.9156   0.7502     H
H        0.866   0.6426   0.8302     H
O      0.86676  0.96309  0.63385     O
Li     0.86764  0.43669  0.99363    Li
H       0.8712   0.5951   0.1629     H
C      0.87128  0.08183  0.45327     C
C      0.88026  0.63459  0.17509     C
C      0.88595   0.8178   0.3935     C
C      0.89695  0.19725  0.65885     C
C      0.89912  0.74988  0.20868     C
H        0.905   0.7912   0.2186     H
C      0.90539  0.14184  0.62558     C
C      0.90638  0.54673  0.91817     C
H       0.9064   0.2723   0.8677     H
O      0.91027  0.03877  0.49261     O
H       0.9148   0.2088   0.7814     H
H       0.9157   0.7451   0.3283     H
C      0.91656  0.15651  0.35555     C
H       0.9247   0.8404   0.8288     H
C      0.92862  0.64445  0.84349     C
O      0.93485  0.89274  0.47486     O
C      0.93674  0.88663  0.73889     C
O      0.94165  0.50739  0.96123     O
Li      0.9469   0.3049   0.9787    Li
C      0.95251  0.11112   0.4019     C
Li      0.9531  0.51415  0.04885    Li
H       0.9557   0.7224   0.7844     H
H       0.9593   0.8038   0.3996     H
H       0.9625   0.2156   0.2776     H
O       0.9637  0.36615  0.03691     O
C      0.96553   0.5981  0.88888     C
C      0.97112  0.93532   0.6232     C
C      0.97372  0.84119  0.78517     C
C      0.97382   0.6541  0.13916     C
C      0.98017  0.69297  0.81725     C
C      0.98321  0.71263  0.15615     C
H       0.9891   0.2549   0.6717     H
C      0.99039  0.18275  0.30703     C
C      0.99372  0.21708  0.64908     C
