data_I
_chemical_name_common  '/home/zhangsd/repos/MofS-CGCNN/ML/data/SSD/clean_cifs/NEZWOG_clean'
_cell_length_a 11.26680
_cell_length_b 13.36040
_cell_length_c 26.28200
_cell_angle_alpha 90.00000
_cell_angle_beta  90.00000
_cell_angle_gamma 90.00000
_space_group_name_H-M_alt      'P 1'


loop_
_space_group_symop_operation_xyz
  'x, y, z' 

loop_
_atom_site_label
_atom_site_fract_x
_atom_site_fract_y
_atom_site_fract_z
_atom_site_type_symbol
O       0.0008   0.3889   0.8688     O
O       0.0008   0.8889   0.6312     O
La     0.02779  0.34141  0.78148    La
La     0.02779  0.84141  0.71852    La
C        0.061   0.4106   0.2254     C
C        0.061   0.9106   0.2746     C
C       0.0727   0.0938   0.7235     C
C       0.0727   0.5938   0.7765     C
O        0.083   0.3117   0.1357     O
O        0.083   0.8117   0.3643     O
C       0.0953   0.1004   0.3909     C
C       0.0953   0.6004   0.1091     C
O        0.107   0.2662    0.614     O
O        0.107   0.7662    0.886     O
O       0.1138   0.0456   0.4281     O
O       0.1138   0.5456   0.0719     O
O       0.1204   0.1762   0.7304     O
O       0.1204   0.6762   0.7696     O
O       0.1265   0.0174   0.7103     O
O       0.1265   0.5174   0.7897     O
O       0.1308    0.216   0.2171     O
O       0.1308    0.716   0.2829     O
O        0.131   0.4969   0.2303     O
O        0.131   0.9969   0.2697     O
P       0.1399   0.3163  0.18892     P
P       0.1399   0.8163  0.31108     P
O       0.1517   0.1252    0.552     O
O       0.1517   0.6252    0.948     O
C       0.2024   0.1479   0.3664     C
C       0.2024   0.6479   0.1336     C
P       0.2054   0.2075  0.58599     P
P       0.2054   0.7075  0.91401     P
O       0.2061   0.1982   0.3197     O
O       0.2061   0.6982   0.1803     O
O       0.2157   0.2788   0.4452     O
O       0.2157   0.7788   0.0548     O
O       0.2304   0.3513   0.8153     O
O       0.2304   0.8513   0.6847     O
La        0.25   0.4887      0.0    La
La        0.25   0.9887      0.5    La
O       0.2696   0.3513   0.1847     O
O       0.2696   0.8513   0.3153     O
O       0.2843   0.2788   0.5548     O
O       0.2843   0.7788   0.9452     O
O       0.2939   0.1982   0.6803     O
O       0.2939   0.6982   0.8197     O
P       0.2946   0.2075  0.41401     P
P       0.2946   0.7075  0.08599     P
C       0.2976   0.1479   0.6336     C
C       0.2976   0.6479   0.8664     C
O       0.3483   0.1252    0.448     O
O       0.3483   0.6252    0.052     O
P       0.3601   0.3163  0.81108     P
P       0.3601   0.8163  0.68892     P
O        0.369   0.4969   0.7697     O
O        0.369   0.9969   0.7303     O
O       0.3692    0.216   0.7829     O
O       0.3692    0.716   0.7171     O
O       0.3735   0.0174   0.2897     O
O       0.3735   0.5174   0.2103     O
O       0.3796   0.1762   0.2696     O
O       0.3796   0.6762   0.2304     O
O       0.3862   0.0456   0.5719     O
O       0.3862   0.5456   0.9281     O
O        0.393   0.2662    0.386     O
O        0.393   0.7662    0.114     O
C       0.4047   0.1004   0.6091     C
C       0.4047   0.6004   0.8909     C
O        0.417   0.3117   0.8643     O
O        0.417   0.8117   0.6357     O
C       0.4273   0.0938   0.2765     C
C       0.4273   0.5938   0.2235     C
C        0.439   0.4106   0.7746     C
C        0.439   0.9106   0.7254     C
La     0.47221  0.34141  0.21852    La
La     0.47221  0.84141  0.28148    La
O       0.4992   0.3889   0.1312     O
O       0.4992   0.8889   0.3688     O
O       0.5008   0.1111   0.6312     O
O       0.5008   0.6111   0.8688     O
La     0.52779  0.15859  0.71852    La
La     0.52779  0.65859  0.78148    La
C        0.561   0.0894   0.2746     C
C        0.561   0.5894   0.2254     C
C       0.5727   0.4062   0.7765     C
C       0.5727   0.9062   0.7235     C
O        0.583   0.1883   0.3643     O
O        0.583   0.6883   0.1357     O
C       0.5953   0.3996   0.1091     C
C       0.5953   0.8996   0.3909     C
O        0.607   0.2338    0.886     O
O        0.607   0.7338    0.614     O
O       0.6138   0.4544   0.0719     O
O       0.6138   0.9544   0.4281     O
O       0.6204   0.3238   0.7696     O
O       0.6204   0.8238   0.7304     O
O       0.6265   0.4826   0.7897     O
O       0.6265   0.9826   0.7103     O
O       0.6308    0.284   0.2829     O
O       0.6308    0.784   0.2171     O
O        0.631   0.0031   0.2697     O
O        0.631   0.5031   0.2303     O
P       0.6399   0.1837  0.31108     P
P       0.6399   0.6837  0.18892     P
O       0.6517   0.3748    0.948     O
O       0.6517   0.8748    0.552     O
C       0.7024   0.3521   0.1336     C
C       0.7024   0.8521   0.3664     C
P       0.7054   0.2925  0.91401     P
P       0.7054   0.7925  0.58599     P
O       0.7061   0.3018   0.1803     O
O       0.7061   0.8018   0.3197     O
O       0.7157   0.2212   0.0548     O
O       0.7157   0.7212   0.4452     O
O       0.7304   0.1487   0.6847     O
O       0.7304   0.6487   0.8153     O
La        0.75   0.0113      0.5    La
La        0.75   0.5113      0.0    La
O       0.7696   0.1487   0.3153     O
O       0.7696   0.6487   0.1847     O
O       0.7843   0.2212   0.9452     O
O       0.7843   0.7212   0.5548     O
O       0.7939   0.3018   0.8197     O
O       0.7939   0.8018   0.6803     O
P       0.7946   0.2925  0.08599     P
P       0.7946   0.7925  0.41401     P
C       0.7976   0.3521   0.8664     C
C       0.7976   0.8521   0.6336     C
O       0.8483   0.3748    0.052     O
O       0.8483   0.8748    0.448     O
P       0.8601   0.1837  0.68892     P
P       0.8601   0.6837  0.81108     P
O        0.869   0.0031   0.7303     O
O        0.869   0.5031   0.7697     O
O       0.8692    0.284   0.7171     O
O       0.8692    0.784   0.7829     O
O       0.8735   0.4826   0.2103     O
O       0.8735   0.9826   0.2897     O
O       0.8796   0.3238   0.2304     O
O       0.8796   0.8238   0.2696     O
O       0.8862   0.4544   0.9281     O
O       0.8862   0.9544   0.5719     O
O        0.893   0.2338    0.114     O
O        0.893   0.7338    0.386     O
C       0.9047   0.3996   0.8909     C
C       0.9047   0.8996   0.6091     C
O        0.917   0.1883   0.6357     O
O        0.917   0.6883   0.8643     O
C       0.9273   0.4062   0.2235     C
C       0.9273   0.9062   0.2765     C
C        0.939   0.0894   0.7254     C
C        0.939   0.5894   0.7746     C
La     0.97221  0.15859  0.28148    La
La     0.97221  0.65859  0.21852    La
O       0.9992   0.1111   0.3688     O
O       0.9992   0.6111   0.1312     O
