data_I
_chemical_name_common  '/home/zhangsd/repos/MofS-CGCNN/ML/data/SSD/clean_cifs/NIGBOW_clean'
_cell_length_a  6.95700
_cell_length_b 15.25880
_cell_length_c 15.25880
_cell_angle_alpha 84.75870
_cell_angle_beta  76.82260
_cell_angle_gamma 76.82260
_space_group_name_H-M_alt      'P 1'


loop_
_space_group_symop_operation_xyz
  'x, y, z' 

loop_
_atom_site_label
_atom_site_fract_x
_atom_site_fract_y
_atom_site_fract_z
_atom_site_type_symbol
V          0.0      0.0      0.0     V
O       0.0125   0.0135   0.1155     O
C        0.026    0.998     0.45     C
H      0.05552  0.73296  0.00709     H
C       0.0846    0.004    0.694     C
C        0.121    0.999    0.259     C
C        0.137    0.003    0.595     C
H      0.14096  0.55739  0.00303     H
O       0.1415   0.8845   0.9865     O
C        0.168    0.008    0.156     C
H      0.20138  0.44261  0.99697     H
H      0.20443  0.00709  0.73296     H
C       0.2174    0.694    0.004     C
C        0.235    0.997    0.405     C
O         0.25    0.038    0.962     O
C        0.265    0.595    0.003     C
C       0.2826    0.996    0.306     C
H      0.29557  0.26704  0.99291     H
H      0.29862  0.00303  0.55739     H
C        0.332    0.844    0.992     C
O       0.3585   0.0135   0.1155     O
H      0.35904  0.99697  0.44261     H
C        0.363    0.405    0.997     C
C        0.379    0.741    0.001     C
C       0.4154    0.306    0.996     C
H      0.44448  0.99291  0.26704     H
C        0.474     0.55    0.002     C
O       0.4875   0.8845   0.9865     O
V          0.5     -0.0     -0.0     V
O       0.5125   0.1155   0.0135     O
C        0.526     0.45    0.998     C
H      0.55552  0.00709  0.73296     H
C       0.5846    0.694    0.004     C
C        0.621    0.259    0.999     C
C        0.637    0.595    0.003     C
H      0.64096  0.00303  0.55739     H
O       0.6415   0.9865   0.8845     O
C        0.668    0.156    0.008     C
H      0.70138  0.99697  0.44261     H
H      0.70443  0.73296  0.00709     H
C       0.7174    0.004    0.694     C
C        0.735    0.405    0.997     C
O         0.75    0.962    0.038     O
C        0.765    0.003    0.595     C
C       0.7826    0.306    0.996     C
H      0.79557  0.99291  0.26704     H
H      0.79862  0.55739  0.00303     H
C        0.832    0.992    0.844     C
O       0.8585   0.1155   0.0135     O
H      0.85904  0.44261  0.99697     H
C        0.863    0.997    0.405     C
C        0.879    0.001    0.741     C
C       0.9154    0.996    0.306     C
H      0.94448  0.26704  0.99291     H
C        0.974    0.002     0.55     C
O       0.9875   0.9865   0.8845     O
