data_I
_chemical_name_common  '/home/zhangsd/repos/MofS-CGCNN/ML/data/SSD/clean_cifs/NIGFUF_clean'
_cell_length_a 10.90970
_cell_length_b 10.90970
_cell_length_c 19.51000
_cell_angle_alpha 75.46870
_cell_angle_beta  75.46870
_cell_angle_gamma 64.10820
_space_group_name_H-M_alt      'P 1'


loop_
_space_group_symop_operation_xyz
  'x, y, z' 

loop_
_atom_site_label
_atom_site_fract_x
_atom_site_fract_y
_atom_site_fract_z
_atom_site_type_symbol
H       0.0192   0.8428   0.8277     H
O       0.0273   0.9181   0.9346     O
C        0.046    0.202   0.2829     C
C       0.0708   0.1522   0.1609     C
O       0.0748   0.7832   0.7048     O
O       0.0815   0.1509   0.4816     O
O       0.0819   0.9727   0.5654     O
C       0.0862   0.0932   0.0438     C
C       0.0932   0.0862   0.5438     C
Dy     0.09646  0.75382  0.58305    Dy
O       0.0997   0.5541   0.5509     O
H       0.0998   0.3312   0.5317     H
O        0.105    0.205   0.3291     O
C       0.1182   0.2808   0.5767     C
C       0.1218   0.1496   0.5951     C
C       0.1288   0.1754   0.2097     C
C       0.1304   0.4844   0.6062     C
C       0.1416   0.3376   0.6248     C
C       0.1496   0.1218   0.0951     C
O       0.1509   0.0815   0.9816     O
C       0.1522   0.0708   0.6609     C
H       0.1572   0.9808   0.6723     H
O       0.1591   0.5285    0.651     O
C       0.1711   0.2599   0.6913     C
C       0.1754   0.1288   0.7097     C
H       0.1881   0.2977   0.7238     H
C        0.202    0.046   0.7829     C
O        0.205    0.105   0.8291     O
O       0.2168   0.9252   0.7952     O
Dy     0.24618  0.90354  0.91695    Dy
C       0.2599   0.1711   0.1913     C
C       0.2808   0.1182   0.0767     C
H       0.2977   0.1881   0.2238     H
H       0.3312   0.0998   0.0317     H
C       0.3376   0.1416   0.1248     C
O       0.4459   0.9003   0.9491     O
O       0.4715   0.8409    0.849     O
C       0.4844   0.1304   0.1062     C
C       0.5156   0.8696   0.8938     C
O       0.5285   0.1591    0.151     O
O       0.5541   0.0997   0.0509     O
C       0.6624   0.8584   0.8752     C
H       0.6688   0.9002   0.9683     H
H       0.7023   0.8119   0.7762     H
C       0.7192   0.8818   0.9233     C
C       0.7401   0.8289   0.8087     C
Dy     0.75382  0.09646  0.08305    Dy
O       0.7832   0.0748   0.2048     O
O        0.795    0.895   0.1709     O
C        0.798    0.954   0.2171     C
H       0.8119   0.7023   0.2762     H
C       0.8246   0.8712   0.2903     C
C       0.8289   0.7401   0.3087     C
O       0.8409   0.4715    0.349     O
H       0.8428   0.0192   0.3277     H
C       0.8478   0.9292   0.3391     C
O       0.8491   0.9185   0.0184     O
C       0.8504   0.8782   0.9049     C
C       0.8584   0.6624   0.3752     C
C       0.8696   0.5156   0.3938     C
C       0.8712   0.8246   0.7903     C
C       0.8782   0.8504   0.4049     C
C       0.8818   0.7192   0.4233     C
O        0.895    0.795   0.6709     O
H       0.9002   0.6688   0.4683     H
O       0.9003   0.4459   0.4491     O
Dy     0.90354  0.24618  0.41695    Dy
C       0.9068   0.9138   0.4562     C
C       0.9138   0.9068   0.9562     C
O       0.9181   0.0273   0.4346     O
O       0.9185   0.8491   0.5184     O
O       0.9252   0.2168   0.2952     O
C       0.9292   0.8478   0.8391     C
C        0.954    0.798   0.7171     C
O       0.9727   0.0819   0.0654     O
H       0.9808   0.1572   0.1723     H
