data_I
_chemical_name_common  '/home/zhangsd/repos/MofS-CGCNN/ML/data/SSD/clean_cifs/NUCPEI_clean'
_cell_length_a 14.12300
_cell_length_b 33.38000
_cell_length_c 16.83300
_cell_angle_alpha 90.00000
_cell_angle_beta  111.94300
_cell_angle_gamma 90.00000
_space_group_name_H-M_alt      'P 1'


loop_
_space_group_symop_operation_xyz
  'x, y, z' 

loop_
_atom_site_label
_atom_site_fract_x
_atom_site_fract_y
_atom_site_fract_z
_atom_site_type_symbol
O       0.0025  0.15768   0.4042     O
C       0.0037  0.25262   0.8497     C
Zn     0.00422  0.71182  0.58505    Zn
C       0.0091    0.093   0.8661     C
H       0.0173   0.2048   0.9258     H
H       0.0233   0.2956    0.773     H
C       0.0273  0.03196   0.8001     C
C        0.028   0.6175   0.6358     C
O       0.0291  0.65369   0.6557     O
H       0.0303   0.5296   0.6931     H
H       0.0349   0.1176   0.8908     H
O       0.0394  0.89096   0.6902     O
C       0.0395  0.51651   0.8115     C
O       0.0491  0.40205   0.3886     O
C       0.0497   0.5109   0.2152     C
C       0.0515   0.2203   0.8991     C
C       0.0564  0.27458    0.809     C
C       0.0564  0.85786   0.6603     C
O       0.0645  0.03688   0.2872     O
O       0.0656  0.52835   0.1553     O
H        0.066   0.0151   0.7803     H
C       0.0686  0.53427   0.7507     C
C       0.0689  0.06818   0.8389     C
C       0.0693  0.97908   0.2091     C
H       0.0775   0.5114   0.9387     H
H       0.0785   0.6762   0.1696     H
O       0.0787  0.26803   0.3511     O
O        0.079  0.31733   0.5181     O
C       0.0895   0.9181   0.1426     C
Zn     0.09486  0.08738  0.35075    Zn
C       0.0961   0.5236    0.897     C
C       0.1003  0.73513   0.1585     C
H       0.1032    0.288   0.6593     H
O       0.1051   0.5134   0.2904     O
C       0.1125  0.01794   0.2503     C
O       0.1162  0.85787   0.0807     O
C       0.1258  0.69489   0.1666     C
C       0.1282  0.95369   0.1803     C
C       0.1289  0.60016   0.6392     C
H       0.1291   0.6313   0.5359     H
O       0.1338  0.70836   0.5389     O
H       0.1422   0.2018   0.3258     H
C       0.1505  0.21109   0.9088     C
O       0.1522  0.72641    0.668     O
C       0.1524  0.88989   0.1114     C
C       0.1532  0.55888   0.7726     C
C       0.1555  0.83851   0.7118     C
H       0.1557   0.7893   0.1501     H
C       0.1562  0.26605   0.8206     C
C       0.1567  0.28089   0.3444     C
C       0.1642  0.30053   0.6919     C
C       0.1642  0.33251   0.5577     C
O       0.1664  0.12856   0.3113     O
Zn     0.16764  0.36494  0.40211    Zn
C       0.1681  0.61416   0.5794     C
H         0.17   0.8069   0.6159     H
H       0.1717   0.8638   0.8252     H
C       0.1721  0.76222   0.1559     C
H       0.1729   0.0506   0.7426     H
C       0.1743  0.07934   0.8479     C
O       0.1745  0.61485   0.1699     O
O       0.1796  0.31673   0.3414     O
C       0.1801  0.54869   0.9211     C
O       0.1805  0.07655   0.4686     O
H       0.1821   0.1889   0.9415     H
C       0.1871   0.5754   0.7056     C
C       0.1894  0.72205   0.6118     C
Zn     0.19052  0.55801  0.17795    Zn
H       0.1942   0.9611   0.1869     H
O        0.195  0.02894   0.2458     O
C       0.2008  0.81203   0.6743     C
C       0.2013  0.84586    0.799     C
C       0.2029  0.23364   0.8716     C
O       0.2041  0.54466   0.0659     O
C        0.207  0.20993   0.3305     C
C       0.2082   0.2928   0.7782     C
C       0.2091  0.32644   0.6531     C
C       0.2094  0.56531   0.8583     C
H       0.2136   0.1111   0.9584     H
C       0.2139  0.06616   0.7883     C
O       0.2142  0.35259   0.5245     O
C       0.2206    0.682   0.1703     C
H       0.2321   0.0811   0.6258     H
C       0.2331  0.25036   0.3383     C
C       0.2369  0.10295    0.916     C
C       0.2389  0.55769   0.0134     C
O       0.2411  0.90242   0.1217     O
C       0.2453  0.63847   0.1764     C
C       0.2547  0.13847   0.3236     C
O       0.2589  0.40242   0.3783     O
C       0.2611  0.05769   0.4866     C
C       0.2631  0.60295    0.584     C
C       0.2669  0.75036   0.1617     C
H       0.2679   0.5811   0.8742     H
C       0.2794    0.182   0.3297     C
O       0.2858  0.85259   0.9755     O
C       0.2861  0.56616   0.7117     C
H       0.2864   0.6111   0.5416     H
C       0.2906  0.06531   0.6417     C
C       0.2909  0.82644   0.8469     C
C       0.2918   0.7928   0.7218     C
C        0.293  0.70993   0.1695     C
O       0.2959  0.04466   0.4341     O
C       0.2971  0.73364   0.6284     C
C       0.2987  0.34586    0.701     C
C       0.2992  0.31203   0.8257     C
O        0.305  0.52894   0.2542     O
H       0.3058   0.4611   0.3131     H
Zn     0.30948  0.05801  0.32205    Zn
C       0.3106  0.22205   0.8882     C
C       0.3129   0.0754   0.7944     C
H       0.3179   0.6889   0.5585     H
O       0.3195  0.57655   0.0314     O
C       0.3199  0.04869   0.5789     C
O       0.3204  0.81673   0.1586     O
O       0.3255  0.11485   0.3301     O
C       0.3257  0.57934   0.6521     C
H       0.3271   0.5506   0.7574     H
C       0.3279  0.26222   0.3441     C
H       0.3283   0.3638   0.6748     H
H         0.33   0.3069   0.8841     H
C       0.3319  0.11416   0.9206     C
Zn     0.33236  0.86494  0.09789    Zn
O       0.3336  0.62856   0.1887     O
C       0.3358  0.80053   0.8081     C
C       0.3358  0.83251   0.9423     C
C       0.3433  0.78089   0.1556     C
C       0.3438  0.76605   0.6794     C
H       0.3443   0.2893   0.3499     H
C       0.3445  0.33851   0.7882     C
C       0.3468  0.05888   0.7274     C
C       0.3476  0.38989   0.3886     C
O       0.3478  0.22641    0.832     O
C       0.3495  0.71109   0.5912     C
H       0.3578   0.7018   0.1742     H
O       0.3662  0.20836   0.9611     O
H       0.3709   0.1313   0.9641     H
C       0.3711  0.10016   0.8608     C
C       0.3718  0.45369   0.3197     C
C       0.3742  0.19489   0.3334     C
O       0.3838  0.35787   0.4193     O
C       0.3875  0.51794   0.2497     C
O       0.3949   0.0134   0.2096     O
H       0.3968    0.788   0.8407     H
C       0.3997  0.23513   0.3415     C
C       0.4039   0.0236    0.603     C
Zn     0.40514  0.58738  0.14925    Zn
C       0.4105   0.4181   0.3574     C
O        0.421  0.81733   0.9819     O
O       0.4213  0.76803   0.1489     O
H       0.4215   0.1762   0.3304     H
H       0.4225   0.0114   0.5613     H
C       0.4307  0.47908   0.2909     C
C       0.4311  0.56818   0.6611     C
C       0.4314  0.03427   0.7493     C
H        0.434   0.5151   0.7197     H
O       0.4344  0.02835   0.3447     O
O       0.4355  0.53688   0.2128     O
C       0.4436  0.35786   0.8397     C
C       0.4436  0.77458    0.691     C
C       0.4485   0.7203   0.6009     C
C       0.4503   0.0109   0.2848     C
O       0.4509  0.90205   0.1114     O
C       0.4605  0.01651   0.6885     C
O       0.4606  0.39096   0.8098     O
H       0.4651   0.6176   0.6092     H
H       0.4697   0.0296   0.8069     H
O       0.4709  0.15369   0.8443     O
C        0.472   0.1175   0.8642     C
C       0.4727  0.53196   0.6999     C
H       0.4767   0.7956    0.727     H
H       0.4827   0.7048   0.5742     H
C       0.4909    0.593   0.6339     C
Zn     0.49578  0.21182  0.91495    Zn
C       0.4963  0.75262   0.6503     C
O       0.4975  0.65768   0.0958     O
O       0.5025  0.34232   0.9042     O
C       0.5037  0.24738   0.3497     C
Zn     0.50422  0.78818  0.08505    Zn
C       0.5091    0.407   0.3661     C
H       0.5173   0.2952   0.4258     H
H       0.5233   0.2044    0.273     H
C       0.5273  0.46804   0.3001     C
C        0.528   0.8825   0.1358     C
O       0.5291  0.84631   0.1557     O
H       0.5303   0.9704   0.1931     H
H       0.5349   0.3824   0.3908     H
O       0.5394  0.60904   0.1902     O
C       0.5395  0.98349   0.3115     C
O       0.5491  0.09795   0.8886     O
C       0.5497   0.9891   0.7152     C
C       0.5515   0.2797   0.3991     C
C       0.5564  0.22542    0.309     C
C       0.5564  0.64214   0.1603     C
O       0.5645  0.46312   0.7872     O
O       0.5656  0.97165   0.6553     O
H        0.566   0.4849   0.2803     H
C       0.5686  0.96573   0.2507     C
C       0.5689  0.43182   0.3389     C
C       0.5693  0.52092   0.7091     C
H       0.5775   0.9886   0.4387     H
H       0.5785   0.8238   0.6696     H
O       0.5787  0.23197   0.8511     O
O        0.579  0.18267   0.0181     O
C       0.5895   0.5819   0.6426     C
Zn     0.59486  0.41262  0.85075    Zn
C       0.5961   0.9764    0.397     C
C       0.6003  0.76487   0.6585     C
H       0.6032    0.212   0.1593     H
O       0.6051   0.9866   0.7904     O
C       0.6125  0.48206   0.7503     C
O       0.6162  0.64213   0.5807     O
C       0.6258  0.80511   0.6666     C
C       0.6282  0.54631   0.6803     C
C       0.6289  0.89984   0.1392     C
H       0.6291   0.8687   0.0359     H
O       0.6338  0.79164   0.0389     O
H       0.6422   0.2982   0.8258     H
C       0.6505  0.28891   0.4088     C
O       0.6522  0.77359    0.168     O
C       0.6524  0.61011   0.6114     C
C       0.6532  0.94112   0.2726     C
C       0.6555  0.66149   0.2118     C
H       0.6557   0.7107   0.6501     H
C       0.6562  0.23395   0.3206     C
C       0.6567  0.21911   0.8444     C
C       0.6642  0.16749   0.0577     C
C       0.6642  0.19947   0.1919     C
O       0.6664  0.37144   0.8113     O
Zn     0.66764  0.13506  0.90211    Zn
C       0.6681  0.88584   0.0794     C
H         0.67   0.6931   0.1159     H
H       0.6717   0.6362   0.3252     H
C       0.6721  0.73778   0.6559     C
H       0.6729   0.4494   0.2426     H
C       0.6743  0.42066   0.3479     C
O       0.6745  0.88515   0.6699     O
O       0.6796  0.18327   0.8414     O
C       0.6801  0.95131   0.4211     C
O       0.6805  0.42345   0.9686     O
H       0.6821   0.3111   0.4415     H
C       0.6871   0.9246   0.2056     C
C       0.6894  0.77795   0.1118     C
Zn     0.69052  0.94199  0.67795    Zn
H       0.6942   0.5389   0.6869     H
O        0.695  0.47106   0.7458     O
C       0.7008  0.68797   0.1743     C
C       0.7013  0.65414    0.299     C
C       0.7029  0.26636   0.3716     C
O       0.7041  0.95534   0.5659     O
C        0.707  0.29007   0.8305     C
C       0.7082   0.2072   0.2782     C
C       0.7091  0.17356   0.1531     C
C       0.7094  0.93469   0.3583     C
H       0.7136   0.3889   0.4584     H
C       0.7139  0.43384   0.2883     C
O       0.7142  0.14741   0.0245     O
C       0.7206    0.818   0.6703     C
H       0.7321   0.4189   0.1258     H
C       0.7331  0.24964   0.8383     C
C       0.7369  0.39705    0.416     C
C       0.7389  0.94231   0.5134     C
O       0.7411  0.59758   0.6217     O
C       0.7453  0.86153   0.6764     C
C       0.7547  0.36153   0.8236     C
O       0.7589  0.09758   0.8783     O
C       0.7611  0.44231   0.9866     C
C       0.7631  0.89705    0.084     C
C       0.7669  0.74964   0.6617     C
H       0.7679   0.9189   0.3742     H
C       0.7794    0.318   0.8297     C
O       0.7858  0.64741   0.4755     O
C       0.7861  0.93384   0.2117     C
H       0.7864   0.8889   0.0416     H
C       0.7906  0.43469   0.1417     C
C       0.7909  0.67356   0.3469     C
C       0.7918   0.7072   0.2218     C
C        0.793  0.79007   0.6695     C
O       0.7959  0.45534   0.9341     O
C       0.7971  0.76636   0.1284     C
C       0.7987  0.15414    0.201     C
C       0.7992  0.18797   0.3257     C
O        0.805  0.97106   0.7542     O
H       0.8058   0.0389   0.8131     H
Zn     0.80948  0.44199  0.82205    Zn
C       0.8106  0.27795   0.3882     C
C       0.8129   0.4246   0.2944     C
H       0.8179   0.8111   0.0585     H
O       0.8195  0.92345   0.5314     O
C       0.8199  0.45131   0.0789     C
O       0.8204  0.68327   0.6586     O
O       0.8255  0.38515   0.8301     O
C       0.8257  0.92066   0.1521     C
H       0.8271   0.9494   0.2574     H
C       0.8279  0.23778   0.8441     C
H       0.8283   0.1362   0.1748     H
H         0.83   0.1931   0.3841     H
C       0.8319  0.38584   0.4206     C
Zn     0.83236  0.63506  0.59789    Zn
O       0.8336  0.87144   0.6887     O
C       0.8358  0.66749   0.4423     C
C       0.8358  0.69947   0.3081     C
C       0.8433  0.71911   0.6556     C
C       0.8438  0.73395   0.1794     C
H       0.8443   0.2107   0.8499     H
C       0.8445  0.16149   0.2882     C
C       0.8468  0.44112   0.2274     C
C       0.8476  0.11011   0.8886     C
O       0.8478  0.27359    0.332     O
C       0.8495  0.78891   0.0912     C
H       0.8578   0.7982   0.6742     H
O       0.8662  0.29164   0.4611     O
H       0.8709   0.3687   0.4641     H
C       0.8711  0.39984   0.3608     C
C       0.8718  0.04631   0.8197     C
C       0.8742  0.30511   0.8334     C
O       0.8838  0.14213   0.9193     O
C       0.8875  0.98206   0.7497     C
O       0.8949   0.4866   0.7096     O
H       0.8968    0.712   0.3407     H
C       0.8997  0.26487   0.8415     C
C       0.9039   0.4764    0.103     C
Zn     0.90514  0.91262  0.64925    Zn
C       0.9105   0.0819   0.8574     C
O        0.921  0.68267   0.4819     O
O       0.9213  0.73197   0.6489     O
H       0.9215   0.3238   0.8304     H
H       0.9225   0.4886   0.0613     H
C       0.9307  0.02092   0.7909     C
C       0.9311  0.93182   0.1611     C
C       0.9314  0.46573   0.2493     C
H        0.934   0.9849   0.2197     H
O       0.9344  0.47165   0.8447     O
O       0.9355  0.96312   0.7128     O
C       0.9436  0.14214   0.3397     C
C       0.9436  0.72542    0.191     C
C       0.9485   0.7797   0.1009     C
C       0.9503   0.4891   0.7848     C
O       0.9509  0.59795   0.6114     O
C       0.9605  0.48349   0.1885     C
O       0.9606  0.10904   0.3098     O
H       0.9651   0.8824   0.1092     H
H       0.9697   0.4704   0.3069     H
O       0.9709  0.34631   0.3443     O
C        0.972   0.3825   0.3642     C
C       0.9727  0.96804   0.1999     C
H       0.9767   0.7044    0.227     H
H       0.9827   0.7952   0.0742     H
C       0.9909    0.907   0.1339     C
Zn     0.99578  0.28818  0.41495    Zn
C       0.9963  0.74738   0.1503     C
O       0.9975  0.84232   0.5958     O
