data_I
_chemical_name_common  '/home/zhangsd/repos/MofS-CGCNN/ML/data/SSD/clean_cifs/NUNCEG_clean'
_cell_length_a 13.72500
_cell_length_b 14.07400
_cell_length_c 14.18700
_cell_angle_alpha 114.15000
_cell_angle_beta  114.20000
_cell_angle_gamma 98.24000
_space_group_name_H-M_alt      'P 1'


loop_
_space_group_symop_operation_xyz
  'x, y, z' 

loop_
_atom_site_label
_atom_site_fract_x
_atom_site_fract_y
_atom_site_fract_z
_atom_site_type_symbol
O      0.01805  0.62396  0.38121     O
H       0.0199   0.5213   0.1894     H
Li      0.0356   0.4333   0.5429    Li
H       0.0556   0.2129    0.721     H
O      0.07863   0.0328  0.61576     O
Li      0.0821   0.8255   0.5999    Li
Li      0.0831    0.062    0.497    Li
O      0.08463  0.19591  0.49273     O
O      0.09506  0.59376  0.60421     O
C      0.09525  0.56768  0.21852     C
C      0.10194  0.69919  0.40781     C
H       0.1021   0.4701   0.0709     H
C      0.12383  0.24329  0.79693     C
H       0.1262   0.4017    0.866     H
O      0.13093  0.35924  0.50246     O
C      0.13762  0.05468  0.72255     C
C      0.14504  0.53662  0.14845     C
C      0.14519  0.68146  0.70626     C
O      0.14617  0.80051  0.49402     O
O      0.14772  0.77744   0.7245     O
C       0.1553  0.66642  0.33125     C
C      0.15598  0.28997  0.53235     C
H       0.1577   0.7715   0.9206     H
O      0.16164  0.98305  0.74869     O
C       0.1666   0.3558  0.88305     C
C      0.18045  0.17428  0.82117     C
Li      0.1828   0.9259   0.8528    Li
C       0.1943  0.71869  0.91346     C
C      0.20551   0.6679  0.81335     C
H       0.2252   0.7251   0.0694     H
C      0.23658  0.69241  0.00329     C
H       0.2568     0.23   0.6942     H
C      0.25693  0.60115   0.1897     C
C      0.26603  0.59625   0.8077     C
C      0.26616  0.73248  0.37241     C
C       0.2684  0.40377  0.99523     C
H       0.2756   0.5625   0.7405     H
C      0.27939  0.21876  0.93328     C
C      0.28124  0.32183  0.62068     C
C      0.29549  0.61875  0.99817     C
H       0.3076   0.8007   0.4485     H
C      0.31226  0.57423  0.90013     C
C      0.31372  0.28203  0.69909     C
H       0.3164   0.1713   0.9516     H
C      0.31663  0.69995  0.30388     C
C      0.32397  0.33276  0.01843     C
Si     0.32817  0.56007  0.09972    Si
H       0.3432   0.4252   0.5745     H
H       0.3563    0.528    0.897     H
C      0.36502  0.39584  0.62627     C
H        0.393   0.7453   0.3346     H
H       0.3932   0.3631   0.0936     H
C      0.42979  0.31823  0.78516     C
H       0.4507   0.2932   0.8409     H
H       0.4628   0.5263   0.2931     H
C      0.48037  0.42686  0.70731     C
C      0.48492  0.60959  0.20959     C
C      0.51508  0.39041  0.79041     C
C      0.51963  0.57314  0.29269     C
H       0.5372   0.4737   0.7069     H
H       0.5493   0.7068   0.1591     H
C      0.57021  0.68177  0.21484     C
H       0.6068   0.6369   0.9064     H
H        0.607   0.2547   0.6654     H
C      0.63498  0.60416  0.37373     C
H       0.6437    0.472    0.103     H
H       0.6568   0.5748   0.4255     H
Si     0.67183  0.43993  0.90028    Si
C      0.67603  0.66724  0.98157     C
C      0.68337  0.30005  0.69612     C
H       0.6836   0.8287   0.0484     H
C      0.68628  0.71797  0.30091     C
C      0.68774  0.42577  0.09987     C
H       0.6924   0.1993   0.5515     H
C      0.70451  0.38125  0.00183     C
C      0.71876  0.67817  0.37932     C
C      0.72061  0.78124  0.06672     C
H       0.7244   0.4375   0.2595     H
C       0.7316  0.59623  0.00477     C
C      0.73384  0.26752  0.62759     C
C      0.73397  0.40375   0.1923     C
C      0.74307  0.39885   0.8103     C
H       0.7432     0.77   0.3058     H
C      0.76342  0.30759  0.99671     C
H       0.7748   0.2749   0.9306     H
C      0.79449   0.3321  0.18665     C
C       0.8057  0.28131  0.08654     C
Li      0.8172   0.0741   0.1472    Li
C      0.81955  0.82572  0.17883     C
C       0.8334   0.6442  0.11695     C
O      0.83836  0.01695  0.25131     O
H       0.8423   0.2285   0.0794     H
C      0.84402  0.71003  0.46765     C
C       0.8447  0.33358  0.66875     C
O      0.85228  0.22256   0.2755     O
O      0.85383  0.19949  0.50598     O
C      0.85481  0.31854  0.29374     C
C      0.85496  0.46338  0.85155     C
C      0.86238  0.94532  0.27745     C
O      0.86907  0.64076  0.49754     O
H       0.8738   0.5983    0.134     H
C      0.87617  0.75671  0.20307     C
H       0.8979   0.5299   0.9291     H
C      0.89806  0.30081  0.59219     C
C      0.90475  0.43232  0.78148     C
O      0.90494  0.40624  0.39579     O
O      0.91537  0.80409  0.50727     O
Li      0.9169    0.938    0.503    Li
Li      0.9179   0.1745   0.4001    Li
O      0.92137   0.9672  0.38424     O
H       0.9444   0.7871    0.279     H
Li      0.9644   0.5667   0.4571    Li
H       0.9801   0.4787   0.8106     H
O      0.98195  0.37604  0.61879     O
