data_I
_chemical_name_common  '/home/zhangsd/repos/MofS-CGCNN/ML/data/SSD/clean_cifs/NUNPAP_clean'
_cell_length_a 11.19180
_cell_length_b 11.19180
_cell_length_c 31.56100
_cell_angle_alpha 90.00000
_cell_angle_beta  90.00000
_cell_angle_gamma 90.00000
_space_group_name_H-M_alt      'P 1'


loop_
_space_group_symop_operation_xyz
  'x, y, z' 

loop_
_atom_site_label
_atom_site_fract_x
_atom_site_fract_y
_atom_site_fract_z
_atom_site_type_symbol
C        0.005   0.9865    0.406     C
H       0.0119   0.8241   0.1147     H
C       0.0135    0.995    0.094     C
C       0.0223   0.1832  0.84225     C
C       0.0249   0.0777  0.44023     C
H       0.0315   0.2407   0.8212     H
H       0.0412   0.1723   0.0849     H
C       0.0464   0.8985  0.11942     C
O      0.06167  0.85711   0.9519     O
C       0.0646   0.1068  0.10104     C
C       0.0777   0.0249  0.55977     C
O      0.08475  0.12941  0.54521     O
C       0.0881   0.8699  0.34828     C
O      0.09362  0.71579  0.17613     O
C       0.1015   0.9536  0.38058     C
C       0.1068   0.0646  0.89896     C
C       0.1199   0.1516  0.86729     C
O      0.12941  0.08475  0.45479     O
C       0.1301   0.9119  0.15172     C
O      0.14289  0.93833   0.5481     O
C       0.1516   0.1199  0.13271     C
C        0.158   0.8071  0.18004     C
O      0.17202     0.68  0.86923     O
H       0.1723   0.0412   0.9151     H
H       0.1759   0.9881   0.3853     H
O      0.17939  0.75767  0.29382     O
O         0.18  0.32798  0.11923     O
C       0.1832   0.0223  0.15775     C
C       0.1929    0.842  0.31996     C
Ni     0.19934  0.19934      0.5    Ni
C        0.207   0.2409  0.13934     C
O       0.2108   0.7395  0.58064     O
O      0.21579  0.40638  0.42613     O
O       0.2395   0.2892  0.83064     O
H       0.2407   0.0315   0.1788     H
C       0.2409    0.207  0.86066     C
O      0.24233  0.82061  0.20618     O
O      0.25767  0.32061  0.54382     O
C       0.2591    0.707  0.88934     C
H       0.2593   0.5315   0.5712     H
O       0.2605   0.7892  0.91936     O
O      0.28421  0.90638  0.32387     O
O       0.2892   0.2395  0.16936     O
C        0.293   0.7409  0.61066     C
Ni     0.30066  0.69934     0.25    Ni
C       0.3071    0.342  0.43004     C
C       0.3168   0.5223  0.59225     C
O         0.32  0.82798  0.63077     O
O      0.32061  0.25767  0.45618     O
H       0.3241   0.4881   0.3647     H
H       0.3277   0.5412   0.8349     H
O      0.32798     0.18  0.88077     O
C        0.342   0.3071  0.56996     C
C       0.3484   0.6199  0.61729     C
O      0.35711  0.43833   0.2019     O
C       0.3699   0.4119  0.59828     C
O      0.37059  0.58475  0.29521     O
C       0.3801   0.6516  0.88271     C
C       0.3932   0.5646  0.85104     C
C       0.3985   0.4536  0.36942     C
O      0.40638  0.21579  0.57387     O
C       0.4119   0.3699  0.40172     C
O      0.41525  0.62941  0.20479     O
C       0.4223   0.5249  0.19023     C
C       0.4354   0.6068  0.64896     C
O      0.43833  0.35711   0.7981     O
C       0.4536   0.3985  0.63058     C
H       0.4588   0.6723   0.6651     H
H       0.4685   0.7407   0.9288     H
C       0.4751   0.5777  0.30977     C
C       0.4777   0.6832  0.90775     C
C       0.4865    0.495    0.656     C
H       0.4881   0.3241   0.6353     H
C        0.495   0.4865    0.344     C
C        0.505   0.5135    0.844     C
H       0.5119   0.6759   0.1353     H
C       0.5135    0.505    0.156     C
C       0.5223   0.3168  0.40775     C
C       0.5249   0.4223  0.80977     C
H       0.5315   0.2593   0.4288     H
H       0.5412   0.3277   0.1651     H
C       0.5464   0.6015  0.13058     C
O      0.56167  0.64289   0.2981     O
C       0.5646   0.3932  0.14896     C
C       0.5777   0.4751  0.69023     C
O      0.58475  0.37059  0.70479     O
C       0.5881   0.6301  0.90172     C
O      0.59362  0.78421  0.07387     O
C       0.6015   0.5464  0.86942     C
C       0.6068   0.4354  0.35104     C
C       0.6199   0.3484  0.38271     C
O      0.62941  0.41525  0.79521     O
C       0.6301   0.5881  0.09828     C
O      0.64289  0.56167   0.7019     O
C       0.6516   0.3801  0.11729     C
C        0.658   0.6929  0.06996     C
O      0.67202     0.82  0.38077     O
H       0.6723   0.4588   0.3349     H
H       0.6759   0.5119   0.8647     H
O      0.67939  0.74233  0.95618     O
O         0.68  0.17202  0.13077     O
C       0.6832   0.4777  0.09225     C
C       0.6929    0.658  0.93004     C
Ni     0.69934  0.30066     0.75    Ni
C        0.707   0.2591  0.11066     C
O       0.7108   0.7605  0.66936     O
O      0.71579  0.09362  0.82387     O
O       0.7395   0.2108  0.41936     O
H       0.7407   0.4685   0.0712     H
C       0.7409    0.293  0.38934     C
O      0.74233  0.67939  0.04382     O
O      0.75767  0.17939  0.70618     O
C       0.7591    0.793  0.36066     C
H       0.7593   0.9685   0.6788     H
O       0.7605   0.7108  0.33064     O
O      0.78421  0.59362  0.92613     O
O       0.7892   0.2605  0.08064     O
C        0.793   0.7591  0.63934     C
Ni     0.80066  0.80066      0.0    Ni
C       0.8071    0.158  0.81996     C
C       0.8168   0.9777  0.65775     C
O         0.82  0.67202  0.61923     O
O      0.82061  0.24233  0.79382     O
H       0.8241   0.0119   0.8853     H
H       0.8277   0.9588   0.4151     H
O      0.82798     0.32  0.36923     O
C        0.842   0.1929  0.68004     C
C       0.8484   0.8801  0.63271     C
O      0.85711  0.06167   0.0481     O
C       0.8699   0.0881  0.65172     C
O      0.87059  0.91525  0.95479     O
C       0.8801   0.8484  0.36729     C
C       0.8932   0.9354  0.39896     C
C       0.8985   0.0464  0.88058     C
O      0.90638  0.28421  0.67613     O
C       0.9119   0.1301  0.84828     C
O      0.91525  0.87059  0.04521     O
C       0.9223   0.9751  0.05977     C
C       0.9354   0.8932  0.60104     C
O      0.93833  0.14289   0.4519     O
C       0.9536   0.1015  0.61942     C
H       0.9588   0.8277   0.5849     H
H       0.9685   0.7593   0.3212     H
C       0.9751   0.9223  0.94023     C
C       0.9777   0.8168  0.34225     C
C       0.9865    0.005    0.594     C
H       0.9881   0.1759   0.6147     H
C        0.995   0.0135    0.906     C
