data_I
_chemical_name_common  '/home/zhangsd/repos/MofS-CGCNN/ML/data/SSD/clean_cifs/NUNTOH_clean'
_cell_length_a 12.91450
_cell_length_b 12.91450
_cell_length_c  9.84820
_cell_angle_alpha 90.00000
_cell_angle_beta  90.00000
_cell_angle_gamma 90.00000
_space_group_name_H-M_alt      'P 1'


loop_
_space_group_symop_operation_xyz
  'x, y, z' 

loop_
_atom_site_label
_atom_site_fract_x
_atom_site_fract_y
_atom_site_fract_z
_atom_site_type_symbol
O       0.0428   0.1543   0.2146     O
Co      0.0548  0.86381  0.86882    Co
P      0.07235  0.82414   0.1837     P
O       0.0817   0.1381   0.7859     O
O       0.0857   0.7894   0.0369     O
F       0.1046   0.7363   0.2802     F
O       0.1095   0.7451   0.7495     O
O       0.1111   0.6117   0.9301     O
O       0.1117   0.6111   0.5699     O
P       0.1348   0.6348     0.75     P
Co     0.13619   0.0548  0.13118    Co
O       0.1381   0.9183   0.2141     O
O       0.1543   0.9572   0.7854     O
P      0.17586  0.07235   0.8163     P
O       0.2106   0.0857   0.9631     O
F       0.2363   0.6046   0.2198     F
O       0.2451   0.6095   0.7505     O
O       0.2549   0.1095   0.2505     O
F       0.2637   0.1046   0.7198     F
O       0.2894   0.5857   0.4631     O
P      0.32414  0.57235   0.3163     P
O       0.3457   0.4572   0.2854     O
O       0.3619   0.4183   0.7141     O
Co     0.36381   0.5548  0.63118    Co
P       0.3652   0.1348     0.25     P
O       0.3883   0.1111   0.0699     O
O       0.3889   0.1117   0.4301     O
O       0.3905   0.2451   0.2495     O
F       0.3954   0.2363   0.7802     F
O       0.4143   0.2894   0.5369     O
O       0.4183   0.6381   0.2859     O
P      0.42765  0.32414   0.6837     P
Co      0.4452  0.36381  0.36882    Co
O       0.4572   0.6543   0.7146     O
O       0.5428   0.3457   0.7146     O
Co      0.5548  0.63619  0.36882    Co
P      0.57235  0.67586   0.6837     P
O       0.5817   0.3619   0.2859     O
O       0.5857   0.7106   0.5369     O
F       0.6046   0.7637   0.7802     F
O       0.6095   0.7549   0.2495     O
O       0.6111   0.8883   0.4301     O
O       0.6117   0.8889   0.0699     O
P       0.6348   0.8652     0.25     P
Co     0.63619   0.4452  0.63118    Co
O       0.6381   0.5817   0.7141     O
O       0.6543   0.5428   0.2854     O
P      0.67586  0.42765   0.3163     P
O       0.7106   0.4143   0.4631     O
F       0.7363   0.8954   0.7198     F
O       0.7451   0.8905   0.2505     O
O       0.7549   0.3905   0.7505     O
F       0.7637   0.3954   0.2198     F
O       0.7894   0.9143   0.9631     O
P      0.82414  0.92765   0.8163     P
O       0.8457   0.0428   0.7854     O
O       0.8619   0.0817   0.2141     O
Co     0.86381   0.9452  0.13118    Co
P       0.8652   0.3652     0.75     P
O       0.8883   0.3889   0.5699     O
O       0.8889   0.3883   0.9301     O
O       0.8905   0.2549   0.7495     O
F       0.8954   0.2637   0.2802     F
O       0.9143   0.2106   0.0369     O
O       0.9183   0.8619   0.7859     O
P      0.92765  0.17586   0.1837     P
Co      0.9452  0.13619  0.86882    Co
O       0.9572   0.8457   0.2146     O
