data_I
_chemical_name_common  '/home/zhangsd/repos/MofS-CGCNN/ML/data/SSD/clean_cifs/NUNWIE_clean'
_cell_length_a 14.87370
_cell_length_b  9.68150
_cell_length_c 13.63540
_cell_angle_alpha 90.00000
_cell_angle_beta  90.00000
_cell_angle_gamma 90.00000
_space_group_name_H-M_alt      'P 1'


loop_
_space_group_symop_operation_xyz
  'x, y, z' 

loop_
_atom_site_label
_atom_site_fract_x
_atom_site_fract_y
_atom_site_fract_z
_atom_site_type_symbol
F          0.0   0.1296   0.5177     F
F          0.0   0.1296   0.9823     F
P          0.0    0.226  0.07326     P
P          0.0    0.226  0.42674     P
O          0.0   0.3757   0.0351     O
O          0.0   0.3757   0.4649     O
Co         0.0   0.4488  0.61241    Co
Co         0.0   0.4488  0.88759    Co
Co         0.0   0.5512  0.11241    Co
Co         0.0   0.5512  0.38759    Co
O          0.0   0.6243   0.5351     O
O          0.0   0.6243   0.9649     O
P          0.0    0.774  0.57326     P
P          0.0    0.774  0.92674     P
F          0.0   0.8704   0.0177     F
F          0.0   0.8704   0.4823     F
O       0.0855    0.196   0.1314     O
O       0.0855    0.196   0.3686     O
O       0.0855    0.804   0.6314     O
O       0.0855    0.804   0.8686     O
O        0.107   0.3533    0.657     O
O        0.107   0.3533    0.843     O
O        0.107   0.6467    0.157     O
O        0.107   0.6467    0.343     O
Co     0.12968  0.29072     0.25    Co
Co     0.12968  0.70928     0.75    Co
P      0.16173  0.38156     0.75     P
P      0.16173  0.61844     0.25     P
O        0.194   0.4671     0.25     O
O        0.194   0.5329     0.75     O
O        0.243   0.2874     0.75     O
O        0.243   0.7126     0.25     O
O        0.257   0.2126     0.25     O
O        0.257   0.7874     0.75     O
O        0.306   0.0329     0.75     O
O        0.306   0.9671     0.25     O
P      0.33827  0.11844     0.25     P
P      0.33827  0.88156     0.75     P
Co     0.37032  0.20928     0.75    Co
Co     0.37032  0.79072     0.25    Co
O        0.393   0.1467    0.157     O
O        0.393   0.1467    0.343     O
O        0.393   0.8533    0.657     O
O        0.393   0.8533    0.843     O
O       0.4145    0.304   0.6314     O
O       0.4145    0.304   0.8686     O
O       0.4145    0.696   0.1314     O
O       0.4145    0.696   0.3686     O
Co         0.5   0.0512  0.11241    Co
Co         0.5   0.0512  0.38759    Co
O          0.5   0.1243   0.5351     O
O          0.5   0.1243   0.9649     O
P          0.5    0.274  0.57326     P
P          0.5    0.274  0.92674     P
F          0.5   0.3704   0.0177     F
F          0.5   0.3704   0.4823     F
F          0.5   0.6296   0.5177     F
F          0.5   0.6296   0.9823     F
P          0.5    0.726  0.07326     P
P          0.5    0.726  0.42674     P
O          0.5   0.8757   0.0351     O
O          0.5   0.8757   0.4649     O
Co         0.5   0.9488  0.61241    Co
Co         0.5   0.9488  0.88759    Co
O       0.5855    0.304   0.6314     O
O       0.5855    0.304   0.8686     O
O       0.5855    0.696   0.1314     O
O       0.5855    0.696   0.3686     O
O        0.607   0.1467    0.157     O
O        0.607   0.1467    0.343     O
O        0.607   0.8533    0.657     O
O        0.607   0.8533    0.843     O
Co     0.62968  0.20928     0.75    Co
Co     0.62968  0.79072     0.25    Co
P      0.66173  0.11844     0.25     P
P      0.66173  0.88156     0.75     P
O        0.694   0.0329     0.75     O
O        0.694   0.9671     0.25     O
O        0.743   0.2126     0.25     O
O        0.743   0.7874     0.75     O
O        0.757   0.2874     0.75     O
O        0.757   0.7126     0.25     O
O        0.806   0.4671     0.25     O
O        0.806   0.5329     0.75     O
P      0.83827  0.38156     0.75     P
P      0.83827  0.61844     0.25     P
Co     0.87032  0.29072     0.25    Co
Co     0.87032  0.70928     0.75    Co
O        0.893   0.3533    0.657     O
O        0.893   0.3533    0.843     O
O        0.893   0.6467    0.157     O
O        0.893   0.6467    0.343     O
O       0.9145    0.196   0.1314     O
O       0.9145    0.196   0.3686     O
O       0.9145    0.804   0.6314     O
O       0.9145    0.804   0.8686     O
