data_I
_chemical_name_common  '/home/zhangsd/repos/MofS-CGCNN/ML/data/SSD/clean_cifs/NUYQUU_clean'
_cell_length_a 10.48800
_cell_length_b 10.21200
_cell_length_c 11.27300
_cell_angle_alpha 90.00000
_cell_angle_beta  92.89000
_cell_angle_gamma 90.00000
_space_group_name_H-M_alt      'P 1'


loop_
_space_group_symop_operation_xyz
  'x, y, z' 

loop_
_atom_site_label
_atom_site_fract_x
_atom_site_fract_y
_atom_site_fract_z
_atom_site_type_symbol
S      0.10161  0.35299  0.43584     S
S      0.10161  0.64701  0.93584     S
Cd      0.1341  0.36379   0.1066    Cd
Cd      0.1341  0.63621   0.6066    Cd
C       0.1662   0.4887   0.3676     C
C       0.1662   0.5113   0.8676     C
N       0.1893   0.4995   0.7507     N
N       0.1893   0.5005   0.2507     N
N       0.2091   0.4066   0.9288     N
N       0.2091   0.5934   0.4288     N
H       0.2226   0.1516   0.3258     H
H       0.2226   0.8484   0.8258     H
N       0.2366   0.1759   0.1519     N
N       0.2366   0.8241   0.6519     N
C       0.2491   0.3833   0.7444     C
C       0.2491   0.6167   0.2444     C
C       0.2509   0.1167   0.2556     C
C       0.2509   0.8833   0.7556     C
N       0.2634   0.3241   0.8481     N
N       0.2634   0.6759   0.3481     N
H       0.2774   0.3484   0.6742     H
H       0.2774   0.6516   0.1742     H
N       0.2909   0.0934   0.0712     N
N       0.2909   0.9066   0.5712     N
N       0.3107   0.0005   0.2493     N
N       0.3107   0.9995   0.7493     N
C       0.3338   0.0113   0.6324     C
C       0.3338   0.9887   0.1324     C
Cd      0.3659  0.13621   0.8934    Cd
Cd      0.3659  0.86379   0.3934    Cd
S      0.39839  0.14701  0.56416     S
S      0.39839  0.85299  0.06416     S
S      0.60161  0.14701  0.93584     S
S      0.60161  0.85299  0.43584     S
Cd      0.6341  0.13621   0.6066    Cd
Cd      0.6341  0.86379   0.1066    Cd
C       0.6662   0.0113   0.8676     C
C       0.6662   0.9887   0.3676     C
N       0.6893   0.0005   0.2507     N
N       0.6893   0.9995   0.7507     N
N       0.7091   0.0934   0.4288     N
N       0.7091   0.9066   0.9288     N
H       0.7226   0.3484   0.8258     H
H       0.7226   0.6516   0.3258     H
N       0.7366   0.3241   0.6519     N
N       0.7366   0.6759   0.1519     N
C       0.7491   0.1167   0.2444     C
C       0.7491   0.8833   0.7444     C
C       0.7509   0.3833   0.7556     C
C       0.7509   0.6167   0.2556     C
N       0.7634   0.1759   0.3481     N
N       0.7634   0.8241   0.8481     N
H       0.7774   0.1516   0.1742     H
H       0.7774   0.8484   0.6742     H
N       0.7909   0.4066   0.5712     N
N       0.7909   0.5934   0.0712     N
N       0.8107   0.4995   0.7493     N
N       0.8107   0.5005   0.2493     N
C       0.8338   0.4887   0.1324     C
C       0.8338   0.5113   0.6324     C
Cd      0.8659  0.36379   0.3934    Cd
Cd      0.8659  0.63621   0.8934    Cd
S      0.89839  0.35299  0.06416     S
S      0.89839  0.64701  0.56416     S
