data_I
_chemical_name_common  '/home/zhangsd/repos/MofS-CGCNN/ML/data/SSD/clean_cifs/OBEDEE_clean'
_cell_length_a 10.23000
_cell_length_b 11.83900
_cell_length_c 26.07100
_cell_angle_alpha 90.00000
_cell_angle_beta  90.58900
_cell_angle_gamma 90.00000
_space_group_name_H-M_alt      'P 1'


loop_
_space_group_symop_operation_xyz
  'x, y, z' 

loop_
_atom_site_label
_atom_site_fract_x
_atom_site_fract_y
_atom_site_fract_z
_atom_site_type_symbol
C       0.0014   0.4966    0.818     C
C       0.0072   0.6792   0.6371     C
C       0.0106   0.2326   0.1121     C
H       0.0191   0.3797   0.2895     H
C       0.0301     0.67    0.691     C
H        0.036   0.3316    0.704     H
C       0.0427   0.4066   0.1581     C
C       0.0427   0.6714   0.8619     C
N       0.0539   0.1568    0.091     N
H       0.0564    0.278   0.8175     H
H       0.0589   0.5539   0.1959     H
H       0.0655   0.3866   0.6203     H
H        0.067   0.7639   0.5746     H
O       0.0787   0.2848   0.7878     O
C       0.0817   0.7556   0.6097     C
C       0.0881   0.3898   0.3887     C
H       0.0937   0.0326   0.8411     H
C       0.1107   0.3715    0.695     C
H       0.1233   0.9749   0.7564     H
C       0.1251    0.735   0.7138     C
C       0.1279   0.4048   0.6452     C
H       0.1322   0.3943   0.1554     H
C       0.1356   0.4731   0.8142     C
H         0.14   0.7286   0.7489     H
N       0.1561   0.4542   0.4077     N
Ag     0.15859  0.03042  0.04478    Ag
C       0.1679   0.9922    0.832     C
C       0.1762   0.6537   0.8581     C
C       0.1782   0.8202   0.6338     C
C       0.1814   0.3668   0.7891     C
C        0.186   0.9572   0.7812     C
H       0.1897   0.0454   0.6689     H
C        0.199   0.8097   0.6857     C
C       0.2051   0.3973   0.7324     C
C       0.2207   0.5562   0.8341     C
N       0.2277   0.0252  0.96321     N
H       0.2283   0.8703   0.6148     H
H       0.2352   0.7062   0.8713     H
C       0.2374   0.4652   0.6318     C
C       0.2437   0.9998   0.9213     C
C       0.2563   0.4998   0.5787     C
C       0.2626   0.9652   0.8682     C
H       0.2648   0.2062   0.6287     H
H       0.2717   0.3703   0.8852     H
N       0.2723   0.5252  0.53679     N
C       0.2793   0.0562   0.6659     C
C       0.2949   0.8973   0.7676     C
C        0.301   0.3097   0.8143     C
H       0.3103   0.5454   0.8311     H
C        0.314   0.4572   0.7188     C
C       0.3186   0.8668   0.7109     C
C       0.3218   0.3202   0.8662     C
C       0.3238   0.1537   0.6419     C
C       0.3321   0.4922    0.668     C
Ag     0.34141  0.53042  0.45522    Ag
N       0.3439   0.9542   0.0923     N
H         0.36   0.2286   0.7511     H
C       0.3644   0.9731   0.6858     C
H       0.3678   0.8943   0.3446     H
C       0.3721   0.9048   0.8548     C
C       0.3749    0.235   0.7862     C
H       0.3767   0.4749   0.7436     H
C       0.3893   0.8715    0.805     C
H       0.4063   0.5326   0.6589     H
C       0.4119   0.8898   0.1113     C
C       0.4183   0.2556   0.8903     C
O       0.4213   0.7848   0.7122     O
H        0.433   0.2639   0.9254     H
H       0.4345   0.8866   0.8797     H
H       0.4411   0.0539   0.3041     H
H       0.4436    0.778   0.6825     H
N       0.4461   0.6568    0.409     N
C       0.4573   0.1714   0.6381     C
C       0.4573   0.9066   0.3419     C
H        0.464   0.8316    0.796     H
C       0.4699     0.17    0.809     C
H       0.4809   0.8797   0.2105     H
C       0.4894   0.7326   0.3879     C
C       0.4928   0.1792   0.8629     C
C       0.4986   0.9966    0.682     C
C       0.5014   0.0034    0.318     C
C       0.5072   0.8208   0.1371     C
C       0.5106   0.2674   0.6121     C
H       0.5191   0.1203   0.7895     H
C       0.5301     0.83    0.191     C
H        0.536   0.1684    0.204     H
C       0.5427   0.0934   0.6581     C
C       0.5427   0.8286   0.3619     C
N       0.5539   0.3432    0.591     N
H       0.5564    0.222   0.3175     H
H       0.5589   0.9461   0.6959     H
H       0.5655   0.1134   0.1203     H
H        0.567   0.7361   0.0746     H
O       0.5787   0.2152   0.2878     O
C       0.5817   0.7444   0.1097     C
C       0.5881   0.1102   0.8887     C
H       0.5937   0.4674   0.3411     H
C       0.6107   0.1285    0.195     C
H       0.6233   0.5251   0.2564     H
C       0.6251    0.765   0.2138     C
C       0.6279   0.0952   0.1452     C
H       0.6322   0.1057   0.6554     H
C       0.6356   0.0269   0.3142     C
H         0.64   0.7714   0.2489     H
N       0.6561   0.0458   0.9077     N
Ag     0.65859  0.46958  0.54478    Ag
C       0.6679   0.5078    0.332     C
C       0.6762   0.8463   0.3581     C
C       0.6782   0.6798   0.1338     C
C       0.6814   0.1332   0.2891     C
C        0.686   0.5428   0.2812     C
H       0.6897   0.4546   0.1689     H
C        0.699   0.6903   0.1857     C
C       0.7051   0.1027   0.2324     C
C       0.7207   0.9438   0.3341     C
N       0.7277   0.4748  0.46321     N
H       0.7283   0.6297   0.1148     H
H       0.7352   0.7938   0.3713     H
C       0.7374   0.0348   0.1318     C
C       0.7437   0.5002   0.4213     C
C       0.7563   0.0002   0.0787     C
C       0.7626   0.5348   0.3682     C
H       0.7648   0.2938   0.1287     H
H       0.7717   0.1297   0.3852     H
N       0.7723   0.9748  0.03679     N
C       0.7793   0.4438   0.1659     C
C       0.7949   0.6027   0.2676     C
C        0.801   0.1903   0.3143     C
H       0.8103   0.9546   0.3311     H
C        0.814   0.0428   0.2188     C
C       0.8186   0.6332   0.2109     C
C       0.8218   0.1798   0.3662     C
C       0.8238   0.3463   0.1419     C
C       0.8321   0.0078    0.168     C
Ag     0.84141  0.96958  0.95522    Ag
N       0.8439   0.5458   0.5923     N
H         0.86   0.2714   0.2511     H
C       0.8644   0.5269   0.1858     C
H       0.8678   0.6057   0.8446     H
C       0.8721   0.5952   0.3548     C
C       0.8749    0.265   0.2862     C
H       0.8767   0.0251   0.2436     H
C       0.8893   0.6285    0.305     C
H       0.9063   0.9674   0.1589     H
C       0.9119   0.6102   0.6113     C
C       0.9183   0.2444   0.3903     C
O       0.9213   0.7152   0.2122     O
H        0.933   0.2361   0.4254     H
H       0.9345   0.6134   0.3797     H
H       0.9411   0.4461   0.8041     H
H       0.9436    0.722   0.1825     H
N       0.9461   0.8432    0.909     N
C       0.9573   0.3286   0.1381     C
C       0.9573   0.5934   0.8419     C
H        0.964   0.6684    0.296     H
C       0.9699     0.33    0.309     C
H       0.9809   0.6203   0.7105     H
C       0.9894   0.7674   0.8879     C
C       0.9928   0.3208   0.3629     C
C       0.9986   0.5034    0.182     C
