data_I
_chemical_name_common  '/home/zhangsd/repos/MofS-CGCNN/ML/data/SSD/clean_cifs/OCUQIN_clean'
_cell_length_a 15.55270
_cell_length_b 10.08410
_cell_length_c 18.78130
_cell_angle_alpha 90.00000
_cell_angle_beta  104.42300
_cell_angle_gamma 90.00000
_space_group_name_H-M_alt      'P 1'


loop_
_space_group_symop_operation_xyz
  'x, y, z' 

loop_
_atom_site_label
_atom_site_fract_x
_atom_site_fract_y
_atom_site_fract_z
_atom_site_type_symbol
H       0.0096    0.101   0.3321     H
H       0.0096    0.899   0.8321     H
C       0.0173   0.1551  0.37729     C
C       0.0173   0.8449  0.87729     C
H       0.0182   0.0945   0.4189     H
H       0.0182   0.9055   0.9189     H
H       0.0545   0.3201   0.1681     H
H       0.0545   0.6799   0.6681     H
H       0.0549   0.2979    0.084     H
H       0.0549   0.7021    0.584     H
C      0.06012    0.252  0.13152     C
C      0.06012    0.748  0.63152     C
C      0.10549  0.23119  0.39149     C
C      0.10549  0.76881  0.89149     C
H       0.1065   0.2987     0.43     H
H       0.1065   0.7013     0.93     H
H       0.1084   0.2784    0.346     H
H       0.1084   0.7216    0.846     H
P      0.16855  0.18035  0.15966     P
P      0.16855  0.81965  0.65966     P
V      0.16899  0.10983   0.5857     V
V      0.16899  0.89017   0.0857     V
O      0.17511  0.11553   0.2345     O
O      0.17511  0.88447   0.7345     O
O      0.18326  0.08138  0.10226     O
O      0.18326  0.91862  0.60226     O
O      0.19472  0.01211  0.36587     O
O      0.19472  0.98789  0.86587     O
P      0.20151  0.12821  0.41982     P
P      0.20151  0.87179  0.91982     P
O      0.20246   0.0665  0.49461     O
O      0.20246   0.9335  0.99461     O
O      0.21634  0.28922  0.57836     O
O      0.21634  0.71078  0.07836     O
O      0.21641  0.13252  0.69255     O
O      0.21641  0.86748  0.19255     O
H        0.227    0.199   0.7003     H
H        0.227    0.801   0.2003     H
O      0.23545  0.29342  0.16521     O
O      0.23545  0.70658  0.66521     O
V      0.24928  0.03062  0.78488     V
V      0.24928  0.96938  0.28488     V
V      0.25072  0.46938  0.21512     V
V      0.25072  0.53062  0.71512     V
O      0.26455  0.20658  0.83479     O
O      0.26455  0.79342  0.33479     O
H        0.273    0.301   0.2997     H
H        0.273    0.699   0.7997     H
O      0.28359  0.36748  0.30745     O
O      0.28359  0.63252  0.80745     O
O      0.28366  0.21078  0.42164     O
O      0.28366  0.78922  0.92164     O
O      0.29754   0.4335  0.50539     O
O      0.29754   0.5665  0.00539     O
P      0.29849  0.37179  0.58018     P
P      0.29849  0.62821  0.08018     P
O      0.30528  0.48789  0.63413     O
O      0.30528  0.51211  0.13413     O
O      0.31674  0.41862  0.89774     O
O      0.31674  0.58138  0.39774     O
O      0.32489  0.38447   0.7655     O
O      0.32489  0.61553   0.2655     O
V      0.33101  0.39017   0.4143     V
V      0.33101  0.60983   0.9143     V
P      0.33145  0.31965  0.84034     P
P      0.33145  0.68035  0.34034     P
H       0.3916   0.2216    0.654     H
H       0.3916   0.7784    0.154     H
H       0.3935   0.2013     0.57     H
H       0.3935   0.7987     0.07     H
C      0.39451  0.26881  0.60851     C
C      0.39451  0.73119  0.10851     C
C      0.43988    0.248  0.86848     C
C      0.43988    0.752  0.36848     C
H       0.4451   0.2021    0.916     H
H       0.4451   0.7979    0.416     H
H       0.4455   0.1799   0.8319     H
H       0.4455   0.8201   0.3319     H
H       0.4818   0.4055   0.5811     H
H       0.4818   0.5945   0.0811     H
C       0.4827   0.3449  0.62271     C
C       0.4827   0.6551  0.12271     C
H       0.4904    0.399   0.6679     H
H       0.4904    0.601   0.1679     H
H       0.5096    0.399   0.8321     H
H       0.5096    0.601   0.3321     H
C       0.5173   0.3449  0.87729     C
C       0.5173   0.6551  0.37729     C
H       0.5182   0.4055   0.9189     H
H       0.5182   0.5945   0.4189     H
H       0.5545   0.1799   0.6681     H
H       0.5545   0.8201   0.1681     H
H       0.5549   0.2021    0.584     H
H       0.5549   0.7979    0.084     H
C      0.56012    0.248  0.63152     C
C      0.56012    0.752  0.13152     C
C      0.60549  0.26881  0.89149     C
C      0.60549  0.73119  0.39149     C
H       0.6065   0.2013     0.93     H
H       0.6065   0.7987     0.43     H
H       0.6084   0.2216    0.846     H
H       0.6084   0.7784    0.346     H
P      0.66855  0.31965  0.65966     P
P      0.66855  0.68035  0.15966     P
V      0.66899  0.39017   0.0857     V
V      0.66899  0.60983   0.5857     V
O      0.67511  0.38447   0.7345     O
O      0.67511  0.61553   0.2345     O
O      0.68326  0.41862  0.60226     O
O      0.68326  0.58138  0.10226     O
O      0.69472  0.48789  0.86587     O
O      0.69472  0.51211  0.36587     O
P      0.70151  0.37179  0.91982     P
P      0.70151  0.62821  0.41982     P
O      0.70246   0.4335  0.99461     O
O      0.70246   0.5665  0.49461     O
O      0.71634  0.21078  0.07836     O
O      0.71634  0.78922  0.57836     O
O      0.71641  0.36748  0.19255     O
O      0.71641  0.63252  0.69255     O
H        0.727    0.301   0.2003     H
H        0.727    0.699   0.7003     H
O      0.73545  0.20658  0.66521     O
O      0.73545  0.79342  0.16521     O
V      0.74928  0.46938  0.28488     V
V      0.74928  0.53062  0.78488     V
V      0.75072  0.03062  0.71512     V
V      0.75072  0.96938  0.21512     V
O      0.76455  0.29342  0.33479     O
O      0.76455  0.70658  0.83479     O
H        0.773    0.199   0.7997     H
H        0.773    0.801   0.2997     H
O      0.78359  0.13252  0.80745     O
O      0.78359  0.86748  0.30745     O
O      0.78366  0.28922  0.92164     O
O      0.78366  0.71078  0.42164     O
O      0.79754   0.0665  0.00539     O
O      0.79754   0.9335  0.50539     O
P      0.79849  0.12821  0.08018     P
P      0.79849  0.87179  0.58018     P
O      0.80528  0.01211  0.13413     O
O      0.80528  0.98789  0.63413     O
O      0.81674  0.08138  0.39774     O
O      0.81674  0.91862  0.89774     O
O      0.82489  0.11553   0.2655     O
O      0.82489  0.88447   0.7655     O
V      0.83101  0.10983   0.9143     V
V      0.83101  0.89017   0.4143     V
P      0.83145  0.18035  0.34034     P
P      0.83145  0.81965  0.84034     P
H       0.8916   0.2784    0.154     H
H       0.8916   0.7216    0.654     H
H       0.8935   0.2987     0.07     H
H       0.8935   0.7013     0.57     H
C      0.89451  0.23119  0.10851     C
C      0.89451  0.76881  0.60851     C
C      0.93988    0.252  0.36848     C
C      0.93988    0.748  0.86848     C
H       0.9451   0.2979    0.416     H
H       0.9451   0.7021    0.916     H
H       0.9455   0.3201   0.3319     H
H       0.9455   0.6799   0.8319     H
H       0.9818   0.0945   0.0811     H
H       0.9818   0.9055   0.5811     H
C       0.9827   0.1551  0.12271     C
C       0.9827   0.8449  0.62271     C
H       0.9904    0.101   0.1679     H
H       0.9904    0.899   0.6679     H
