data_I
_chemical_name_common  '/home/zhangsd/repos/MofS-CGCNN/ML/data/SSD/clean_cifs/OCUQUZ_clean'
_cell_length_a 15.71200
_cell_length_b 10.03000
_cell_length_c 18.65600
_cell_angle_alpha 90.00000
_cell_angle_beta  103.32800
_cell_angle_gamma 90.00000
_space_group_name_H-M_alt      'P 1'


loop_
_space_group_symop_operation_xyz
  'x, y, z' 

loop_
_atom_site_label
_atom_site_fract_x
_atom_site_fract_y
_atom_site_fract_z
_atom_site_type_symbol
H       0.0184   0.0956   0.8282     H
H       0.0184   0.9044   0.3282     H
H       0.0226   0.0929    0.913     H
H       0.0226   0.9071    0.413     H
C        0.024   0.1508   0.8717     C
C        0.024   0.8492   0.3717     C
H       0.0479   0.2995   0.5949     H
H       0.0479   0.7005   0.0949     H
H       0.0481   0.3097   0.6786     H
H       0.0481   0.6903   0.1786     H
C       0.0528    0.248   0.6397     C
C       0.0528    0.752   0.1397     C
H       0.1112   0.2957   0.9218     H
H       0.1112   0.7043   0.4218     H
C       0.1122   0.2251   0.8865     C
C       0.1122   0.7749   0.3865     C
H       0.1185   0.2665   0.8411     H
H       0.1185   0.7335   0.3411     H
P      0.15956  0.17215  0.66288     P
P      0.15956  0.82785  0.16288     P
V      0.16272   0.1169  0.08371     V
V      0.16272   0.8831  0.58371     V
O      0.16691   0.1013  0.73618     O
O      0.16691   0.8987  0.23618     O
O      0.16827   0.0766  0.60163     O
O      0.16827   0.9234  0.10163     O
O      0.20081   0.0677  0.99596     O
O      0.20081   0.9323  0.49596     O
O      0.20269   0.0005  0.37129     O
O      0.20269   0.9995  0.87129     O
P      0.20584  0.12123  0.92102     P
P      0.20584  0.87877  0.42102     P
O       0.2109   0.1415  0.19037     O
O       0.2109   0.8585  0.69037     O
O      0.21103   0.2981   0.0755     O
O      0.21103   0.7019   0.5755     O
H        0.218    0.198    0.194     H
H        0.218    0.802    0.694     H
O      0.22816   0.2815  0.66835     O
O      0.22816   0.7185  0.16835     O
V      0.24588  0.04224  0.28392     V
V      0.24588  0.95776  0.78392     V
V      0.25412  0.45776  0.71608     V
V      0.25412  0.54224  0.21608     V
O      0.27184   0.2185  0.33165     O
O      0.27184   0.7815  0.83165     O
H        0.282    0.302    0.806     H
H        0.282    0.698    0.306     H
O      0.28897   0.2019   0.9245     O
O      0.28897   0.7981   0.4245     O
O       0.2891   0.3585  0.80963     O
O       0.2891   0.6415  0.30963     O
P      0.29416  0.37877  0.07898     P
P      0.29416  0.62123  0.57898     P
O      0.29731   0.4995  0.62871     O
O      0.29731   0.5005  0.12871     O
O      0.29919   0.4323  0.00404     O
O      0.29919   0.5677  0.50404     O
O      0.33173   0.4234  0.39837     O
O      0.33173   0.5766  0.89837     O
O      0.33309   0.3987  0.26382     O
O      0.33309   0.6013  0.76382     O
V      0.33728   0.3831  0.91629     V
V      0.33728   0.6169  0.41629     V
P      0.34044  0.32785  0.33712     P
P      0.34044  0.67215  0.83712     P
H       0.3815   0.2335   0.1589     H
H       0.3815   0.7665   0.6589     H
C       0.3878   0.2749   0.1135     C
C       0.3878   0.7251   0.6135     C
H       0.3888   0.2043   0.0782     H
H       0.3888   0.7957   0.5782     H
C       0.4472    0.252   0.3603     C
C       0.4472    0.748   0.8603     C
H       0.4519   0.1903   0.3214     H
H       0.4519   0.8097   0.8214     H
H       0.4521   0.2005   0.4051     H
H       0.4521   0.7995   0.9051     H
C        0.476   0.3492   0.1283     C
C        0.476   0.6508   0.6283     C
H       0.4774   0.4071    0.087     H
H       0.4774   0.5929    0.587     H
H       0.4816   0.4044   0.1718     H
H       0.4816   0.5956   0.6718     H
H       0.5184   0.4044   0.3282     H
H       0.5184   0.5956   0.8282     H
H       0.5226   0.4071    0.413     H
H       0.5226   0.5929    0.913     H
C        0.524   0.3492   0.3717     C
C        0.524   0.6508   0.8717     C
H       0.5479   0.2005   0.0949     H
H       0.5479   0.7995   0.5949     H
H       0.5481   0.1903   0.1786     H
H       0.5481   0.8097   0.6786     H
C       0.5528    0.252   0.1397     C
C       0.5528    0.748   0.6397     C
H       0.6112   0.2043   0.4218     H
H       0.6112   0.7957   0.9218     H
C       0.6122   0.2749   0.3865     C
C       0.6122   0.7251   0.8865     C
H       0.6185   0.2335   0.3411     H
H       0.6185   0.7665   0.8411     H
P      0.65956  0.32785  0.16288     P
P      0.65956  0.67215  0.66288     P
V      0.66272   0.3831  0.58371     V
V      0.66272   0.6169  0.08371     V
O      0.66691   0.3987  0.23618     O
O      0.66691   0.6013  0.73618     O
O      0.66827   0.4234  0.10163     O
O      0.66827   0.5766  0.60163     O
O      0.70081   0.4323  0.49596     O
O      0.70081   0.5677  0.99596     O
O      0.70269   0.4995  0.87129     O
O      0.70269   0.5005  0.37129     O
P      0.70584  0.37877  0.42102     P
P      0.70584  0.62123  0.92102     P
O       0.7109   0.3585  0.69037     O
O       0.7109   0.6415  0.19037     O
O      0.71103   0.2019   0.5755     O
O      0.71103   0.7981   0.0755     O
H        0.718    0.302    0.694     H
H        0.718    0.698    0.194     H
O      0.72816   0.2185  0.16835     O
O      0.72816   0.7815  0.66835     O
V      0.74588  0.45776  0.78392     V
V      0.74588  0.54224  0.28392     V
V      0.75412  0.04224  0.21608     V
V      0.75412  0.95776  0.71608     V
O      0.77184   0.2815  0.83165     O
O      0.77184   0.7185  0.33165     O
H        0.782    0.198    0.306     H
H        0.782    0.802    0.806     H
O      0.78897   0.2981   0.4245     O
O      0.78897   0.7019   0.9245     O
O       0.7891   0.1415  0.30963     O
O       0.7891   0.8585  0.80963     O
P      0.79416  0.12123  0.57898     P
P      0.79416  0.87877  0.07898     P
O      0.79731   0.0005  0.12871     O
O      0.79731   0.9995  0.62871     O
O      0.79919   0.0677  0.50404     O
O      0.79919   0.9323  0.00404     O
O      0.83173   0.0766  0.89837     O
O      0.83173   0.9234  0.39837     O
O      0.83309   0.1013  0.76382     O
O      0.83309   0.8987  0.26382     O
V      0.83728   0.1169  0.41629     V
V      0.83728   0.8831  0.91629     V
P      0.84044  0.17215  0.83712     P
P      0.84044  0.82785  0.33712     P
H       0.8815   0.2665   0.6589     H
H       0.8815   0.7335   0.1589     H
C       0.8878   0.2251   0.6135     C
C       0.8878   0.7749   0.1135     C
H       0.8888   0.2957   0.5782     H
H       0.8888   0.7043   0.0782     H
C       0.9472    0.248   0.8603     C
C       0.9472    0.752   0.3603     C
H       0.9519   0.3097   0.8214     H
H       0.9519   0.6903   0.3214     H
H       0.9521   0.2995   0.9051     H
H       0.9521   0.7005   0.4051     H
C        0.976   0.1508   0.6283     C
C        0.976   0.8492   0.1283     C
H       0.9774   0.0929    0.587     H
H       0.9774   0.9071    0.087     H
H       0.9816   0.0956   0.6718     H
H       0.9816   0.9044   0.1718     H
