data_I
_chemical_name_common  '/home/zhangsd/repos/MofS-CGCNN/ML/data/SSD/clean_cifs/OCUSOV_clean'
_cell_length_a 15.00300
_cell_length_b 10.12600
_cell_length_c 18.60400
_cell_angle_alpha 90.00000
_cell_angle_beta  101.00000
_cell_angle_gamma 90.00000
_space_group_name_H-M_alt      'P 1'


loop_
_space_group_symop_operation_xyz
  'x, y, z' 

loop_
_atom_site_label
_atom_site_fract_x
_atom_site_fract_y
_atom_site_fract_z
_atom_site_type_symbol
H       0.0214   0.4043   0.9151     H
H       0.0214   0.5957   0.4151     H
H       0.0273   0.4088   0.8318     H
H       0.0273   0.5912   0.3318     H
C       0.0276   0.3505   0.8732     C
C       0.0276   0.6495   0.3732     C
H       0.0441   0.1996   0.6849     H
H       0.0441   0.8004   0.1849     H
H       0.0516   0.1979   0.6022     H
H       0.0516   0.8021   0.1022     H
C       0.0527    0.255   0.6443     C
C       0.0527    0.745   0.1443     C
H       0.1133   0.2082    0.926     H
H       0.1133   0.7918    0.426     H
C       0.1174   0.2757   0.8898     C
C       0.1174   0.7243   0.3898     C
H       0.1266   0.2315   0.8455     H
H       0.1266   0.7685   0.3455     H
V      0.15898  0.38593  0.08585     V
V      0.15898  0.61407  0.58585     V
P       0.1626  0.33013  0.66686     P
P       0.1626  0.66987  0.16686     P
O       0.1666   0.4012   0.7401     O
O       0.1666   0.5988   0.2401     O
O        0.176   0.4241  0.60549     O
O        0.176   0.5759  0.10549     O
O       0.1992   0.3577   0.1911     O
O       0.1992   0.6423   0.6911     O
O          0.2   0.2018    0.077     O
O          0.2   0.7982    0.577     O
O       0.2079   0.4282   0.9991     O
O       0.2079   0.5718   0.4991     O
H        0.208    0.304    0.198     H
H        0.208    0.696    0.698     H
O       0.2127   0.4995  0.87438     O
O       0.2127   0.5005  0.37438     O
P      0.21426  0.37746  0.92298     P
P      0.21426  0.62254  0.42298     P
O       0.2342   0.2218   0.6724     O
O       0.2342   0.7782   0.1724     O
V      0.24682  0.45413  0.28135     V
V      0.24682  0.54587  0.78135     V
V      0.25318  0.04587  0.71865     V
V      0.25318  0.95413  0.21865     V
O       0.2658   0.2782   0.3276     O
O       0.2658   0.7218   0.8276     O
P      0.28574  0.12254  0.07702     P
P      0.28574  0.87746  0.57702     P
O       0.2873   0.0005  0.12562     O
O       0.2873   0.9995  0.62562     O
H        0.292    0.196    0.802     H
H        0.292    0.804    0.302     H
O       0.2921   0.0718   0.0009     O
O       0.2921   0.9282   0.5009     O
O          0.3   0.2982    0.923     O
O          0.3   0.7018    0.423     O
O       0.3008   0.1423   0.8089     O
O       0.3008   0.8577   0.3089     O
O        0.324   0.0759  0.39451     O
O        0.324   0.9241  0.89451     O
O       0.3334   0.0988   0.2599     O
O       0.3334   0.9012   0.7599     O
P       0.3374  0.16987  0.33314     P
P       0.3374  0.83013  0.83314     P
V      0.34102  0.11407  0.91415     V
V      0.34102  0.88593  0.41415     V
H       0.3734   0.2685   0.1545     H
H       0.3734   0.7315   0.6545     H
C       0.3826   0.2243   0.1102     C
C       0.3826   0.7757   0.6102     C
H       0.3867   0.2918    0.074     H
H       0.3867   0.7082    0.574     H
C       0.4473    0.245   0.3557     C
C       0.4473    0.755   0.8557     C
H       0.4484   0.3021   0.3978     H
H       0.4484   0.6979   0.8978     H
H       0.4559   0.3004   0.3151     H
H       0.4559   0.6996   0.8151     H
C       0.4724   0.1495   0.1268     C
C       0.4724   0.8505   0.6268     C
H       0.4727   0.0912   0.1682     H
H       0.4727   0.9088   0.6682     H
H       0.4786   0.0957   0.0849     H
H       0.4786   0.9043   0.5849     H
H       0.5214   0.0957   0.4151     H
H       0.5214   0.9043   0.9151     H
H       0.5273   0.0912   0.3318     H
H       0.5273   0.9088   0.8318     H
C       0.5276   0.1495   0.3732     C
C       0.5276   0.8505   0.8732     C
H       0.5441   0.3004   0.1849     H
H       0.5441   0.6996   0.6849     H
H       0.5516   0.3021   0.1022     H
H       0.5516   0.6979   0.6022     H
C       0.5527    0.245   0.1443     C
C       0.5527    0.755   0.6443     C
H       0.6133   0.2918    0.426     H
H       0.6133   0.7082    0.926     H
C       0.6174   0.2243   0.3898     C
C       0.6174   0.7757   0.8898     C
H       0.6266   0.2685   0.3455     H
H       0.6266   0.7315   0.8455     H
V      0.65898  0.11407  0.58585     V
V      0.65898  0.88593  0.08585     V
P       0.6626  0.16987  0.16686     P
P       0.6626  0.83013  0.66686     P
O       0.6666   0.0988   0.2401     O
O       0.6666   0.9012   0.7401     O
O        0.676   0.0759  0.10549     O
O        0.676   0.9241  0.60549     O
O       0.6992   0.1423   0.6911     O
O       0.6992   0.8577   0.1911     O
O          0.7   0.2982    0.577     O
O          0.7   0.7018    0.077     O
O       0.7079   0.0718   0.4991     O
O       0.7079   0.9282   0.9991     O
H        0.708    0.196    0.698     H
H        0.708    0.804    0.198     H
O       0.7127   0.0005  0.37438     O
O       0.7127   0.9995  0.87438     O
P      0.71426  0.12254  0.42298     P
P      0.71426  0.87746  0.92298     P
O       0.7342   0.2782   0.1724     O
O       0.7342   0.7218   0.6724     O
V      0.74682  0.04587  0.78135     V
V      0.74682  0.95413  0.28135     V
V      0.75318  0.45413  0.21865     V
V      0.75318  0.54587  0.71865     V
O       0.7658   0.2218   0.8276     O
O       0.7658   0.7782   0.3276     O
P      0.78574  0.37746  0.57702     P
P      0.78574  0.62254  0.07702     P
O       0.7873   0.4995  0.62562     O
O       0.7873   0.5005  0.12562     O
H        0.792    0.304    0.302     H
H        0.792    0.696    0.802     H
O       0.7921   0.4282   0.5009     O
O       0.7921   0.5718   0.0009     O
O          0.8   0.2018    0.423     O
O          0.8   0.7982    0.923     O
O       0.8008   0.3577   0.3089     O
O       0.8008   0.6423   0.8089     O
O        0.824   0.4241  0.89451     O
O        0.824   0.5759  0.39451     O
O       0.8334   0.4012   0.7599     O
O       0.8334   0.5988   0.2599     O
P       0.8374  0.33013  0.83314     P
P       0.8374  0.66987  0.33314     P
V      0.84102  0.38593  0.41415     V
V      0.84102  0.61407  0.91415     V
H       0.8734   0.2315   0.6545     H
H       0.8734   0.7685   0.1545     H
C       0.8826   0.2757   0.6102     C
C       0.8826   0.7243   0.1102     C
H       0.8867   0.2082    0.574     H
H       0.8867   0.7918    0.074     H
C       0.9473    0.255   0.8557     C
C       0.9473    0.745   0.3557     C
H       0.9484   0.1979   0.8978     H
H       0.9484   0.8021   0.3978     H
H       0.9559   0.1996   0.8151     H
H       0.9559   0.8004   0.3151     H
C       0.9724   0.3505   0.6268     C
C       0.9724   0.6495   0.1268     C
H       0.9727   0.4088   0.6682     H
H       0.9727   0.5912   0.1682     H
H       0.9786   0.4043   0.5849     H
H       0.9786   0.5957   0.0849     H
