data_I
_chemical_name_common  '/home/zhangsd/repos/MofS-CGCNN/ML/data/SSD/clean_cifs/ODEZAB_clean'
_cell_length_a 18.64010
_cell_length_b 18.64010
_cell_length_c 39.74800
_cell_angle_alpha 90.00000
_cell_angle_beta  90.00000
_cell_angle_gamma 120.00000
_space_group_name_H-M_alt      'P 1'


loop_
_space_group_symop_operation_xyz
  'x, y, z' 

loop_
_atom_site_label
_atom_site_fract_x
_atom_site_fract_y
_atom_site_fract_z
_atom_site_type_symbol
H        0.007   0.0982   0.9077     H
H        0.007   0.9088   0.9077     H
C      0.02023  0.51012  0.54657     C
C      0.02107  0.51053  0.48442     C
C      0.02537  0.51268  0.42066     C
C      0.02581  0.24154  0.30751     C
C      0.02581  0.78426  0.30751     C
O      0.03033  0.44081  0.95706     O
O      0.03033  0.58952  0.95706     O
H      0.03477  0.41003  0.41593     H
H      0.03477  0.62473  0.41593     H
O      0.03832  0.22354  0.33634     O
O      0.03832  0.81477  0.33634     O
H      0.04193  0.29857  0.74927     H
H      0.04193  0.74337  0.74927     H
Cu     0.04713  0.52356  0.02739    Cu
C      0.04818  0.45989  0.40557     C
C      0.04818  0.58828  0.40557     C
C      0.05614  0.24227  0.70835     C
C      0.05614  0.81388  0.70835     C
H      0.05785   0.1157   0.9411     H
H      0.05785  0.94215   0.9411     H
H      0.06345   0.1269   0.8497     H
H      0.06345  0.93655   0.8497     H
C       0.0654   0.1308   0.9183     C
C       0.0654   0.9346   0.9183     C
H       0.0767   0.3681   0.9174     H
H       0.0767   0.7086   0.9174     H
O      0.07715    0.303  0.29039     O
O      0.07715  0.77414  0.29039     O
C      0.07838  0.28516  0.73891     C
C      0.07838  0.79323  0.73891     C
C      0.09107  0.48054  0.37501     C
C      0.09107  0.61052  0.37501     C
H       0.0912   0.0982   0.9077     H
H       0.0912    0.993   0.9077     H
C      0.09179  0.45093  0.97418     C
C      0.09179  0.64086  0.97418     C
C      0.09225   0.1845  0.84923     C
C      0.09225  0.90775  0.84923     C
O       0.0955    0.191     0.91     O
O       0.0955   0.9045     0.91     O
H      0.09643  0.19287  0.80017     H
H      0.09643  0.90357  0.80017     H
H      0.09778  0.19557  0.67217     H
H      0.09778  0.90222  0.67217     H
H       0.0982    0.007   0.0923     H
H       0.0982   0.0912   0.0923     H
C      0.10393  0.55197   0.5464     C
O      0.10748  0.36366  0.37627     O
O      0.10748  0.74381  0.37627     O
C      0.10957  0.55478  0.48657     C
O      0.10979  0.48144  0.00301     O
O      0.10979  0.62835  0.00301     O
C      0.11107  0.55553  0.35956     C
C      0.11113  0.22227   0.6929     C
C      0.11113  0.88887   0.6929     C
C      0.11188  0.22377  0.81991     C
C      0.11188  0.88812  0.81991     C
C       0.1147   0.2294  0.87973     C
C       0.1147   0.8853  0.87973     C
H       0.1157  0.05785   0.0589     H
C       0.1176  0.42512  0.35915     C
C       0.1176  0.69247  0.35915     C
C      0.12656  0.38151  0.92776     C
C      0.12656  0.74505  0.92776     C
H       0.1269  0.06345   0.1503     H
C       0.1308   0.0654   0.0817     C
H      0.13777  0.56888  0.33883     H
H      0.14047  0.57023  0.46683     H
O      0.14233  0.57117  0.57667     O
Cu      0.1431   0.2862  0.36072    Cu
Cu      0.1431   0.8569  0.36072    Cu
C      0.14721   0.4244  0.95832     C
C      0.14721  0.72281  0.95832     C
O      0.14811  0.44312  0.33032     O
O      0.14811  0.70498  0.33032     O
C      0.14883  0.57442   0.5159     C
C      0.15398  0.30797    0.754     C
C      0.15398  0.84602    0.754     C
C      0.15613  0.31227  0.81776     C
C      0.15613  0.84387  0.81776     C
C      0.15655   0.3131   0.8799     C
C      0.15655  0.84345   0.8799     C
C      0.17678  0.35357  0.78677     C
C      0.17678  0.82322  0.78677     C
C       0.1772   0.3544  0.84891     C
C       0.1772   0.8228  0.84891     C
C      0.17935   0.3587  0.91267     C
C      0.17935  0.82065  0.91267     C
C       0.1845  0.09225  0.15077     C
O      0.18523  0.22354  0.33634     O
O      0.18523  0.96168  0.33634     O
C      0.18612  0.24227  0.70835     C
C      0.18612  0.94386  0.70835     C
Cu     0.19023  0.38046  0.30595    Cu
Cu     0.19023  0.80977  0.30595    Cu
O        0.191   0.0955     0.09     O
H      0.19287  0.09643  0.19983     H
H      0.19557  0.09778  0.32783     H
C      0.20253  0.60127  0.58497     C
H      0.20643  0.60322  0.51637     H
C      0.20677  0.28516  0.73891     C
C      0.20677  0.92162  0.73891     C
C      0.21574  0.24154  0.30751     C
C      0.21574  0.97419  0.30751     C
H      0.21763  0.60882  0.60777     H
C      0.21863  0.43727  0.78694     C
C      0.21863  0.78137  0.78694     C
C      0.22145   0.4429  0.84676     C
C      0.22145  0.77855  0.84676     C
C       0.2222   0.4444  0.97377     C
C       0.2222   0.7778  0.97377     C
C      0.22227  0.11113   0.3071     C
O      0.22354  0.03832  0.66366     O
O      0.22354  0.18523  0.66366     O
C      0.22377  0.11188  0.18009     C
O      0.22586    0.303  0.29039     O
O      0.22586  0.92285  0.29039     O
C       0.2294   0.1147  0.12027     C
H      0.23513  0.57547  0.57437     H
H      0.23513  0.65967  0.57437     H
H      0.23555   0.4711   0.9945     H
H      0.23555  0.76445   0.9945     H
H       0.2369   0.4738   0.8665     H
H       0.2369   0.7631   0.8665     H
O      0.23783  0.47567  0.75667     O
O      0.23783  0.76217  0.75667     O
C      0.24108  0.48217  0.81744     C
C      0.24108  0.75892  0.81744     C
C      0.24154  0.02581  0.69249     C
C      0.24154  0.21574  0.69249     C
H      0.24213  0.56847  0.75897     H
H      0.24213  0.67367  0.75897     H
C      0.24227  0.05614  0.29165     C
C      0.24227  0.18612  0.29165     C
C      0.25495  0.38151  0.92776     C
C      0.25495  0.87344  0.92776     C
O      0.25619  0.36366  0.37627     O
O      0.25619  0.89252  0.37627     O
H      0.25663  0.29857  0.74927     H
H      0.25663  0.95807  0.74927     H
C      0.26793  0.53587  0.74837     C
C      0.26793  0.73207  0.74837     C
H      0.26988  0.53977  0.81697     H
H      0.26988  0.73012  0.81697     H
H      0.27548  0.55097  0.72557     H
H      0.27548  0.72452  0.72557     H
C      0.27719   0.4244  0.95832     C
C      0.27719  0.85279  0.95832     C
C      0.28516  0.07838  0.26109     C
C      0.28516  0.20677  0.26109     C
Cu      0.2862   0.1431  0.63928    Cu
H       0.2914   0.3681   0.9174     H
H       0.2914   0.9233   0.9174     H
O      0.29502  0.44312  0.33032     O
O      0.29502  0.85189  0.33032     O
H      0.29857  0.04193  0.25073     H
H      0.29857  0.25663  0.25073     H
O        0.303  0.07715  0.70961     O
O        0.303  0.22586  0.70961     O
C      0.30753  0.42512  0.35915     C
C      0.30753   0.8824  0.35915     C
C      0.30797  0.15398    0.246     C
C      0.31227  0.15613  0.18224     C
C       0.3131  0.15655   0.1201     C
H      0.32633  0.56847  0.75897     H
H      0.32633  0.75787  0.75897     H
H      0.34033  0.57547  0.57437     H
H      0.34033  0.76487  0.57437     H
C      0.35357  0.17678  0.21323     C
C       0.3544   0.1772  0.15109     C
C       0.3587  0.17935  0.08733     C
C      0.35914  0.45093  0.97418     C
C      0.35914  0.90821  0.97418     C
O      0.36366  0.10748  0.62373     O
O      0.36366  0.25619  0.62373     O
H       0.3681   0.0767   0.0826     H
H       0.3681   0.2914   0.0826     H
O      0.37165  0.48144  0.00301     O
O      0.37165  0.89021  0.00301     O
H      0.37527  0.41003  0.41593     H
H      0.37527  0.96523  0.41593     H
Cu     0.38046  0.19023  0.69405    Cu
C      0.38151  0.12656  0.07224     C
C      0.38151  0.25495  0.07224     C
C      0.38948  0.48054  0.37501     C
C      0.38948  0.90893  0.37501     C
H      0.39118  0.60882  0.60777     H
H      0.39118  0.78237  0.60777     H
H      0.39678  0.60322  0.51637     H
H      0.39678  0.79357  0.51637     H
C      0.39873  0.60127  0.58497     C
C      0.39873  0.79747  0.58497     C
H      0.41003  0.03477  0.58407     H
H      0.41003  0.37527  0.58407     H
O      0.41048  0.44081  0.95706     O
O      0.41048  0.96967  0.95706     O
C      0.41172  0.45989  0.40557     C
C      0.41172  0.95182  0.40557     C
C       0.4244  0.14721  0.04168     C
C       0.4244  0.27719  0.04168     C
H      0.42453  0.65967  0.57437     H
H      0.42453  0.76487  0.57437     H
C      0.42512   0.1176  0.64085     C
C      0.42512  0.30753  0.64085     C
C      0.42558  0.57442   0.5159     C
C      0.42558  0.85117   0.5159     C
O      0.42883  0.57117  0.57667     O
O      0.42883  0.85767  0.57667     O
H      0.42977  0.57023  0.46683     H
H      0.42977  0.85953  0.46683     H
H      0.43112  0.56888  0.33883     H
H      0.43112  0.86223  0.33883     H
H      0.43153  0.67367  0.75897     H
H      0.43153  0.75787  0.75897     H
C      0.43727  0.21863  0.21306     C
O      0.44081  0.03033  0.04294     O
O      0.44081  0.41048  0.04294     O
C       0.4429  0.22145  0.15324     C
O      0.44312  0.14811  0.66968     O
O      0.44312  0.29502  0.66968     O
C       0.4444   0.2222  0.02623     C
C      0.44447  0.55553  0.35956     C
C      0.44447  0.88893  0.35956     C
C      0.44522  0.55478  0.48657     C
C      0.44522  0.89043  0.48657     C
C      0.44803  0.55197   0.5464     C
C      0.44803  0.89607   0.5464     C
H      0.44903  0.72452  0.72557     H
C      0.45093  0.09179  0.02582     C
C      0.45093  0.35914  0.02582     C
C      0.45989  0.04818  0.59443     C
C      0.45989  0.41172  0.59443     C
H      0.46023  0.73012  0.81697     H
C      0.46413  0.73207  0.74837     C
H       0.4711  0.23555   0.0055     H
H       0.4738   0.2369   0.1335     H
O      0.47567  0.23783  0.24333     O
Cu     0.47644  0.52356  0.02739    Cu
Cu     0.47644  0.95287  0.02739    Cu
C      0.48054  0.09107  0.62499     C
C      0.48054  0.38948  0.62499     C
O      0.48144  0.10979  0.99699     O
O      0.48144  0.37165  0.99699     O
C      0.48217  0.24108  0.18256     C
C      0.48732  0.51268  0.42066     C
C      0.48732  0.97463  0.42066     C
C      0.48947  0.51053  0.48442     C
C      0.48947  0.97893  0.48442     C
C      0.48988  0.51012  0.54657     C
C      0.48988  0.97977  0.54657     C
C      0.51012  0.02023  0.45343     C
C      0.51012  0.48988  0.45343     C
C      0.51053  0.02107  0.51558     C
C      0.51053  0.48947  0.51558     C
C      0.51268  0.02537  0.57934     C
C      0.51268  0.48732  0.57934     C
C      0.51783  0.75892  0.81744     C
O      0.51856  0.62835  0.00301     O
O      0.51856  0.89021  0.00301     O
C      0.51946  0.61052  0.37501     C
C      0.51946  0.90893  0.37501     C
Cu     0.52356  0.04713  0.97261    Cu
Cu     0.52356  0.47644  0.97261    Cu
O      0.52433  0.76217  0.75667     O
H       0.5262   0.7631   0.8665     H
H       0.5289  0.76445   0.9945     H
C      0.53587  0.26793  0.25163     C
H      0.53977  0.26988  0.18303     H
C      0.54011  0.58828  0.40557     C
C      0.54011  0.95182  0.40557     C
C      0.54907  0.64086  0.97418     C
C      0.54907  0.90821  0.97418     C
H      0.55097  0.27548  0.27443     H
C      0.55197  0.10393   0.4536     C
C      0.55197  0.44803   0.4536     C
C      0.55478  0.10957  0.51343     C
C      0.55478  0.44522  0.51343     C
C      0.55553  0.11107  0.64044     C
C      0.55553  0.44447  0.64044     C
C       0.5556   0.7778  0.97377     C
O      0.55688  0.70498  0.33032     O
O      0.55688  0.85189  0.33032     O
C       0.5571  0.77855  0.84676     C
O      0.55919  0.58952  0.95706     O
O      0.55919  0.96967  0.95706     O
C      0.56273  0.78137  0.78694     C
H      0.56847  0.24213  0.24103     H
H      0.56847  0.32633  0.24103     H
H      0.56888  0.13777  0.66117     H
H      0.56888  0.43112  0.66117     H
H      0.57023  0.14047  0.53317     H
H      0.57023  0.42977  0.53317     H
O      0.57117  0.14233  0.42333     O
O      0.57117  0.42883  0.42333     O
C      0.57442  0.14883   0.4841     C
C      0.57442  0.42558   0.4841     C
C      0.57488  0.69247  0.35915     C
C      0.57488   0.8824  0.35915     C
H      0.57547  0.23513  0.42563     H
H      0.57547  0.34033  0.42563     H
C       0.5756  0.72281  0.95832     C
C       0.5756  0.85279  0.95832     C
C      0.58828  0.04818  0.59443     C
C      0.58828  0.54011  0.59443     C
O      0.58952  0.03033  0.04294     O
O      0.58952  0.55919  0.04294     O
H      0.58997  0.62473  0.41593     H
H      0.58997  0.96523  0.41593     H
C      0.60127  0.20253  0.41503     C
C      0.60127  0.39873  0.41503     C
H      0.60322  0.20643  0.48363     H
H      0.60322  0.39678  0.48363     H
H      0.60882  0.21763  0.39223     H
H      0.60882  0.39118  0.39223     H
C      0.61052  0.09107  0.62499     C
C      0.61052  0.51946  0.62499     C
C      0.61849  0.74505  0.92776     C
C      0.61849  0.87344  0.92776     C
Cu     0.61954  0.80977  0.30595    Cu
H      0.62473  0.03477  0.58407     H
H      0.62473  0.58997  0.58407     H
O      0.62835  0.10979  0.99699     O
O      0.62835  0.51856  0.99699     O
H       0.6319   0.7086   0.9174     H
H       0.6319   0.9233   0.9174     H
O      0.63634  0.74381  0.37627     O
O      0.63634  0.89252  0.37627     O
C      0.64086  0.09179  0.02582     C
C      0.64086  0.54907  0.02582     C
C       0.6413  0.82065  0.91267     C
C       0.6456   0.8228  0.84891     C
C      0.64643  0.82322  0.78677     C
H      0.65967  0.23513  0.42563     H
H      0.65967  0.42453  0.42563     H
H      0.67367  0.24213  0.24103     H
H      0.67367  0.43153  0.24103     H
C       0.6869  0.84345   0.8799     C
C      0.68773  0.84387  0.81776     C
C      0.69203  0.84602    0.754     C
C      0.69247   0.1176  0.64085     C
C      0.69247  0.57488  0.64085     C
O        0.697  0.77414  0.29039     O
O        0.697  0.92285  0.29039     O
H      0.70143  0.74337  0.74927     H
H      0.70143  0.95807  0.74927     H
O      0.70498  0.14811  0.66968     O
O      0.70498  0.55688  0.66968     O
H       0.7086   0.0767   0.0826     H
H       0.7086   0.6319   0.0826     H
Cu      0.7138   0.8569  0.36072    Cu
C      0.71484  0.79323  0.73891     C
C      0.71484  0.92162  0.73891     C
C      0.72281  0.14721  0.04168     C
C      0.72281   0.5756  0.04168     C
H      0.72452  0.27548  0.27443     H
H      0.72452  0.44903  0.27443     H
H      0.73012  0.26988  0.18303     H
H      0.73012  0.46023  0.18303     H
C      0.73207  0.26793  0.25163     C
C      0.73207  0.46413  0.25163     C
H      0.74337  0.04193  0.25073     H
H      0.74337  0.70143  0.25073     H
O      0.74381  0.10748  0.62373     O
O      0.74381  0.63634  0.62373     O
C      0.74505  0.12656  0.07224     C
C      0.74505  0.61849  0.07224     C
C      0.75773  0.81388  0.70835     C
C      0.75773  0.94386  0.70835     C
H      0.75787  0.32633  0.24103     H
H      0.75787  0.43153  0.24103     H
C      0.75846  0.78426  0.30751     C
C      0.75846  0.97419  0.30751     C
C      0.75892  0.24108  0.18256     C
C      0.75892  0.51783  0.18256     C
O      0.76217  0.23783  0.24333     O
O      0.76217  0.52433  0.24333     O
H       0.7631   0.2369   0.1335     H
H       0.7631   0.5262   0.1335     H
H      0.76445  0.23555   0.0055     H
H      0.76445   0.5289   0.0055     H
H      0.76487  0.34033  0.42563     H
H      0.76487  0.42453  0.42563     H
C       0.7706   0.8853  0.87973     C
O      0.77414  0.07715  0.70961     O
O      0.77414    0.697  0.70961     O
C      0.77623  0.88812  0.81991     C
O      0.77646  0.81477  0.33634     O
O      0.77646  0.96168  0.33634     O
C      0.77773  0.88887   0.6929     C
C       0.7778   0.2222  0.02623     C
C       0.7778   0.5556  0.02623     C
C      0.77855  0.22145  0.15324     C
C      0.77855   0.5571  0.15324     C
C      0.78137  0.21863  0.21306     C
C      0.78137  0.56273  0.21306     C
H      0.78237  0.39118  0.39223     H
C      0.78426  0.02581  0.69249     C
C      0.78426  0.75846  0.69249     C
C      0.79323  0.07838  0.26109     C
C      0.79323  0.71484  0.26109     C
H      0.79357  0.39678  0.48363     H
C      0.79747  0.39873  0.41503     C
H      0.80443  0.90222  0.67217     H
H      0.80713  0.90357  0.80017     H
O        0.809   0.9045     0.91     O
Cu     0.80977  0.19023  0.69405    Cu
Cu     0.80977  0.61954  0.69405    Cu
C      0.81388  0.05614  0.29165     C
C      0.81388  0.75773  0.29165     C
O      0.81477  0.03832  0.66366     O
O      0.81477  0.77646  0.66366     O
C       0.8155  0.90775  0.84923     C
C      0.82065  0.17935  0.08733     C
C      0.82065   0.6413  0.08733     C
C       0.8228   0.1772  0.15109     C
C       0.8228   0.6456  0.15109     C
C      0.82322  0.17678  0.21323     C
C      0.82322  0.64643  0.21323     C
C      0.84345  0.15655   0.1201     C
C      0.84345   0.6869   0.1201     C
C      0.84387  0.15613  0.18224     C
C      0.84387  0.68773  0.18224     C
C      0.84602  0.15398    0.246     C
C      0.84602  0.69203    0.246     C
C      0.85117  0.42558   0.4841     C
O      0.85189  0.29502  0.66968     O
O      0.85189  0.55688  0.66968     O
C      0.85279  0.27719  0.04168     C
C      0.85279   0.5756  0.04168     C
Cu      0.8569   0.1431  0.63928    Cu
Cu      0.8569   0.7138  0.63928    Cu
O      0.85767  0.42883  0.42333     O
H      0.85953  0.42977  0.53317     H
H      0.86223  0.43112  0.66117     H
C       0.8692   0.9346   0.9183     C
H       0.8731  0.93655   0.8497     H
C      0.87344  0.25495  0.07224     C
C      0.87344  0.61849  0.07224     C
C       0.8824  0.30753  0.64085     C
C       0.8824  0.57488  0.64085     C
H       0.8843  0.94215   0.9411     H
C       0.8853   0.1147  0.12027     C
C       0.8853   0.7706  0.12027     C
C      0.88812  0.11188  0.18009     C
C      0.88812  0.77623  0.18009     C
C      0.88887  0.11113   0.3071     C
C      0.88887  0.77773   0.3071     C
C      0.88893  0.44447  0.64044     C
O      0.89021  0.37165  0.99699     O
O      0.89021  0.51856  0.99699     O
C      0.89043  0.44522  0.51343     C
O      0.89252  0.25619  0.62373     O
O      0.89252  0.63634  0.62373     O
C      0.89607  0.44803   0.4536     C
H       0.9018   0.9088   0.9077     H
H       0.9018    0.993   0.9077     H
H      0.90222  0.09778  0.32783     H
H      0.90222  0.80443  0.32783     H
H      0.90357  0.09643  0.19983     H
H      0.90357  0.80713  0.19983     H
O       0.9045   0.0955     0.09     O
O       0.9045    0.809     0.09     O
C      0.90775  0.09225  0.15077     C
C      0.90775   0.8155  0.15077     C
C      0.90821  0.35914  0.02582     C
C      0.90821  0.54907  0.02582     C
H       0.9088    0.007   0.0923     H
H       0.9088   0.9018   0.0923     H
C      0.90893  0.38948  0.62499     C
C      0.90893  0.51946  0.62499     C
C      0.92162  0.20677  0.26109     C
C      0.92162  0.71484  0.26109     C
O      0.92285  0.22586  0.70961     O
O      0.92285    0.697  0.70961     O
H       0.9233   0.2914   0.0826     H
H       0.9233   0.6319   0.0826     H
C       0.9346   0.0654   0.0817     C
C       0.9346   0.8692   0.0817     C
H      0.93655  0.06345   0.1503     H
H      0.93655   0.8731   0.1503     H
H      0.94215  0.05785   0.0589     H
H      0.94215   0.8843   0.0589     H
C      0.94386  0.18612  0.29165     C
C      0.94386  0.75773  0.29165     C
C      0.95182  0.41172  0.59443     C
C      0.95182  0.54011  0.59443     C
Cu     0.95287  0.47644  0.97261    Cu
H      0.95807  0.25663  0.25073     H
H      0.95807  0.70143  0.25073     H
O      0.96168  0.18523  0.66366     O
O      0.96168  0.77646  0.66366     O
H      0.96523  0.37527  0.58407     H
H      0.96523  0.58997  0.58407     H
O      0.96967  0.41048  0.04294     O
O      0.96967  0.55919  0.04294     O
C      0.97419  0.21574  0.69249     C
C      0.97419  0.75846  0.69249     C
C      0.97463  0.48732  0.57934     C
C      0.97893  0.48947  0.51558     C
C      0.97977  0.48988  0.45343     C
H        0.993   0.0912   0.0923     H
H        0.993   0.9018   0.0923     H
