data_I
_chemical_name_common  '/home/zhangsd/repos/MofS-CGCNN/ML/data/SSD/clean_cifs/ODOXEK_clean'
_cell_length_a  7.93160
_cell_length_b 15.75470
_cell_length_c 15.75470
_cell_angle_alpha 120.00000
_cell_angle_beta  90.00000
_cell_angle_gamma 90.00000
_space_group_name_H-M_alt      'P 1'


loop_
_space_group_symop_operation_xyz
  'x, y, z' 

loop_
_atom_site_label
_atom_site_fract_x
_atom_site_fract_y
_atom_site_fract_z
_atom_site_type_symbol
O       0.0168   0.3054   0.2187     O
O       0.0168   0.7813   0.0867     O
O       0.0168   0.9133   0.6946     O
O       0.0486   0.0035   0.5287     O
O       0.0486   0.4713   0.4748     O
O       0.0486   0.5252   0.9965     O
O       0.0837   0.1631    0.598     O
O       0.0837    0.402   0.5651     O
O       0.0837   0.4349   0.8369     O
C       0.1008   0.0789   0.5257     C
C       0.1008   0.4468   0.9211     C
C       0.1008   0.4743   0.5532     C
C       0.1846   0.0635   0.4344     C
C       0.1846   0.3709   0.9365     C
C       0.1846   0.5656   0.6291     C
H        0.194   0.4484   0.0832     H
H        0.194   0.6348   0.5516     H
H        0.194   0.9168   0.3652     H
H        0.196   0.2065   0.4738     H
H        0.196   0.2673   0.7935     H
H        0.196   0.5262   0.7327     H
C       0.2255   0.3892    0.029     C
C       0.2255   0.6398   0.6108     C
C       0.2255    0.971   0.3602     C
C       0.2278    0.144   0.4252     C
C       0.2278   0.2812    0.856     C
C       0.2278   0.5748   0.7188     C
O       0.2749   0.0707    0.708     O
O       0.2749    0.292   0.3627     O
O       0.2749   0.6373   0.9293     O
C       0.3138   0.3201   0.0432     C
C       0.3138   0.7231   0.6799     C
C       0.3138   0.9568   0.2769     C
C       0.3186   0.1323   0.3438     C
C       0.3186   0.2115   0.8677     C
C       0.3186   0.6562   0.7885     C
O       0.3444   0.4229   0.2159     O
O       0.3444   0.7841    0.207     O
O       0.3444    0.793   0.5771     O
C       0.3607   0.0396   0.2717     C
C       0.3607   0.2321   0.9604     C
C       0.3607   0.7283   0.7679     C
C       0.3622   0.3385   0.1421     C
C       0.3622   0.8036   0.6615     C
C       0.3622   0.8579   0.1964     C
C       0.3725   0.1179   0.7813     C
C       0.3725   0.2187   0.3366     C
C       0.3725   0.6634   0.8821     C
H        0.422   0.0315   0.2178     H
H        0.422   0.1863   0.9685     H
H        0.422   0.7822   0.8137     H
O       0.4259   0.2692   0.1493     O
O       0.4259   0.8507   0.1199     O
O       0.4259   0.8801   0.7308     O
Cd     0.48782  0.37406  0.31546    Cd
Cd     0.48782  0.68454   0.0586    Cd
Cd     0.48782   0.9414  0.62594    Cd
O       0.5168   0.0867   0.7813     O
O       0.5168   0.2187   0.3054     O
O       0.5168   0.6946   0.9133     O
O       0.5486   0.4748   0.4713     O
O       0.5486   0.5287   0.0035     O
O       0.5486   0.9965   0.5252     O
O       0.5837   0.5651    0.402     O
O       0.5837    0.598   0.1631     O
O       0.5837   0.8369   0.4349     O
C       0.6008   0.5257   0.0789     C
C       0.6008   0.5532   0.4743     C
C       0.6008   0.9211   0.4468     C
C       0.6846   0.4344   0.0635     C
C       0.6846   0.6291   0.5656     C
C       0.6846   0.9365   0.3709     C
H        0.694   0.0832   0.4484     H
H        0.694   0.3652   0.9168     H
H        0.694   0.5516   0.6348     H
H        0.696   0.4738   0.2065     H
H        0.696   0.7327   0.5262     H
H        0.696   0.7935   0.2673     H
C       0.7255    0.029   0.3892     C
C       0.7255   0.3602    0.971     C
C       0.7255   0.6108   0.6398     C
C       0.7278   0.4252    0.144     C
C       0.7278   0.7188   0.5748     C
C       0.7278    0.856   0.2812     C
O       0.7749   0.3627    0.292     O
O       0.7749    0.708   0.0707     O
O       0.7749   0.9293   0.6373     O
C       0.8138   0.0432   0.3201     C
C       0.8138   0.2769   0.9568     C
C       0.8138   0.6799   0.7231     C
C       0.8186   0.3438   0.1323     C
C       0.8186   0.7885   0.6562     C
C       0.8186   0.8677   0.2115     C
O       0.8444    0.207   0.7841     O
O       0.8444   0.2159   0.4229     O
O       0.8444   0.5771    0.793     O
C       0.8607   0.2717   0.0396     C
C       0.8607   0.7679   0.7283     C
C       0.8607   0.9604   0.2321     C
C       0.8622   0.1421   0.3385     C
C       0.8622   0.1964   0.8579     C
C       0.8622   0.6615   0.8036     C
C       0.8725   0.3366   0.2187     C
C       0.8725   0.7813   0.1179     C
C       0.8725   0.8821   0.6634     C
H        0.922   0.2178   0.0315     H
H        0.922   0.8137   0.7822     H
H        0.922   0.9685   0.1863     H
O       0.9259   0.1199   0.8507     O
O       0.9259   0.1493   0.2692     O
O       0.9259   0.7308   0.8801     O
Cd     0.98782   0.0586  0.68454    Cd
Cd     0.98782  0.31546  0.37406    Cd
Cd     0.98782  0.62594   0.9414    Cd
