data_I
_chemical_name_common  '/home/zhangsd/repos/MofS-CGCNN/ML/data/SSD/clean_cifs/OFERUN_clean'
_cell_length_a 14.71380
_cell_length_b 14.71380
_cell_length_c 14.71380
_cell_angle_alpha 109.47100
_cell_angle_beta  109.47100
_cell_angle_gamma 109.47100
_space_group_name_H-M_alt      'P 1'


loop_
_space_group_symop_operation_xyz
  'x, y, z' 

loop_
_atom_site_label
_atom_site_fract_x
_atom_site_fract_y
_atom_site_fract_z
_atom_site_type_symbol
C          0.0   0.3838    0.627     C
C          0.0   0.4863   0.6805     C
H          0.0   0.5117   0.6299     H
C          0.0    0.627   0.3838     C
H          0.0   0.6299   0.5117     H
C          0.0   0.6805   0.4863     C
C      0.05824    0.269  0.58544     C
C      0.05824  0.58544    0.269     C
H       0.0661   0.5498   0.7557     H
H       0.0661   0.7557   0.5498     H
N      0.09388  0.37653  0.64855     N
N      0.09388  0.64855  0.37653     N
H       0.1142    0.234   0.5776     H
H       0.1142   0.5776    0.234     H
H       0.1182   0.4883   0.4883     H
H       0.1198   0.4634   0.8858     H
H       0.1198   0.8858   0.4634     H
C       0.1942   0.5137   0.5137     C
H       0.2059   0.4502   0.5163     H
H       0.2059   0.5163   0.4502     H
C      0.21076   0.5272  0.94176     C
C      0.21076  0.94176   0.5272     C
H        0.234   0.1142   0.5776     H
H        0.234   0.5776   0.1142     H
C       0.2432   0.6162   0.6162     C
H       0.2443   0.3104   0.7941     H
H       0.2443   0.7941   0.3104     H
Zn        0.25      0.5     0.75    Zn
Zn        0.25     0.75      0.5    Zn
C        0.269  0.05824  0.58544     C
C        0.269  0.58544  0.05824     C
N      0.27202  0.62347  0.71735     N
N      0.27202  0.71735  0.62347     N
N      0.28265  0.55467  0.90612     N
N      0.28265  0.90612  0.55467     N
H       0.3104   0.2443   0.7941     H
H       0.3104   0.7941   0.2443     H
C      0.31644    0.731  0.78924     C
C      0.31644  0.78924    0.731     C
C       0.3195   0.3195   0.8058     C
C       0.3195   0.8058   0.3195     C
H       0.3436    0.766   0.8802     H
H       0.3436   0.8802    0.766     H
N      0.35145  0.44533  0.72798     N
N      0.35145  0.72798  0.44533     N
H       0.3701   0.3701   0.8818     H
H       0.3701   0.8818   0.3701     H
C        0.373    0.373   0.7568     C
C        0.373   0.7568    0.373     C
N      0.37653  0.09388  0.64855     N
N      0.37653  0.64855  0.09388     N
C       0.3838    0.627     -0.0     C
C       0.3838      1.0    0.627     C
C      0.41456   0.4728  0.68356     C
C      0.41456  0.68356   0.4728     C
H       0.4224   0.5366   0.6564     H
H       0.4224   0.6564   0.5366     H
N      0.44533  0.35145  0.72798     N
N      0.44533  0.72798  0.35145     N
H       0.4502   0.2059   0.5163     H
H       0.4502   0.5163   0.2059     H
H       0.4634   0.1198   0.8858     H
H       0.4634   0.8858   0.1198     H
C       0.4728  0.41456  0.68356     C
C       0.4728  0.68356  0.41456     C
H       0.4837   0.6896   0.9339     H
H       0.4837   0.9339   0.6896     H
C       0.4863   0.6805     -0.0     C
C       0.4863      1.0   0.6805     C
H       0.4883   0.1182   0.4883     H
H       0.4883   0.4883   0.1182     H
Zn         0.5     0.25     0.75    Zn
Zn         0.5     0.75     0.25    Zn
H       0.5117      0.0   0.6299     H
H       0.5117   0.6299     -0.0     H
C       0.5137   0.1942   0.5137     C
C       0.5137   0.5137   0.1942     C
H       0.5163   0.2059   0.4502     H
H       0.5163   0.4502   0.2059     H
C       0.5272  0.21076  0.94176     C
C       0.5272  0.94176  0.21076     C
H       0.5366   0.4224   0.6564     H
H       0.5366   0.6564   0.4224     H
H       0.5498   0.0661   0.7557     H
H       0.5498   0.7557   0.0661     H
N      0.55467  0.28265  0.90612     N
N      0.55467  0.90612  0.28265     N
H       0.5776   0.1142    0.234     H
H       0.5776    0.234   0.1142     H
C      0.58544  0.05824    0.269     C
C      0.58544    0.269  0.05824     C
C       0.6162   0.2432   0.6162     C
C       0.6162   0.6162   0.2432     C
N      0.62347  0.27202  0.71735     N
N      0.62347  0.71735  0.27202     N
C        0.627     -0.0   0.3838     C
C        0.627   0.3838     -0.0     C
H       0.6299      0.0   0.5117     H
H       0.6299   0.5117     -0.0     H
N      0.64855  0.09388  0.37653     N
N      0.64855  0.37653  0.09388     N
H       0.6564   0.4224   0.5366     H
H       0.6564   0.5366   0.4224     H
C       0.6805      0.0   0.4863     C
C       0.6805   0.4863     -0.0     C
C      0.68356  0.41456   0.4728     C
C      0.68356   0.4728  0.41456     C
H       0.6896   0.4837   0.9339     H
H       0.6896   0.9339   0.4837     H
N      0.71735  0.27202  0.62347     N
N      0.71735  0.62347  0.27202     N
N      0.72798  0.35145  0.44533     N
N      0.72798  0.44533  0.35145     N
C        0.731  0.31644  0.78924     C
C        0.731  0.78924  0.31644     C
Zn        0.75     0.25      0.5    Zn
Zn        0.75      0.5     0.25    Zn
H       0.7557   0.0661   0.5498     H
H       0.7557   0.5498   0.0661     H
C       0.7568    0.373    0.373     C
H        0.766   0.3436   0.8802     H
H        0.766   0.8802   0.3436     H
C      0.78924  0.31644    0.731     C
C      0.78924    0.731  0.31644     C
H       0.7941   0.2443   0.3104     H
H       0.7941   0.3104   0.2443     H
C       0.8058   0.3195   0.3195     C
H       0.8802   0.3436    0.766     H
H       0.8802    0.766   0.3436     H
H       0.8818   0.3701   0.3701     H
H       0.8858   0.1198   0.4634     H
H       0.8858   0.4634   0.1198     H
N      0.90612  0.28265  0.55467     N
N      0.90612  0.55467  0.28265     N
H       0.9339   0.4837   0.6896     H
H       0.9339   0.6896   0.4837     H
C      0.94176  0.21076   0.5272     C
C      0.94176   0.5272  0.21076     C
