data_I
_chemical_name_common  '/home/zhangsd/repos/MofS-CGCNN/ML/data/SSD/clean_cifs/OFUYUL_SL'
_cell_length_a 18.38470
_cell_length_b 12.92560
_cell_length_c 14.55500
_cell_angle_alpha 90.00000
_cell_angle_beta  120.06830
_cell_angle_gamma 90.00000
_space_group_name_H-M_alt      'P 1'


loop_
_space_group_symop_operation_xyz
  'x, y, z' 

loop_
_atom_site_label
_atom_site_fract_x
_atom_site_fract_y
_atom_site_fract_z
_atom_site_type_symbol
C       0.0423   0.6557   0.6598     C
C       0.0423   0.8443   0.1598     C
H       0.0428   0.7375   0.2627     H
H       0.0428   0.7625   0.7627     H
C       0.0474   0.1218   0.8831     C
C       0.0474   0.3782   0.3831     C
H       0.0692   0.5595   0.5728     H
H       0.0692   0.9405   0.0728     H
O       0.0764    0.058   0.9593     O
O       0.0764    0.442   0.4593     O
C       0.0764   0.7306   0.7401     C
C       0.0764   0.7694   0.2401     C
O       0.0885   0.1536   0.8427     O
O       0.0885   0.3464   0.3427     O
C       0.0924   0.6086   0.6267     C
C       0.0924   0.8914   0.1267     C
O        0.145   0.6177    0.392     O
O        0.145   0.8823    0.892     O
C       0.1605   0.7432   0.2856     C
C       0.1605   0.7568   0.7856     C
C       0.1777   0.6337    0.673     C
C       0.1777   0.8663    0.173     C
Zn      0.1821  0.51378  0.50182    Zn
Zn      0.1821  0.98622  0.00182    Zn
C       0.1966   0.6623   0.3722     C
C       0.1966   0.8377   0.8722     C
C       0.2112   0.7089   0.7524     C
C       0.2112   0.7911   0.2524     C
O       0.2275   0.5848   0.6417     O
H       0.2275  0.66217  0.61422     H
H       0.2275  0.83783  0.11422     H
O       0.2275   0.9152   0.1417     O
H       0.2676   0.7272   0.7833     H
H       0.2676   0.7728   0.2833     H
O       0.2682   0.0859   0.0235     O
O       0.2682   0.4141   0.5235     O
O       0.2712   0.6405    0.417     O
O       0.2712   0.8595    0.917     O
O       0.2743   0.1239   0.3065     O
O       0.2743   0.3761   0.8065     O
H       0.2896   0.2381   0.9378     H
H       0.2896   0.2619   0.4378     H
C       0.3407   0.0943    0.382     C
C       0.3407   0.4057    0.882     C
C       0.3429   0.0995   0.0935     C
C       0.3429   0.4005   0.5935     C
C       0.3439   0.2457    0.491     C
C       0.3439   0.2543    0.991     C
Zn     0.34551  0.55293  0.74626    Zn
Zn     0.34551  0.94707  0.24626    Zn
O       0.3778   0.0118   0.3819     O
O       0.3778   0.4882   0.8819     O
H      0.38047  0.74553  0.25041     H
H      0.38047  0.75447  0.75041     H
O        0.384   0.0422    0.173     O
O        0.384   0.4578    0.673     O
C       0.3846   0.1574   0.4829     C
C       0.3846   0.3426   0.9829     C
C       0.3865   0.1908   0.0806     C
C       0.3865   0.3092   0.5806     C
O       0.4119   0.6771   0.7703     O
O       0.4119   0.8229   0.2703     O
C       0.4653    0.134   0.5619     C
C       0.4653    0.366   0.0619     C
C       0.4695    0.214   0.1581     C
C       0.4695    0.286   0.6581     C
C       0.4905   0.6968   0.8488     C
C       0.4905   0.8032   0.3488     C
H       0.4909   0.0746   0.5553     H
H       0.4909   0.4254   0.0553     H
H       0.4985   0.1692   0.2152     H
H       0.4985   0.3308   0.7152     H
H       0.5015   0.6692   0.2848     H
H       0.5015   0.8308   0.7848     H
H       0.5091   0.5746   0.9447     H
H       0.5091   0.9254   0.4447     H
C       0.5095   0.1968   0.6512     C
C       0.5095   0.3032   0.1512     C
C       0.5305    0.714   0.3419     C
C       0.5305    0.786   0.8419     C
C       0.5347    0.634   0.9381     C
C       0.5347    0.866   0.4381     C
O       0.5881   0.1771   0.7297     O
O       0.5881   0.3229   0.2297     O
C       0.6135   0.6908   0.4194     C
C       0.6135   0.8092   0.9194     C
C       0.6154   0.6574   0.0171     C
C       0.6154   0.8426   0.5171     C
O        0.616   0.5422    0.327     O
O        0.616   0.9578    0.827     O
H      0.61953  0.24553  0.24959     H
H      0.61953  0.25447  0.74959     H
O       0.6222   0.5118   0.1181     O
O       0.6222   0.9882   0.6181     O
Zn     0.65449  0.05293  0.75374    Zn
Zn     0.65449  0.44707  0.25374    Zn
C       0.6561   0.7457    0.009     C
C       0.6561   0.7543    0.509     C
C       0.6571   0.5995   0.4065     C
C       0.6571   0.9005   0.9065     C
C       0.6593   0.5943    0.118     C
C       0.6593   0.9057    0.618     C
H       0.7104   0.7381   0.5622     H
H       0.7104   0.7619   0.0622     H
O       0.7257   0.6239   0.1935     O
O       0.7257   0.8761   0.6935     O
O       0.7288   0.1405    0.083     O
O       0.7288   0.3595    0.583     O
O       0.7318   0.5859   0.4765     O
O       0.7318   0.9141   0.9765     O
H       0.7324   0.2272   0.7167     H
H       0.7324   0.2728   0.2167     H
O       0.7725   0.0848   0.8583     O
H       0.7725  0.16217  0.88578     H
H       0.7725  0.33783  0.38578     H
O       0.7725   0.4152   0.3583     O
C       0.7888   0.2089   0.7476     C
C       0.7888   0.2911   0.2476     C
C       0.8034   0.1623   0.1278     C
C       0.8034   0.3377   0.6278     C
Zn      0.8179  0.01378  0.99818    Zn
Zn      0.8179  0.48622  0.49818    Zn
C       0.8223   0.1337    0.827     C
C       0.8223   0.3663    0.327     C
C       0.8395   0.2432   0.2144     C
C       0.8395   0.2568   0.7144     C
O        0.855   0.1177    0.108     O
O        0.855   0.3823    0.608     O
C       0.9076   0.1086   0.8733     C
C       0.9076   0.3914   0.3733     C
O       0.9115   0.6536   0.6573     O
O       0.9115   0.8464   0.1573     O
C       0.9236   0.2306   0.7599     C
C       0.9236   0.2694   0.2599     C
O       0.9236    0.558   0.5407     O
O       0.9236    0.942   0.0407     O
H       0.9308   0.0595   0.9272     H
H       0.9308   0.4405   0.4272     H
C       0.9526   0.6218   0.6169     C
C       0.9526   0.8782   0.1169     C
H       0.9572   0.2375   0.2373     H
H       0.9572   0.2625   0.7373     H
C       0.9577   0.1557   0.8402     C
C       0.9577   0.3443   0.3402     C
