data_I
_chemical_name_common  '/home/zhangsd/repos/MofS-CGCNN/ML/data/SSD/clean_cifs/OGAXUR_clean'
_cell_length_a  8.38480
_cell_length_b 17.23430
_cell_length_c 17.23430
_cell_angle_alpha 62.57740
_cell_angle_beta  80.66700
_cell_angle_gamma 99.33300
_space_group_name_H-M_alt      'P 1'


loop_
_space_group_symop_operation_xyz
  'x, y, z' 

loop_
_atom_site_label
_atom_site_fract_x
_atom_site_fract_y
_atom_site_fract_z
_atom_site_type_symbol
C       0.0174   0.7355   0.1968     C
C       0.0264   0.4633   0.9625     C
Co     0.03645  0.21929  0.93323    Co
N       0.0461   0.3045   0.0005     N
N       0.0466   0.0005    0.695     N
H        0.053   0.1495   0.2635     H
H       0.0554   0.8837    0.691     H
C         0.06   0.3999   0.9252     C
H       0.0623     0.13   0.6352     H
C       0.1038   0.5589   0.0269     C
C       0.1135   0.9184   0.2667     C
O       0.1149    0.844   0.8593     O
H        0.119   0.9064   0.3894     H
C       0.1307   0.0269   0.4142     C
C       0.1307   0.9848   0.5065     C
O       0.1322   0.7047   0.1723     O
C       0.1459   0.5087   0.9848     C
O       0.1532   0.1535   0.0346     O
H       0.1559   0.2969   0.5988     H
H       0.1684   0.5958   0.1136     H
H       0.1717   0.4253   0.8837     H
H       0.1849   0.5925   0.4363     H
O       0.1876   0.9717   0.1856     O
O       0.1878   0.0346   0.8119     O
H       0.1888   0.4483   0.5201     H
C       0.1951   0.8149   0.9184     C
C       0.2008   0.9152   0.3373     C
C       0.2025   0.2965   0.0285     C
H       0.2044   0.3143   0.0742     H
H       0.2126   0.7042   0.9064     H
C       0.2142   0.1968   0.0677     C
O       0.2159   0.8427   0.9717     O
C       0.2288   0.6005    0.058     C
C        0.231   0.0285    0.675     C
H       0.2476   0.8635   0.3573     H
H       0.2515   0.2693   0.6744     H
H       0.2558   0.8937   0.5801     H
C       0.2642    0.297   0.6103     C
O       0.2709   0.2967    0.844     O
H       0.2748   0.9765   0.6866     H
H       0.2786   0.0742   0.6115     H
C       0.2819   0.0677   0.7355     C
H        0.282   0.1136   0.2906     H
C       0.2856   0.7475   0.9152     C
C       0.2868    0.058   0.3415     C
C       0.2888   0.9552   0.5306     C
H       0.2938   0.6575   0.4599     H
C       0.2973   0.6222     0.43     C
H       0.2983   0.3369   0.9765     H
C       0.3013   0.4633   0.5186     C
H       0.3044   0.5622   0.0743     H
O       0.3045   0.1723    0.123     O
H       0.3165   0.2635    0.587     H
C       0.3336   0.5142   0.9552     C
N       0.3368   0.9988   0.3036     N
N        0.338   0.6976   0.9988     N
Co     0.34499  0.77937  0.06674    Co
H       0.3484   0.9945    0.548     H
H       0.3539   0.4575   0.9945     H
H       0.3545   0.6614   0.3669     H
H       0.3603   0.9591   0.4787     H
H       0.3621   0.5262   0.8937     H
C        0.372   0.3932   0.5637     C
O       0.3732   0.1856   0.8427     O
H       0.3787   0.0743   0.3635     H
C       0.3802   0.2667   0.8149     C
H       0.3841   0.7792   0.8635     H
C       0.3881    0.553   0.4721     C
H       0.4012   0.5622   0.9591     H
Co     0.41173  0.06674  0.15389    Co
O       0.4275    0.123   0.7047     O
H       0.4659   0.9246   0.3911     H
O       0.4681   0.7023   0.1618     O
C       0.4932   0.9709   0.3276     C
H       0.5084   0.3894   0.7042     H
C       0.5223   0.7015   0.9709     C
C       0.5381   0.3373   0.7475     C
H       0.5408   0.6146   0.3111     H
H       0.5413   0.6843   0.9246     H
O       0.5436   0.9682   0.1887     O
C       0.5449   0.4142   0.5589     C
H       0.5552   0.6601   0.0228     H
C       0.5593   0.9332   0.2662     C
C       0.5631   0.5742   0.4633     C
Co     0.56562  0.15389  0.77937    Co
C       0.5694   0.7318   0.1934     C
H       0.5726   0.2906   0.5958     H
O       0.5754   0.8431   0.9682     O
H        0.578   0.0228   0.3171     H
H       0.5836   0.7123   0.3965     H
H       0.5924   0.9712   0.5925     H
H       0.6049   0.3573   0.7792     H
H       0.6212   0.4363   0.9712     H
C       0.6261   0.8006   0.9332     C
C       0.6283   0.3415   0.6005     C
O       0.6299   0.1618   0.1359     O
C        0.636   0.6624   0.2635     C
H       0.6363   0.8826   0.6575     H
C       0.6372   0.5065   0.5087     C
O       0.6389   0.8158   0.1622     O
N       0.6404   0.3036   0.6976     N
O       0.6472   0.8785   0.2982     O
C       0.6601   0.6749   0.3999     C
C       0.6751   0.9478   0.6222     C
H       0.6931   0.9717   0.6614     H
H       0.6975   0.6352   0.2348     H
H       0.7089   0.5201   0.0316     H
H       0.7214   0.3669   0.9717     H
C       0.7273     0.43   0.9478     C
O       0.7323   0.1887   0.8431     O
H       0.7405   0.0316   0.4483     H
N       0.7416    0.695   0.3045     N
H       0.7422   0.3635   0.5622     H
H       0.7464    0.691   0.4253     H
H       0.7537   0.4599   0.8826     H
H       0.7547   0.5988   0.1043     H
C       0.7628   0.1934   0.0748     C
O       0.7658   0.1359   0.7023     O
O       0.7687   0.8233   0.8785     O
O       0.8011   0.1622    0.022     O
Co     0.81716  0.84748  0.21929    Co
C       0.8194   0.5306   0.5142     C
C       0.8199   0.5186   0.0181     C
C       0.8208   0.3276   0.7015     C
O       0.8231    0.022   0.8158     O
C       0.8255   0.2662   0.8006     C
C       0.8351   0.9749    0.553     C
H       0.8359   0.5801   0.5262     H
C       0.8376   0.0748   0.7318     C
C        0.838   0.0181   0.4633     C
H        0.839   0.4787   0.5622     H
H       0.8519   0.3111   0.0743     H
H        0.857   0.3911   0.6843     H
H        0.859   0.1043   0.2969     H
C       0.8602   0.4721   0.9749     C
H       0.8713   0.8912   0.7123     H
C       0.8745   0.6103   0.0927     C
H       0.8901   0.6115   0.3143     H
H       0.8951   0.3171   0.6601     H
H       0.8964    0.548   0.4575     H
C       0.8995   0.2635   0.0741     C
H       0.9035    0.587   0.1495     H
C        0.906    0.675   0.2965     C
H       0.9259   0.6744   0.0563     H
H       0.9262   0.0743   0.6146     H
H       0.9323   0.2348     0.13     H
C       0.9357   0.5637   0.0431     C
O       0.9454   0.2982   0.8233     O
H       0.9614   0.6866   0.3369     H
C       0.9672   0.0927    0.297     C
Co     0.96968  0.93323  0.84748    Co
C       0.9736   0.0741   0.6624     C
O       0.9742   0.8593   0.2967     O
C       0.9788   0.0431   0.3932     C
H       0.9801   0.3965   0.8912     H
H       0.9822   0.0563   0.2693     H
C       0.9852   0.9252   0.6749     C
C       0.9889   0.9625   0.5742     C
O       0.9997   0.8119   0.1535     O
