data_I
_chemical_name_common  '/home/zhangsd/repos/MofS-CGCNN/ML/data/SSD/clean_cifs/OKINIG_clean'
_cell_length_a  9.47780
_cell_length_b  9.95380
_cell_length_c 17.69200
_cell_angle_alpha 90.00000
_cell_angle_beta  90.00000
_cell_angle_gamma 104.41900
_space_group_name_H-M_alt      'P 1'


loop_
_space_group_symop_operation_xyz
  'x, y, z' 

loop_
_atom_site_label
_atom_site_fract_x
_atom_site_fract_y
_atom_site_fract_z
_atom_site_type_symbol
Li      0.0271   0.4464   0.0927    Li
Li      0.0272   0.9522   0.0198    Li
O       0.0495   0.3813   0.1997     O
O       0.0527   0.7791  0.06152     O
O       0.0574   0.9091  0.91026     O
O        0.065    0.285   0.0375     O
Li      0.1292    0.193   0.3619    Li
Li      0.1332   0.8293   0.5168    Li
Li      0.1347   0.7038   0.7575    Li
Li      0.1378   0.3442   0.5407    Li
O       0.1438   0.7355  0.86714     O
O       0.1539   0.2287  0.25277     O
C       0.1573   0.3289   0.2098     C
C       0.1577   0.8446   0.9049     C
O       0.1623    0.363   0.4215     O
O       0.1635   0.5299  0.57376     O
O       0.1638   0.0246   0.5383     O
O       0.1649   0.1089  0.05973     O
C       0.1672   0.7344   0.0526     C
O       0.1703   0.6118  0.06264     O
H       0.1704   0.4444   0.4111     H
C       0.1707   0.2348   0.0597     C
O       0.2067   0.8608   0.4111     O
Li      0.2197   0.0509   0.2409    Li
O       0.2446   0.5752  0.73934     O
O       0.2463   0.3554   0.7306     O
H       0.2538   0.3472   0.4196     H
O       0.2607   0.0734  0.36166     O
O       0.2705   0.7554  0.57367     O
C       0.2748   0.6312  0.57882     C
C         0.28   0.1228    0.541     C
O       0.2805   0.2455  0.55632     O
C       0.2913   0.9831   0.4034     C
C       0.2966   0.4816   0.7139     C
C       0.2972   0.3978  0.16708     C
C       0.2982   0.9061   0.9479     C
H       0.2984    0.496   0.1613     H
H       0.3051   0.0054   0.9543     H
C       0.3053   0.8435   0.0296     C
C       0.3089   0.3389   0.0854     C
H       0.3162   0.9205   0.0654     H
H       0.3247   0.4178   0.0505     H
C       0.4201   0.5936   0.5892     C
C       0.4232   0.0843   0.5269     C
H        0.427   0.5288   0.5485     H
H       0.4317   0.0163   0.5656     H
H        0.433   0.9266    0.852     H
C       0.4331   0.0145   0.4477     C
C       0.4339   0.5172    0.665     C
H       0.4354   0.4288   0.2625     H
C       0.4356   0.8932   0.9039     C
C       0.4375   0.3919   0.2113     C
C       0.4434   0.7438   0.9043     C
C       0.4436     0.79   0.0364     C
H       0.4456   0.6933   0.8602     H
C       0.4463   0.2812   0.0809     C
H       0.4468   0.7451   0.0854     H
C       0.4469   0.6905   0.9729     C
C       0.4479   0.2438   0.2137     C
C       0.4485   0.1855   0.1464     C
H       0.4496   0.2334   0.0328     H
H       0.4501   0.0931   0.1402     H
H        0.451   0.5992    0.981     H
H       0.4535    0.197   0.2587     H
H       0.4565   0.9256   0.4575     H
H       0.4592   0.4302   0.6525     H
H       0.5408   0.5698   0.1525     H
H       0.5435   0.0744   0.9575     H
H       0.5465    0.803   0.7587     H
H        0.549   0.4008    0.481     H
H       0.5499   0.9069   0.6402     H
H       0.5504   0.7666   0.5328     H
C       0.5515   0.8145   0.6464     C
C       0.5521   0.7562   0.7137     C
C       0.5531   0.3095   0.4729     C
H       0.5532   0.2549   0.5854     H
C       0.5537   0.7188   0.5809     C
H       0.5544   0.3067   0.3602     H
C       0.5564     0.21   0.5364     C
C       0.5566   0.2562   0.4043     C
C       0.5625   0.6081   0.7113     C
C       0.5644   0.1068   0.4039     C
H       0.5646   0.5712   0.7625     H
C       0.5661   0.4828    0.165     C
C       0.5669   0.9855   0.9477     C
H        0.567   0.0734    0.352     H
H       0.5683   0.9837   0.0656     H
H        0.573   0.4712   0.0485     H
C       0.5768   0.9157   0.0269     C
C       0.5799   0.4064   0.0892     C
H       0.6753   0.5822   0.5505     H
H       0.6838   0.0795   0.5654     H
C       0.6911   0.6611   0.5854     C
C       0.6947   0.1565   0.5296     C
H       0.6949   0.9946   0.4543     H
H       0.7016    0.504   0.6613     H
C       0.7018   0.0939   0.4479     C
C       0.7028   0.6022  0.66708     C
C       0.7034   0.5184   0.2139     C
C       0.7087   0.0169   0.9034     C
O       0.7195   0.7545  0.05632     O
C         0.72   0.8772    0.041     C
C       0.7252   0.3688  0.07882     C
O       0.7295   0.2446  0.07367     O
O       0.7393   0.9266  0.86166     O
H       0.7462   0.6528   0.9196     H
O       0.7537   0.6446   0.2306     O
O       0.7554   0.4248  0.23934     O
Li      0.7803   0.9491   0.7409    Li
O       0.7933   0.1392   0.9111     O
C       0.8293   0.7652   0.5597     C
H       0.8296   0.5556   0.9111     H
O       0.8297   0.3882  0.56264     O
C       0.8328   0.2656   0.5526     C
O       0.8351   0.8911  0.55973     O
O       0.8362   0.9754   0.0383     O
O       0.8365   0.4701  0.07376     O
O       0.8377    0.637   0.9215     O
C       0.8423   0.1554   0.4049     C
C       0.8427   0.6711   0.7098     C
O       0.8461   0.7713  0.75277     O
O       0.8562   0.2645  0.36714     O
Li      0.8622   0.6558   0.0407    Li
Li      0.8653   0.2962   0.2575    Li
Li      0.8668   0.1707   0.0168    Li
Li      0.8708    0.807   0.8619    Li
O        0.935    0.715   0.5375     O
O       0.9426   0.0909  0.41026     O
O       0.9473   0.2209  0.56152     O
O       0.9505   0.6187   0.6997     O
Li      0.9728   0.0478   0.5198    Li
Li      0.9729   0.5536   0.5927    Li
