data_I
_chemical_name_common  '/home/zhangsd/repos/MofS-CGCNN/ML/data/SSD/clean_cifs/OKUSUK_clean'
_cell_length_a 46.37100
_cell_length_b 46.37100
_cell_length_c 46.37100
_cell_angle_alpha 90.00000
_cell_angle_beta  90.00000
_cell_angle_gamma 90.00000
_space_group_name_H-M_alt      'P 1'


loop_
_space_group_symop_operation_xyz
  'x, y, z' 

loop_
_atom_site_label
_atom_site_fract_x
_atom_site_fract_y
_atom_site_fract_z
_atom_site_type_symbol
Cu         0.0      0.0  0.14625    Cu
Cu         0.0      0.0  0.19997    Cu
Cu         0.0      0.0  0.80003    Cu
Cu         0.0      0.0  0.85375    Cu
Cu         0.0  0.14625      0.0    Cu
Cu         0.0  0.19997      0.0    Cu
Cu         0.0  0.30003      0.5    Cu
Cu         0.0  0.35375      0.5    Cu
Cu         0.0      0.5  0.30003    Cu
Cu         0.0      0.5  0.35375    Cu
Cu         0.0      0.5  0.64625    Cu
Cu         0.0      0.5  0.69997    Cu
Cu         0.0  0.64625      0.5    Cu
Cu         0.0  0.69997      0.5    Cu
Cu         0.0  0.80003      0.0    Cu
Cu         0.0  0.85375      0.0    Cu
H        9e-05  0.08967  0.87206     H
H        9e-05  0.41033  0.62794     H
H        9e-05  0.58967  0.37206     H
H        9e-05  0.91033  0.12794     H
H      0.00045   0.1288   0.9112     H
H      0.00045   0.3712   0.5888     H
H      0.00045   0.6288   0.4112     H
H      0.00045   0.8712   0.0888     H
O      0.00048  0.03977  0.14921     O
O      0.00048  0.15003  0.96104     O
O      0.00048  0.34997  0.53896     O
O      0.00048  0.46023  0.35079     O
O      0.00048  0.53977  0.64921     O
O      0.00048  0.65003  0.46104     O
O      0.00048  0.84997  0.03896     O
O      0.00048  0.96023  0.85079     O
O      0.00058  0.03954  0.19678     O
O      0.00058  0.19759  0.96127     O
O      0.00058  0.30241  0.53873     O
O      0.00058  0.46046  0.30322     O
O      0.00058  0.53954  0.69678     O
O      0.00058  0.69759  0.46127     O
O      0.00058  0.80241  0.03873     O
O      0.00058  0.96046  0.80322     O
C      0.00069  0.05325  0.17308     C
C      0.00069  0.44675  0.32692     C
C      0.00069  0.55325  0.67308     C
C      0.00069  0.94675  0.82692     C
C       0.0007  0.17389  0.94756     C
C       0.0007  0.32611  0.55244     C
C       0.0007  0.67389  0.44756     C
C       0.0007  0.82611  0.05244     C
C      0.00087  0.10028  0.85127     C
C      0.00087  0.39972  0.64873     C
C      0.00087  0.60028  0.35127     C
C      0.00087  0.89972  0.14873     C
C      0.00092   0.0844   0.8252     C
C      0.00092   0.4156   0.6748     C
C      0.00092   0.5844   0.3252     C
C      0.00092   0.9156   0.1748     C
C      0.00204  0.14955  0.90062     C
C      0.00204  0.35045  0.59938     C
C      0.00204  0.64955  0.40062     C
C      0.00204  0.85045  0.09938     C
C      0.00217  0.09931  0.79845     C
C      0.00217  0.40069  0.70155     C
C      0.00217  0.59931  0.29845     C
C      0.00217  0.90069  0.20155     C
C      0.00223  0.13025  0.84956     C
C      0.00223  0.36975  0.65044     C
C      0.00223  0.63025  0.34956     C
C      0.00223  0.86975  0.15044     C
H       0.0023  0.08755  0.77827     H
H       0.0023  0.41245  0.72173     H
H       0.0023  0.58755  0.27827     H
H       0.0023  0.91245  0.22173     H
C      0.00276  0.17561   0.9165     C
C      0.00276  0.32439   0.5835     C
C      0.00276  0.67561   0.4165     C
C      0.00276  0.82439   0.0835     C
C      0.00309  0.15126  0.87062     C
C      0.00309  0.34874  0.62938     C
C      0.00309  0.65126  0.37062     C
C      0.00309  0.84874  0.12938     C
C       0.0034  0.14455  0.82349     C
C       0.0034  0.35545  0.67651     C
C       0.0034  0.64455  0.32349     C
C       0.0034  0.85545  0.17651     C
C      0.00347  0.12953  0.79746     C
C      0.00347  0.37047  0.70254     C
C      0.00347  0.62953  0.29746     C
C      0.00347  0.87047  0.20254     C
C      0.00468  0.20233  0.90161     C
C      0.00468  0.29767  0.59839     C
C      0.00468  0.70233  0.40161     C
C      0.00468  0.79767  0.09839     C
H      0.00469  0.14067    0.777     H
H      0.00469  0.35933    0.723     H
H      0.00469  0.64067    0.277     H
H      0.00469  0.85933    0.223     H
C      0.00498   0.1773  0.85634     C
C      0.00498   0.3227  0.64366     C
C      0.00498   0.6773  0.35634     C
C      0.00498   0.8227  0.14366     C
N      0.00514  0.17342  0.82742     N
N      0.00514  0.32658  0.67258     N
N      0.00514  0.67342  0.32742     N
N      0.00514  0.82658  0.17258     N
H      0.00518  0.22249  0.91337     H
H      0.00518  0.27751  0.58663     H
H      0.00518  0.72249  0.41337     H
H      0.00518  0.77751  0.08663     H
C      0.00546  0.19588  0.80504     C
C      0.00546  0.30412  0.69496     C
C      0.00546  0.69588  0.30504     C
C      0.00546  0.80412  0.19496     C
C      0.00575  0.20331  0.87138     C
C      0.00575  0.29669  0.62862     C
C      0.00575  0.70331  0.37138     C
C      0.00575  0.79669  0.12862     C
C      0.00582  0.23835  0.76183     C
C      0.00582  0.26165  0.73817     C
C      0.00582  0.73835  0.26183     C
C      0.00582  0.76165  0.23817     C
H      0.00692  0.22377  0.86023     H
H      0.00692  0.27623  0.63977     H
H      0.00692  0.72377  0.36023     H
H      0.00692  0.77623  0.13977     H
C      0.01797  0.22119  0.23375     C
C      0.01797  0.27881  0.26625     C
C      0.01797  0.72119  0.73375     C
C      0.01797  0.77881  0.76625     C
C      0.01805  0.19994   0.2124     C
C      0.01805  0.30006   0.2876     C
C      0.01805  0.69994   0.7124     C
C      0.01805  0.80006   0.7876     C
C      0.02996  0.21303  0.80084     C
C      0.02996  0.28697  0.69916     C
C      0.02996  0.71303  0.30084     C
C      0.02996  0.78697  0.19916     C
C      0.03024  0.23401  0.77924     C
C      0.03024  0.26599  0.72076     C
C      0.03024  0.73401  0.27924     C
C      0.03024  0.76599  0.22076     C
H      0.03696  0.22403  0.24705     H
H      0.03696  0.27597  0.25295     H
H      0.03696  0.72403  0.74705     H
H      0.03696  0.77597  0.75295     H
H      0.03708  0.18678  0.20927     H
H      0.03708  0.31322  0.29073     H
H      0.03708  0.68678  0.70927     H
H      0.03708  0.81322  0.79073     H
O      0.03873  0.00058  0.80241     O
O      0.03873  0.49942  0.69759     O
O      0.03873  0.50058  0.30241     O
O      0.03873  0.99942  0.19759     O
O      0.03896  0.00048  0.84997     O
O      0.03896  0.49952  0.65003     O
O      0.03896  0.50048  0.34997     O
O      0.03896  0.99952  0.15003     O
O      0.03954  0.19678  0.00058     O
O      0.03954  0.30322  0.49942     O
O      0.03954  0.69678  0.50058     O
O      0.03954  0.80322  0.99942     O
O      0.03977  0.14921  0.00048     O
O      0.03977  0.35079  0.49952     O
O      0.03977  0.64921  0.50048     O
O      0.03977  0.85079  0.99952     O
H      0.04886  0.20996  0.81421     H
H      0.04886  0.29004  0.68579     H
H      0.04886  0.70996  0.31421     H
H      0.04886  0.79004  0.18579     H
H      0.04937   0.2471  0.77634     H
H      0.04937   0.2529  0.72366     H
H      0.04937   0.7471  0.27634     H
H      0.04937   0.7529  0.22366     H
C      0.05244   0.0007  0.82611     C
C      0.05244   0.4993  0.67389     C
C      0.05244   0.5007  0.32611     C
C      0.05244   0.9993  0.17389     C
C      0.05325  0.17308  0.00069     C
C      0.05325  0.32692  0.49931     C
C      0.05325  0.67308  0.50069     C
C      0.05325  0.82692  0.99931     C
C       0.0835  0.00276  0.82439     C
C       0.0835  0.49724  0.67561     C
C       0.0835  0.50276  0.32439     C
C       0.0835  0.99724  0.17561     C
C       0.0844   0.1748  0.99908     C
C       0.0844   0.3252  0.50092     C
C       0.0844   0.6748  0.49908     C
C       0.0844   0.8252  0.00092     C
H      0.08663  0.00518  0.77751     H
H      0.08663  0.49482  0.72249     H
H      0.08663  0.50518  0.27751     H
H      0.08663  0.99482  0.22249     H
H      0.08755  0.22173   0.9977     H
H      0.08755  0.27827   0.5023     H
H      0.08755  0.72173   0.4977     H
H      0.08755  0.77827   0.0023     H
H       0.0888  0.00045   0.8712     H
H       0.0888  0.49955   0.6288     H
H       0.0888  0.50045   0.3712     H
H       0.0888  0.99955   0.1288     H
H      0.08967  0.12794  0.99991     H
H      0.08967  0.37206  0.50009     H
H      0.08967  0.62794  0.49991     H
H      0.08967  0.87206    9e-05     H
C      0.09839  0.00468  0.79767     C
C      0.09839  0.49532  0.70233     C
C      0.09839  0.50468  0.29767     C
C      0.09839  0.99532  0.20233     C
C      0.09931  0.20155  0.99783     C
C      0.09931  0.29845  0.50217     C
C      0.09931  0.70155  0.49783     C
C      0.09931  0.79845  0.00217     C
C      0.09938  0.00204  0.85045     C
C      0.09938  0.49796  0.64955     C
C      0.09938  0.50204  0.35045     C
C      0.09938  0.99796  0.14955     C
C      0.10028  0.14873  0.99913     C
C      0.10028  0.35127  0.50087     C
C      0.10028  0.64873  0.49913     C
C      0.10028  0.85127  0.00087     C
H      0.12794    9e-05  0.91033     H
H      0.12794  0.49991  0.58967     H
H      0.12794  0.50009  0.41033     H
H      0.12794  0.99991  0.08967     H
C      0.12862  0.00575  0.79669     C
C      0.12862  0.49425  0.70331     C
C      0.12862  0.50575  0.29669     C
C      0.12862  0.99425  0.20331     C
H       0.1288   0.0888  0.99955     H
H       0.1288   0.4112  0.50045     H
H       0.1288   0.5888  0.49955     H
H       0.1288   0.9112  0.00045     H
C      0.12938  0.00309  0.84874     C
C      0.12938  0.49691  0.65126     C
C      0.12938  0.50309  0.34874     C
C      0.12938  0.99691  0.15126     C
C      0.12953  0.20254  0.99653     C
C      0.12953  0.29746  0.50347     C
C      0.12953  0.70254  0.49653     C
C      0.12953  0.79746  0.00347     C
C      0.13025  0.15044  0.99777     C
C      0.13025  0.34956  0.50223     C
C      0.13025  0.65044  0.49777     C
C      0.13025  0.84956  0.00223     C
H      0.13977  0.00692  0.77623     H
H      0.13977  0.49308  0.72377     H
H      0.13977  0.50692  0.27623     H
H      0.13977  0.99308  0.22377     H
H      0.14067    0.223  0.99531     H
H      0.14067    0.277  0.50469     H
H      0.14067    0.723  0.49531     H
H      0.14067    0.777  0.00469     H
C      0.14366  0.00498   0.8227     C
C      0.14366  0.49502   0.6773     C
C      0.14366  0.50498   0.3227     C
C      0.14366  0.99502   0.1773     C
C      0.14455  0.17651   0.9966     C
C      0.14455  0.32349   0.5034     C
C      0.14455  0.67651   0.4966     C
C      0.14455  0.82349   0.0034     C
Cu     0.14625      0.0      0.0    Cu
Cu     0.14625      0.5      0.5    Cu
C      0.14873  0.00087  0.89972     C
C      0.14873  0.49913  0.60028     C
C      0.14873  0.50087  0.39972     C
C      0.14873  0.99913  0.10028     C
O      0.14921  0.00048  0.03977     O
O      0.14921  0.49952  0.46023     O
O      0.14921  0.50048  0.53977     O
O      0.14921  0.99952  0.96023     O
C      0.14955  0.09938  0.99796     C
C      0.14955  0.40062  0.50204     C
C      0.14955  0.59938  0.49796     C
C      0.14955  0.90062  0.00204     C
O      0.15003  0.03896  0.99952     O
O      0.15003  0.46104  0.50048     O
O      0.15003  0.53896  0.49952     O
O      0.15003  0.96104  0.00048     O
C      0.15044  0.00223  0.86975     C
C      0.15044  0.49777  0.63025     C
C      0.15044  0.50223  0.36975     C
C      0.15044  0.99777  0.13025     C
C      0.15126  0.12938  0.99691     C
C      0.15126  0.37062  0.50309     C
C      0.15126  0.62938  0.49691     C
C      0.15126  0.87062  0.00309     C
N      0.17258  0.00514  0.82658     N
N      0.17258  0.49486  0.67342     N
N      0.17258  0.50514  0.32658     N
N      0.17258  0.99486  0.17342     N
C      0.17308  0.00069  0.05325     C
C      0.17308  0.49931  0.44675     C
C      0.17308  0.50069  0.55325     C
C      0.17308  0.99931  0.94675     C
N      0.17342  0.17258  0.99486     N
N      0.17342  0.32742  0.50514     N
N      0.17342  0.67258  0.49486     N
N      0.17342  0.82742  0.00514     N
C      0.17389  0.05244   0.9993     C
C      0.17389  0.44756   0.5007     C
C      0.17389  0.55244   0.4993     C
C      0.17389  0.94756   0.0007     C
C       0.1748  0.00092   0.9156     C
C       0.1748  0.49908   0.5844     C
C       0.1748  0.50092   0.4156     C
C       0.1748  0.99908   0.0844     C
C      0.17561   0.0835  0.99724     C
C      0.17561   0.4165  0.50276     C
C      0.17561   0.5835  0.49724     C
C      0.17561   0.9165  0.00276     C
C      0.17651   0.0034  0.85545     C
C      0.17651   0.4966  0.64455     C
C      0.17651   0.5034  0.35545     C
C      0.17651   0.9966  0.14455     C
C       0.1773  0.14366  0.99502     C
C       0.1773  0.35634  0.50498     C
C       0.1773  0.64366  0.49502     C
C       0.1773  0.85634  0.00498     C
H      0.18579  0.04886  0.79004     H
H      0.18579  0.45114  0.70996     H
H      0.18579  0.54886  0.29004     H
H      0.18579  0.95114  0.20996     H
H      0.18678  0.20927  0.03708     H
H      0.18678  0.29073  0.46292     H
H      0.18678  0.70927  0.53708     H
H      0.18678  0.79073  0.96292     H
C      0.19496  0.00546  0.80412     C
C      0.19496  0.49454  0.69588     C
C      0.19496  0.50546  0.30412     C
C      0.19496  0.99454  0.19588     C
C      0.19588  0.19496  0.99454     C
C      0.19588  0.30504  0.50546     C
C      0.19588  0.69496  0.49454     C
C      0.19588  0.80504  0.00546     C
O      0.19678  0.00058  0.03954     O
O      0.19678  0.49942  0.46046     O
O      0.19678  0.50058  0.53954     O
O      0.19678  0.99942  0.96046     O
O      0.19759  0.03873  0.99942     O
O      0.19759  0.46127  0.50058     O
O      0.19759  0.53873  0.49942     O
O      0.19759  0.96127  0.00058     O
C      0.19916  0.02996  0.78697     C
C      0.19916  0.47004  0.71303     C
C      0.19916  0.52996  0.28697     C
C      0.19916  0.97004  0.21303     C
C      0.19994   0.2124  0.01805     C
C      0.19994   0.2876  0.48195     C
C      0.19994   0.7124  0.51805     C
C      0.19994   0.7876  0.98195     C
Cu     0.19997      0.0      0.0    Cu
Cu     0.19997      0.5      0.5    Cu
C      0.20155  0.00217  0.90069     C
C      0.20155  0.49783  0.59931     C
C      0.20155  0.50217  0.40069     C
C      0.20155  0.99783  0.09931     C
C      0.20233  0.09839  0.99532     C
C      0.20233  0.40161  0.50468     C
C      0.20233  0.59839  0.49532     C
C      0.20233  0.90161  0.00468     C
C      0.20254  0.00347  0.87047     C
C      0.20254  0.49653  0.62953     C
C      0.20254  0.50347  0.37047     C
C      0.20254  0.99653  0.12953     C
C      0.20331  0.12862  0.99425     C
C      0.20331  0.37138  0.50575     C
C      0.20331  0.62862  0.49425     C
C      0.20331  0.87138  0.00575     C
H      0.20927  0.03708  0.18678     H
H      0.20927  0.46292  0.31322     H
H      0.20927  0.53708  0.68678     H
H      0.20927  0.96292  0.81322     H
H      0.20996  0.18579  0.95114     H
H      0.20996  0.31421  0.54886     H
H      0.20996  0.68579  0.45114     H
H      0.20996  0.81421  0.04886     H
C       0.2124  0.01805  0.19994     C
C       0.2124  0.48195  0.30006     C
C       0.2124  0.51805  0.69994     C
C       0.2124  0.98195  0.80006     C
C      0.21303  0.19916  0.97004     C
C      0.21303  0.30084  0.52996     C
C      0.21303  0.69916  0.47004     C
C      0.21303  0.80084  0.02996     C
C      0.22076  0.03024  0.76599     C
C      0.22076  0.46976  0.73401     C
C      0.22076  0.53024  0.26599     C
C      0.22076  0.96976  0.23401     C
C      0.22119  0.23375  0.01797     C
C      0.22119  0.26625  0.48203     C
C      0.22119  0.73375  0.51797     C
C      0.22119  0.76625  0.98203     C
H      0.22173   0.0023  0.91245     H
H      0.22173   0.4977  0.58755     H
H      0.22173   0.5023  0.41245     H
H      0.22173   0.9977  0.08755     H
H      0.22249  0.08663  0.99482     H
H      0.22249  0.41337  0.50518     H
H      0.22249  0.58663  0.49482     H
H      0.22249  0.91337  0.00518     H
H        0.223  0.00469  0.85933     H
H        0.223  0.49531  0.64067     H
H        0.223  0.50469  0.35933     H
H        0.223  0.99531  0.14067     H
H      0.22366  0.04937   0.7529     H
H      0.22366  0.45063   0.7471     H
H      0.22366  0.54937   0.2529     H
H      0.22366  0.95063   0.2471     H
H      0.22377  0.13977  0.99308     H
H      0.22377  0.36023  0.50692     H
H      0.22377  0.63977  0.49308     H
H      0.22377  0.86023  0.00692     H
H      0.22403  0.24705  0.03696     H
H      0.22403  0.25295  0.46304     H
H      0.22403  0.74705  0.53696     H
H      0.22403  0.75295  0.96304     H
C      0.23375  0.01797  0.22119     C
C      0.23375  0.48203  0.27881     C
C      0.23375  0.51797  0.72119     C
C      0.23375  0.98203  0.77881     C
C      0.23401  0.22076  0.96976     C
C      0.23401  0.27924  0.53024     C
C      0.23401  0.72076  0.46976     C
C      0.23401  0.77924  0.03024     C
C      0.23817  0.00582  0.76165     C
C      0.23817  0.49418  0.73835     C
C      0.23817  0.50582  0.26165     C
C      0.23817  0.99418  0.23835     C
C      0.23835  0.23817  0.99418     C
C      0.23835  0.26183  0.50582     C
C      0.23835  0.73817  0.49418     C
C      0.23835  0.76183  0.00582     C
H      0.24705  0.03696  0.22403     H
H      0.24705  0.46304  0.27597     H
H      0.24705  0.53696  0.72403     H
H      0.24705  0.96304  0.77597     H
H       0.2471  0.22366  0.95063     H
H       0.2471  0.27634  0.54937     H
H       0.2471  0.72366  0.45063     H
H       0.2471  0.77634  0.04937     H
H       0.2529  0.22366  0.54937     H
H       0.2529  0.27634  0.95063     H
H       0.2529  0.72366  0.04937     H
H       0.2529  0.77634  0.45063     H
H      0.25295  0.03696  0.27597     H
H      0.25295  0.46304  0.22403     H
H      0.25295  0.53696  0.77597     H
H      0.25295  0.96304  0.72403     H
C      0.26165  0.23817  0.50582     C
C      0.26165  0.26183  0.99418     C
C      0.26165  0.73817  0.00582     C
C      0.26165  0.76183  0.49418     C
C      0.26183  0.00582  0.73835     C
C      0.26183  0.49418  0.76165     C
C      0.26183  0.50582  0.23835     C
C      0.26183  0.99418  0.26165     C
C      0.26599  0.22076  0.53024     C
C      0.26599  0.27924  0.96976     C
C      0.26599  0.72076  0.03024     C
C      0.26599  0.77924  0.46976     C
C      0.26625  0.01797  0.27881     C
C      0.26625  0.48203  0.22119     C
C      0.26625  0.51797  0.77881     C
C      0.26625  0.98203  0.72119     C
H      0.27597  0.24705  0.46304     H
H      0.27597  0.25295  0.03696     H
H      0.27597  0.74705  0.96304     H
H      0.27597  0.75295  0.53696     H
H      0.27623  0.13977  0.50692     H
H      0.27623  0.36023  0.99308     H
H      0.27623  0.63977  0.00692     H
H      0.27623  0.86023  0.49308     H
H      0.27634  0.04937   0.7471     H
H      0.27634  0.45063   0.7529     H
H      0.27634  0.54937   0.2471     H
H      0.27634  0.95063   0.2529     H
H        0.277  0.00469  0.64067     H
H        0.277  0.49531  0.85933     H
H        0.277  0.50469  0.14067     H
H        0.277  0.99531  0.35933     H
H      0.27751  0.08663  0.50518     H
H      0.27751  0.41337  0.99482     H
H      0.27751  0.58663  0.00518     H
H      0.27751  0.91337  0.49482     H
H      0.27827   0.0023  0.58755     H
H      0.27827   0.4977  0.91245     H
H      0.27827   0.5023  0.08755     H
H      0.27827   0.9977  0.41245     H
C      0.27881  0.23375  0.48203     C
C      0.27881  0.26625  0.01797     C
C      0.27881  0.73375  0.98203     C
C      0.27881  0.76625  0.51797     C
C      0.27924  0.03024  0.73401     C
C      0.27924  0.46976  0.76599     C
C      0.27924  0.53024  0.23401     C
C      0.27924  0.96976  0.26599     C
C      0.28697  0.19916  0.52996     C
C      0.28697  0.30084  0.97004     C
C      0.28697  0.69916  0.02996     C
C      0.28697  0.80084  0.47004     C
C       0.2876  0.01805  0.30006     C
C       0.2876  0.48195  0.19994     C
C       0.2876  0.51805  0.80006     C
C       0.2876  0.98195  0.69994     C
H      0.29004  0.18579  0.54886     H
H      0.29004  0.31421  0.95114     H
H      0.29004  0.68579  0.04886     H
H      0.29004  0.81421  0.45114     H
H      0.29073  0.03708  0.31322     H
H      0.29073  0.46292  0.18678     H
H      0.29073  0.53708  0.81322     H
H      0.29073  0.96292  0.68678     H
C      0.29669  0.12862  0.50575     C
C      0.29669  0.37138  0.99425     C
C      0.29669  0.62862  0.00575     C
C      0.29669  0.87138  0.49425     C
C      0.29746  0.00347  0.62953     C
C      0.29746  0.49653  0.87047     C
C      0.29746  0.50347  0.12953     C
C      0.29746  0.99653  0.37047     C
C      0.29767  0.09839  0.50468     C
C      0.29767  0.40161  0.99532     C
C      0.29767  0.59839  0.00468     C
C      0.29767  0.90161  0.49532     C
C      0.29845  0.00217  0.59931     C
C      0.29845  0.49783  0.90069     C
C      0.29845  0.50217  0.09931     C
C      0.29845  0.99783  0.40069     C
Cu     0.30003      0.0      0.5    Cu
Cu     0.30003      0.5      0.0    Cu
C      0.30006   0.2124  0.48195     C
C      0.30006   0.2876  0.01805     C
C      0.30006   0.7124  0.98195     C
C      0.30006   0.7876  0.51805     C
C      0.30084  0.02996  0.71303     C
C      0.30084  0.47004  0.78697     C
C      0.30084  0.52996  0.21303     C
C      0.30084  0.97004  0.28697     C
O      0.30241  0.03873  0.50058     O
O      0.30241  0.46127  0.99942     O
O      0.30241  0.53873  0.00058     O
O      0.30241  0.96127  0.49942     O
O      0.30322  0.00058  0.46046     O
O      0.30322  0.49942  0.03954     O
O      0.30322  0.50058  0.96046     O
O      0.30322  0.99942  0.53954     O
C      0.30412  0.19496  0.50546     C
C      0.30412  0.30504  0.99454     C
C      0.30412  0.69496  0.00546     C
C      0.30412  0.80504  0.49454     C
C      0.30504  0.00546  0.69588     C
C      0.30504  0.49454  0.80412     C
C      0.30504  0.50546  0.19588     C
C      0.30504  0.99454  0.30412     C
H      0.31322  0.20927  0.46292     H
H      0.31322  0.29073  0.03708     H
H      0.31322  0.70927  0.96292     H
H      0.31322  0.79073  0.53708     H
H      0.31421  0.04886  0.70996     H
H      0.31421  0.45114  0.79004     H
H      0.31421  0.54886  0.20996     H
H      0.31421  0.95114  0.29004     H
C       0.3227  0.14366  0.50498     C
C       0.3227  0.35634  0.99502     C
C       0.3227  0.64366  0.00498     C
C       0.3227  0.85634  0.49502     C
C      0.32349   0.0034  0.64455     C
C      0.32349   0.4966  0.85545     C
C      0.32349   0.5034  0.14455     C
C      0.32349   0.9966  0.35545     C
C      0.32439   0.0835  0.50276     C
C      0.32439   0.4165  0.99724     C
C      0.32439   0.5835  0.00276     C
C      0.32439   0.9165  0.49724     C
C       0.3252  0.00092   0.5844     C
C       0.3252  0.49908   0.9156     C
C       0.3252  0.50092   0.0844     C
C       0.3252  0.99908   0.4156     C
C      0.32611  0.05244   0.5007     C
C      0.32611  0.44756   0.9993     C
C      0.32611  0.55244   0.0007     C
C      0.32611  0.94756   0.4993     C
N      0.32658  0.17258  0.50514     N
N      0.32658  0.32742  0.99486     N
N      0.32658  0.67258  0.00514     N
N      0.32658  0.82742  0.49486     N
C      0.32692  0.00069  0.44675     C
C      0.32692  0.49931  0.05325     C
C      0.32692  0.50069  0.94675     C
C      0.32692  0.99931  0.55325     C
N      0.32742  0.00514  0.67342     N
N      0.32742  0.49486  0.82658     N
N      0.32742  0.50514  0.17342     N
N      0.32742  0.99486  0.32658     N
C      0.34874  0.12938  0.50309     C
C      0.34874  0.37062  0.99691     C
C      0.34874  0.62938  0.00309     C
C      0.34874  0.87062  0.49691     C
C      0.34956  0.00223  0.63025     C
C      0.34956  0.49777  0.86975     C
C      0.34956  0.50223  0.13025     C
C      0.34956  0.99777  0.36975     C
O      0.34997  0.03896  0.50048     O
O      0.34997  0.46104  0.99952     O
O      0.34997  0.53896  0.00048     O
O      0.34997  0.96104  0.49952     O
C      0.35045  0.09938  0.50204     C
C      0.35045  0.40062  0.99796     C
C      0.35045  0.59938  0.00204     C
C      0.35045  0.90062  0.49796     C
O      0.35079  0.00048  0.46023     O
O      0.35079  0.49952  0.03977     O
O      0.35079  0.50048  0.96023     O
O      0.35079  0.99952  0.53977     O
C      0.35127  0.00087  0.60028     C
C      0.35127  0.49913  0.89972     C
C      0.35127  0.50087  0.10028     C
C      0.35127  0.99913  0.39972     C
Cu     0.35375      0.0      0.5    Cu
Cu     0.35375      0.5      0.0    Cu
C      0.35545  0.17651   0.5034     C
C      0.35545  0.32349   0.9966     C
C      0.35545  0.67651   0.0034     C
C      0.35545  0.82349   0.4966     C
C      0.35634  0.00498   0.6773     C
C      0.35634  0.49502   0.8227     C
C      0.35634  0.50498   0.1773     C
C      0.35634  0.99502   0.3227     C
H      0.35933    0.223  0.50469     H
H      0.35933    0.277  0.99531     H
H      0.35933    0.723  0.00469     H
H      0.35933    0.777  0.49531     H
H      0.36023  0.00692  0.72377     H
H      0.36023  0.49308  0.77623     H
H      0.36023  0.50692  0.22377     H
H      0.36023  0.99308  0.27623     H
C      0.36975  0.15044  0.50223     C
C      0.36975  0.34956  0.99777     C
C      0.36975  0.65044  0.00223     C
C      0.36975  0.84956  0.49777     C
C      0.37047  0.20254  0.50347     C
C      0.37047  0.29746  0.99653     C
C      0.37047  0.70254  0.00347     C
C      0.37047  0.79746  0.49653     C
C      0.37062  0.00309  0.65126     C
C      0.37062  0.49691  0.84874     C
C      0.37062  0.50309  0.15126     C
C      0.37062  0.99691  0.34874     C
H       0.3712   0.0888  0.50045     H
H       0.3712   0.4112  0.99955     H
H       0.3712   0.5888  0.00045     H
H       0.3712   0.9112  0.49955     H
C      0.37138  0.00575  0.70331     C
C      0.37138  0.49425  0.79669     C
C      0.37138  0.50575  0.20331     C
C      0.37138  0.99425  0.29669     C
H      0.37206    9e-05  0.58967     H
H      0.37206  0.49991  0.91033     H
H      0.37206  0.50009  0.08967     H
H      0.37206  0.99991  0.41033     H
C      0.39972  0.14873  0.50087     C
C      0.39972  0.35127  0.99913     C
C      0.39972  0.64873  0.00087     C
C      0.39972  0.85127  0.49913     C
C      0.40062  0.00204  0.64955     C
C      0.40062  0.49796  0.85045     C
C      0.40062  0.50204  0.14955     C
C      0.40062  0.99796  0.35045     C
C      0.40069  0.20155  0.50217     C
C      0.40069  0.29845  0.99783     C
C      0.40069  0.70155  0.00217     C
C      0.40069  0.79845  0.49783     C
C      0.40161  0.00468  0.70233     C
C      0.40161  0.49532  0.79767     C
C      0.40161  0.50468  0.20233     C
C      0.40161  0.99532  0.29767     C
H      0.41033  0.12794  0.50009     H
H      0.41033  0.37206  0.99991     H
H      0.41033  0.62794    9e-05     H
H      0.41033  0.87206  0.49991     H
H       0.4112  0.00045   0.6288     H
H       0.4112  0.49955   0.8712     H
H       0.4112  0.50045   0.1288     H
H       0.4112  0.99955   0.3712     H
H      0.41245  0.22173   0.5023     H
H      0.41245  0.27827   0.9977     H
H      0.41245  0.72173   0.0023     H
H      0.41245  0.77827   0.4977     H
H      0.41337  0.00518  0.72249     H
H      0.41337  0.49482  0.77751     H
H      0.41337  0.50518  0.22249     H
H      0.41337  0.99482  0.27751     H
C       0.4156   0.1748  0.50092     C
C       0.4156   0.3252  0.99908     C
C       0.4156   0.6748  0.00092     C
C       0.4156   0.8252  0.49908     C
C       0.4165  0.00276  0.67561     C
C       0.4165  0.49724  0.82439     C
C       0.4165  0.50276  0.17561     C
C       0.4165  0.99724  0.32439     C
C      0.44675  0.17308  0.49931     C
C      0.44675  0.32692  0.00069     C
C      0.44675  0.67308  0.99931     C
C      0.44675  0.82692  0.50069     C
C      0.44756   0.0007  0.67389     C
C      0.44756   0.4993  0.82611     C
C      0.44756   0.5007  0.17389     C
C      0.44756   0.9993  0.32611     C
H      0.45063   0.2471  0.72366     H
H      0.45063   0.2529  0.77634     H
H      0.45063   0.7471  0.22366     H
H      0.45063   0.7529  0.27634     H
H      0.45114  0.20996  0.68579     H
H      0.45114  0.29004  0.81421     H
H      0.45114  0.70996  0.18579     H
H      0.45114  0.79004  0.31421     H
O      0.46023  0.14921  0.49952     O
O      0.46023  0.35079  0.00048     O
O      0.46023  0.64921  0.99952     O
O      0.46023  0.85079  0.50048     O
O      0.46046  0.19678  0.49942     O
O      0.46046  0.30322  0.00058     O
O      0.46046  0.69678  0.99942     O
O      0.46046  0.80322  0.50058     O
O      0.46104  0.00048  0.65003     O
O      0.46104  0.49952  0.84997     O
O      0.46104  0.50048  0.15003     O
O      0.46104  0.99952  0.34997     O
O      0.46127  0.00058  0.69759     O
O      0.46127  0.49942  0.80241     O
O      0.46127  0.50058  0.19759     O
O      0.46127  0.99942  0.30241     O
H      0.46292  0.18678  0.29073     H
H      0.46292  0.31322  0.20927     H
H      0.46292  0.68678  0.79073     H
H      0.46292  0.81322  0.70927     H
H      0.46304  0.22403  0.25295     H
H      0.46304  0.27597  0.24705     H
H      0.46304  0.72403  0.75295     H
H      0.46304  0.77597  0.74705     H
C      0.46976  0.23401  0.72076     C
C      0.46976  0.26599  0.77924     C
C      0.46976  0.73401  0.22076     C
C      0.46976  0.76599  0.27924     C
C      0.47004  0.21303  0.69916     C
C      0.47004  0.28697  0.80084     C
C      0.47004  0.71303  0.19916     C
C      0.47004  0.78697  0.30084     C
C      0.48195  0.19994   0.2876     C
C      0.48195  0.30006   0.2124     C
C      0.48195  0.69994   0.7876     C
C      0.48195  0.80006   0.7124     C
C      0.48203  0.22119  0.26625     C
C      0.48203  0.27881  0.23375     C
C      0.48203  0.72119  0.76625     C
C      0.48203  0.77881  0.73375     C
H      0.49308  0.22377  0.63977     H
H      0.49308  0.27623  0.86023     H
H      0.49308  0.72377  0.13977     H
H      0.49308  0.77623  0.36023     H
C      0.49418  0.23835  0.73817     C
C      0.49418  0.26165  0.76183     C
C      0.49418  0.73835  0.23817     C
C      0.49418  0.76165  0.26183     C
C      0.49425  0.20331  0.62862     C
C      0.49425  0.29669  0.87138     C
C      0.49425  0.70331  0.12862     C
C      0.49425  0.79669  0.37138     C
C      0.49454  0.19588  0.69496     C
C      0.49454  0.30412  0.80504     C
C      0.49454  0.69588  0.19496     C
C      0.49454  0.80412  0.30504     C
H      0.49482  0.22249  0.58663     H
H      0.49482  0.27751  0.91337     H
H      0.49482  0.72249  0.08663     H
H      0.49482  0.77751  0.41337     H
N      0.49486  0.17342  0.67258     N
N      0.49486  0.32658  0.82742     N
N      0.49486  0.67342  0.17258     N
N      0.49486  0.82658  0.32742     N
C      0.49502   0.1773  0.64366     C
C      0.49502   0.3227  0.85634     C
C      0.49502   0.6773  0.14366     C
C      0.49502   0.8227  0.35634     C
H      0.49531  0.14067    0.723     H
H      0.49531  0.35933    0.777     H
H      0.49531  0.64067    0.223     H
H      0.49531  0.85933    0.277     H
C      0.49532  0.20233  0.59839     C
C      0.49532  0.29767  0.90161     C
C      0.49532  0.70233  0.09839     C
C      0.49532  0.79767  0.40161     C
C      0.49653  0.12953  0.70254     C
C      0.49653  0.37047  0.79746     C
C      0.49653  0.62953  0.20254     C
C      0.49653  0.87047  0.29746     C
C       0.4966  0.14455  0.67651     C
C       0.4966  0.35545  0.82349     C
C       0.4966  0.64455  0.17651     C
C       0.4966  0.85545  0.32349     C
C      0.49691  0.15126  0.62938     C
C      0.49691  0.34874  0.87062     C
C      0.49691  0.65126  0.12938     C
C      0.49691  0.84874  0.37062     C
C      0.49724  0.17561   0.5835     C
C      0.49724  0.32439   0.9165     C
C      0.49724  0.67561   0.0835     C
C      0.49724  0.82439   0.4165     C
H       0.4977  0.08755  0.72173     H
H       0.4977  0.41245  0.77827     H
H       0.4977  0.58755  0.22173     H
H       0.4977  0.91245  0.27827     H
C      0.49777  0.13025  0.65044     C
C      0.49777  0.36975  0.84956     C
C      0.49777  0.63025  0.15044     C
C      0.49777  0.86975  0.34956     C
C      0.49783  0.09931  0.70155     C
C      0.49783  0.40069  0.79845     C
C      0.49783  0.59931  0.20155     C
C      0.49783  0.90069  0.29845     C
C      0.49796  0.14955  0.59938     C
C      0.49796  0.35045  0.90062     C
C      0.49796  0.64955  0.09938     C
C      0.49796  0.85045  0.40062     C
C      0.49908   0.0844   0.6748     C
C      0.49908   0.4156   0.8252     C
C      0.49908   0.5844   0.1748     C
C      0.49908   0.9156   0.3252     C
C      0.49913  0.10028  0.64873     C
C      0.49913  0.39972  0.85127     C
C      0.49913  0.60028  0.14873     C
C      0.49913  0.89972  0.35127     C
C       0.4993  0.17389  0.55244     C
C       0.4993  0.32611  0.94756     C
C       0.4993  0.67389  0.05244     C
C       0.4993  0.82611  0.44756     C
C      0.49931  0.05325  0.32692     C
C      0.49931  0.44675  0.17308     C
C      0.49931  0.55325  0.82692     C
C      0.49931  0.94675  0.67308     C
O      0.49942  0.03954  0.30322     O
O      0.49942  0.19759  0.53873     O
O      0.49942  0.30241  0.96127     O
O      0.49942  0.46046  0.19678     O
O      0.49942  0.53954  0.80322     O
O      0.49942  0.69759  0.03873     O
O      0.49942  0.80241  0.46127     O
O      0.49942  0.96046  0.69678     O
O      0.49952  0.03977  0.35079     O
O      0.49952  0.15003  0.53896     O
O      0.49952  0.34997  0.96104     O
O      0.49952  0.46023  0.14921     O
O      0.49952  0.53977  0.85079     O
O      0.49952  0.65003  0.03896     O
O      0.49952  0.84997  0.46104     O
O      0.49952  0.96023  0.64921     O
H      0.49955   0.1288   0.5888     H
H      0.49955   0.3712   0.9112     H
H      0.49955   0.6288   0.0888     H
H      0.49955   0.8712   0.4112     H
H      0.49991  0.08967  0.62794     H
H      0.49991  0.41033  0.87206     H
H      0.49991  0.58967  0.12794     H
H      0.49991  0.91033  0.37206     H
Cu         0.5      0.0  0.30003    Cu
Cu         0.5      0.0  0.35375    Cu
Cu         0.5      0.0  0.64625    Cu
Cu         0.5      0.0  0.69997    Cu
Cu         0.5  0.14625      0.5    Cu
Cu         0.5  0.19997      0.5    Cu
Cu         0.5  0.30003      0.0    Cu
Cu         0.5  0.35375      0.0    Cu
Cu         0.5      0.5  0.14625    Cu
Cu         0.5      0.5  0.19997    Cu
Cu         0.5      0.5  0.80003    Cu
Cu         0.5      0.5  0.85375    Cu
Cu         0.5  0.64625      0.0    Cu
Cu         0.5  0.69997      0.0    Cu
Cu         0.5  0.80003      0.5    Cu
Cu         0.5  0.85375      0.5    Cu
H      0.50009  0.08967  0.37206     H
H      0.50009  0.41033  0.12794     H
H      0.50009  0.58967  0.87206     H
H      0.50009  0.91033  0.62794     H
H      0.50045   0.1288   0.4112     H
H      0.50045   0.3712   0.0888     H
H      0.50045   0.6288   0.9112     H
H      0.50045   0.8712   0.5888     H
O      0.50048  0.03977  0.64921     O
O      0.50048  0.15003  0.46104     O
O      0.50048  0.34997  0.03896     O
O      0.50048  0.46023  0.85079     O
O      0.50048  0.53977  0.14921     O
O      0.50048  0.65003  0.96104     O
O      0.50048  0.84997  0.53896     O
O      0.50048  0.96023  0.35079     O
O      0.50058  0.03954  0.69678     O
O      0.50058  0.19759  0.46127     O
O      0.50058  0.30241  0.03873     O
O      0.50058  0.46046  0.80322     O
O      0.50058  0.53954  0.19678     O
O      0.50058  0.69759  0.96127     O
O      0.50058  0.80241  0.53873     O
O      0.50058  0.96046  0.30322     O
C      0.50069  0.05325  0.67308     C
C      0.50069  0.44675  0.82692     C
C      0.50069  0.55325  0.17308     C
C      0.50069  0.94675  0.32692     C
C       0.5007  0.17389  0.44756     C
C       0.5007  0.32611  0.05244     C
C       0.5007  0.67389  0.94756     C
C       0.5007  0.82611  0.55244     C
C      0.50087  0.10028  0.35127     C
C      0.50087  0.39972  0.14873     C
C      0.50087  0.60028  0.85127     C
C      0.50087  0.89972  0.64873     C
C      0.50092   0.0844   0.3252     C
C      0.50092   0.4156   0.1748     C
C      0.50092   0.5844   0.8252     C
C      0.50092   0.9156   0.6748     C
C      0.50204  0.14955  0.40062     C
C      0.50204  0.35045  0.09938     C
C      0.50204  0.64955  0.90062     C
C      0.50204  0.85045  0.59938     C
C      0.50217  0.09931  0.29845     C
C      0.50217  0.40069  0.20155     C
C      0.50217  0.59931  0.79845     C
C      0.50217  0.90069  0.70155     C
C      0.50223  0.13025  0.34956     C
C      0.50223  0.36975  0.15044     C
C      0.50223  0.63025  0.84956     C
C      0.50223  0.86975  0.65044     C
H       0.5023  0.08755  0.27827     H
H       0.5023  0.41245  0.22173     H
H       0.5023  0.58755  0.77827     H
H       0.5023  0.91245  0.72173     H
C      0.50276  0.17561   0.4165     C
C      0.50276  0.32439   0.0835     C
C      0.50276  0.67561   0.9165     C
C      0.50276  0.82439   0.5835     C
C      0.50309  0.15126  0.37062     C
C      0.50309  0.34874  0.12938     C
C      0.50309  0.65126  0.87062     C
C      0.50309  0.84874  0.62938     C
C       0.5034  0.14455  0.32349     C
C       0.5034  0.35545  0.17651     C
C       0.5034  0.64455  0.82349     C
C       0.5034  0.85545  0.67651     C
C      0.50347  0.12953  0.29746     C
C      0.50347  0.37047  0.20254     C
C      0.50347  0.62953  0.79746     C
C      0.50347  0.87047  0.70254     C
C      0.50468  0.20233  0.40161     C
C      0.50468  0.29767  0.09839     C
C      0.50468  0.70233  0.90161     C
C      0.50468  0.79767  0.59839     C
H      0.50469  0.14067    0.277     H
H      0.50469  0.35933    0.223     H
H      0.50469  0.64067    0.777     H
H      0.50469  0.85933    0.723     H
C      0.50498   0.1773  0.35634     C
C      0.50498   0.3227  0.14366     C
C      0.50498   0.6773  0.85634     C
C      0.50498   0.8227  0.64366     C
N      0.50514  0.17342  0.32742     N
N      0.50514  0.32658  0.17258     N
N      0.50514  0.67342  0.82742     N
N      0.50514  0.82658  0.67258     N
H      0.50518  0.22249  0.41337     H
H      0.50518  0.27751  0.08663     H
H      0.50518  0.72249  0.91337     H
H      0.50518  0.77751  0.58663     H
C      0.50546  0.19588  0.30504     C
C      0.50546  0.30412  0.19496     C
C      0.50546  0.69588  0.80504     C
C      0.50546  0.80412  0.69496     C
C      0.50575  0.20331  0.37138     C
C      0.50575  0.29669  0.12862     C
C      0.50575  0.70331  0.87138     C
C      0.50575  0.79669  0.62862     C
C      0.50582  0.23835  0.26183     C
C      0.50582  0.26165  0.23817     C
C      0.50582  0.73835  0.76183     C
C      0.50582  0.76165  0.73817     C
H      0.50692  0.22377  0.36023     H
H      0.50692  0.27623  0.13977     H
H      0.50692  0.72377  0.86023     H
H      0.50692  0.77623  0.63977     H
C      0.51797  0.22119  0.73375     C
C      0.51797  0.27881  0.76625     C
C      0.51797  0.72119  0.23375     C
C      0.51797  0.77881  0.26625     C
C      0.51805  0.19994   0.7124     C
C      0.51805  0.30006   0.7876     C
C      0.51805  0.69994   0.2124     C
C      0.51805  0.80006   0.2876     C
C      0.52996  0.21303  0.30084     C
C      0.52996  0.28697  0.19916     C
C      0.52996  0.71303  0.80084     C
C      0.52996  0.78697  0.69916     C
C      0.53024  0.23401  0.27924     C
C      0.53024  0.26599  0.22076     C
C      0.53024  0.73401  0.77924     C
C      0.53024  0.76599  0.72076     C
H      0.53696  0.22403  0.74705     H
H      0.53696  0.27597  0.75295     H
H      0.53696  0.72403  0.24705     H
H      0.53696  0.77597  0.25295     H
H      0.53708  0.18678  0.70927     H
H      0.53708  0.31322  0.79073     H
H      0.53708  0.68678  0.20927     H
H      0.53708  0.81322  0.29073     H
O      0.53873  0.00058  0.30241     O
O      0.53873  0.49942  0.19759     O
O      0.53873  0.50058  0.80241     O
O      0.53873  0.99942  0.69759     O
O      0.53896  0.00048  0.34997     O
O      0.53896  0.49952  0.15003     O
O      0.53896  0.50048  0.84997     O
O      0.53896  0.99952  0.65003     O
O      0.53954  0.19678  0.50058     O
O      0.53954  0.30322  0.99942     O
O      0.53954  0.69678  0.00058     O
O      0.53954  0.80322  0.49942     O
O      0.53977  0.14921  0.50048     O
O      0.53977  0.35079  0.99952     O
O      0.53977  0.64921  0.00048     O
O      0.53977  0.85079  0.49952     O
H      0.54886  0.20996  0.31421     H
H      0.54886  0.29004  0.18579     H
H      0.54886  0.70996  0.81421     H
H      0.54886  0.79004  0.68579     H
H      0.54937   0.2471  0.27634     H
H      0.54937   0.2529  0.22366     H
H      0.54937   0.7471  0.77634     H
H      0.54937   0.7529  0.72366     H
C      0.55244   0.0007  0.32611     C
C      0.55244   0.4993  0.17389     C
C      0.55244   0.5007  0.82611     C
C      0.55244   0.9993  0.67389     C
C      0.55325  0.17308  0.50069     C
C      0.55325  0.32692  0.99931     C
C      0.55325  0.67308  0.00069     C
C      0.55325  0.82692  0.49931     C
C       0.5835  0.00276  0.32439     C
C       0.5835  0.49724  0.17561     C
C       0.5835  0.50276  0.82439     C
C       0.5835  0.99724  0.67561     C
C       0.5844   0.1748  0.49908     C
C       0.5844   0.3252  0.00092     C
C       0.5844   0.6748  0.99908     C
C       0.5844   0.8252  0.50092     C
H      0.58663  0.00518  0.27751     H
H      0.58663  0.49482  0.22249     H
H      0.58663  0.50518  0.77751     H
H      0.58663  0.99482  0.72249     H
H      0.58755  0.22173   0.4977     H
H      0.58755  0.27827   0.0023     H
H      0.58755  0.72173   0.9977     H
H      0.58755  0.77827   0.5023     H
H       0.5888  0.00045   0.3712     H
H       0.5888  0.49955   0.1288     H
H       0.5888  0.50045   0.8712     H
H       0.5888  0.99955   0.6288     H
H      0.58967  0.12794  0.49991     H
H      0.58967  0.37206    9e-05     H
H      0.58967  0.62794  0.99991     H
H      0.58967  0.87206  0.50009     H
C      0.59839  0.00468  0.29767     C
C      0.59839  0.49532  0.20233     C
C      0.59839  0.50468  0.79767     C
C      0.59839  0.99532  0.70233     C
C      0.59931  0.20155  0.49783     C
C      0.59931  0.29845  0.00217     C
C      0.59931  0.70155  0.99783     C
C      0.59931  0.79845  0.50217     C
C      0.59938  0.00204  0.35045     C
C      0.59938  0.49796  0.14955     C
C      0.59938  0.50204  0.85045     C
C      0.59938  0.99796  0.64955     C
C      0.60028  0.14873  0.49913     C
C      0.60028  0.35127  0.00087     C
C      0.60028  0.64873  0.99913     C
C      0.60028  0.85127  0.50087     C
H      0.62794    9e-05  0.41033     H
H      0.62794  0.49991  0.08967     H
H      0.62794  0.50009  0.91033     H
H      0.62794  0.99991  0.58967     H
C      0.62862  0.00575  0.29669     C
C      0.62862  0.49425  0.20331     C
C      0.62862  0.50575  0.79669     C
C      0.62862  0.99425  0.70331     C
H       0.6288   0.0888  0.49955     H
H       0.6288   0.4112  0.00045     H
H       0.6288   0.5888  0.99955     H
H       0.6288   0.9112  0.50045     H
C      0.62938  0.00309  0.34874     C
C      0.62938  0.49691  0.15126     C
C      0.62938  0.50309  0.84874     C
C      0.62938  0.99691  0.65126     C
C      0.62953  0.20254  0.49653     C
C      0.62953  0.29746  0.00347     C
C      0.62953  0.70254  0.99653     C
C      0.62953  0.79746  0.50347     C
C      0.63025  0.15044  0.49777     C
C      0.63025  0.34956  0.00223     C
C      0.63025  0.65044  0.99777     C
C      0.63025  0.84956  0.50223     C
H      0.63977  0.00692  0.27623     H
H      0.63977  0.49308  0.22377     H
H      0.63977  0.50692  0.77623     H
H      0.63977  0.99308  0.72377     H
H      0.64067    0.223  0.49531     H
H      0.64067    0.277  0.00469     H
H      0.64067    0.723  0.99531     H
H      0.64067    0.777  0.50469     H
C      0.64366  0.00498   0.3227     C
C      0.64366  0.49502   0.1773     C
C      0.64366  0.50498   0.8227     C
C      0.64366  0.99502   0.6773     C
C      0.64455  0.17651   0.4966     C
C      0.64455  0.32349   0.0034     C
C      0.64455  0.67651   0.9966     C
C      0.64455  0.82349   0.5034     C
Cu     0.64625      0.0      0.5    Cu
Cu     0.64625      0.5      0.0    Cu
C      0.64873  0.00087  0.39972     C
C      0.64873  0.49913  0.10028     C
C      0.64873  0.50087  0.89972     C
C      0.64873  0.99913  0.60028     C
O      0.64921  0.00048  0.53977     O
O      0.64921  0.49952  0.96023     O
O      0.64921  0.50048  0.03977     O
O      0.64921  0.99952  0.46023     O
C      0.64955  0.09938  0.49796     C
C      0.64955  0.40062  0.00204     C
C      0.64955  0.59938  0.99796     C
C      0.64955  0.90062  0.50204     C
O      0.65003  0.03896  0.49952     O
O      0.65003  0.46104  0.00048     O
O      0.65003  0.53896  0.99952     O
O      0.65003  0.96104  0.50048     O
C      0.65044  0.00223  0.36975     C
C      0.65044  0.49777  0.13025     C
C      0.65044  0.50223  0.86975     C
C      0.65044  0.99777  0.63025     C
C      0.65126  0.12938  0.49691     C
C      0.65126  0.37062  0.00309     C
C      0.65126  0.62938  0.99691     C
C      0.65126  0.87062  0.50309     C
N      0.67258  0.00514  0.32658     N
N      0.67258  0.49486  0.17342     N
N      0.67258  0.50514  0.82658     N
N      0.67258  0.99486  0.67342     N
C      0.67308  0.00069  0.55325     C
C      0.67308  0.49931  0.94675     C
C      0.67308  0.50069  0.05325     C
C      0.67308  0.99931  0.44675     C
N      0.67342  0.17258  0.49486     N
N      0.67342  0.32742  0.00514     N
N      0.67342  0.67258  0.99486     N
N      0.67342  0.82742  0.50514     N
C      0.67389  0.05244   0.4993     C
C      0.67389  0.44756   0.0007     C
C      0.67389  0.55244   0.9993     C
C      0.67389  0.94756   0.5007     C
C       0.6748  0.00092   0.4156     C
C       0.6748  0.49908   0.0844     C
C       0.6748  0.50092   0.9156     C
C       0.6748  0.99908   0.5844     C
C      0.67561   0.0835  0.49724     C
C      0.67561   0.4165  0.00276     C
C      0.67561   0.5835  0.99724     C
C      0.67561   0.9165  0.50276     C
C      0.67651   0.0034  0.35545     C
C      0.67651   0.4966  0.14455     C
C      0.67651   0.5034  0.85545     C
C      0.67651   0.9966  0.64455     C
C       0.6773  0.14366  0.49502     C
C       0.6773  0.35634  0.00498     C
C       0.6773  0.64366  0.99502     C
C       0.6773  0.85634  0.50498     C
H      0.68579  0.04886  0.29004     H
H      0.68579  0.45114  0.20996     H
H      0.68579  0.54886  0.79004     H
H      0.68579  0.95114  0.70996     H
H      0.68678  0.20927  0.53708     H
H      0.68678  0.29073  0.96292     H
H      0.68678  0.70927  0.03708     H
H      0.68678  0.79073  0.46292     H
C      0.69496  0.00546  0.30412     C
C      0.69496  0.49454  0.19588     C
C      0.69496  0.50546  0.80412     C
C      0.69496  0.99454  0.69588     C
C      0.69588  0.19496  0.49454     C
C      0.69588  0.30504  0.00546     C
C      0.69588  0.69496  0.99454     C
C      0.69588  0.80504  0.50546     C
O      0.69678  0.00058  0.53954     O
O      0.69678  0.49942  0.96046     O
O      0.69678  0.50058  0.03954     O
O      0.69678  0.99942  0.46046     O
O      0.69759  0.03873  0.49942     O
O      0.69759  0.46127  0.00058     O
O      0.69759  0.53873  0.99942     O
O      0.69759  0.96127  0.50058     O
C      0.69916  0.02996  0.28697     C
C      0.69916  0.47004  0.21303     C
C      0.69916  0.52996  0.78697     C
C      0.69916  0.97004  0.71303     C
C      0.69994   0.2124  0.51805     C
C      0.69994   0.2876  0.98195     C
C      0.69994   0.7124  0.01805     C
C      0.69994   0.7876  0.48195     C
Cu     0.69997      0.0      0.5    Cu
Cu     0.69997      0.5      0.0    Cu
C      0.70155  0.00217  0.40069     C
C      0.70155  0.49783  0.09931     C
C      0.70155  0.50217  0.90069     C
C      0.70155  0.99783  0.59931     C
C      0.70233  0.09839  0.49532     C
C      0.70233  0.40161  0.00468     C
C      0.70233  0.59839  0.99532     C
C      0.70233  0.90161  0.50468     C
C      0.70254  0.00347  0.37047     C
C      0.70254  0.49653  0.12953     C
C      0.70254  0.50347  0.87047     C
C      0.70254  0.99653  0.62953     C
C      0.70331  0.12862  0.49425     C
C      0.70331  0.37138  0.00575     C
C      0.70331  0.62862  0.99425     C
C      0.70331  0.87138  0.50575     C
H      0.70927  0.03708  0.68678     H
H      0.70927  0.46292  0.81322     H
H      0.70927  0.53708  0.18678     H
H      0.70927  0.96292  0.31322     H
H      0.70996  0.18579  0.45114     H
H      0.70996  0.31421  0.04886     H
H      0.70996  0.68579  0.95114     H
H      0.70996  0.81421  0.54886     H
C       0.7124  0.01805  0.69994     C
C       0.7124  0.48195  0.80006     C
C       0.7124  0.51805  0.19994     C
C       0.7124  0.98195  0.30006     C
C      0.71303  0.19916  0.47004     C
C      0.71303  0.30084  0.02996     C
C      0.71303  0.69916  0.97004     C
C      0.71303  0.80084  0.52996     C
C      0.72076  0.03024  0.26599     C
C      0.72076  0.46976  0.23401     C
C      0.72076  0.53024  0.76599     C
C      0.72076  0.96976  0.73401     C
C      0.72119  0.23375  0.51797     C
C      0.72119  0.26625  0.98203     C
C      0.72119  0.73375  0.01797     C
C      0.72119  0.76625  0.48203     C
H      0.72173   0.0023  0.41245     H
H      0.72173   0.4977  0.08755     H
H      0.72173   0.5023  0.91245     H
H      0.72173   0.9977  0.58755     H
H      0.72249  0.08663  0.49482     H
H      0.72249  0.41337  0.00518     H
H      0.72249  0.58663  0.99482     H
H      0.72249  0.91337  0.50518     H
H        0.723  0.00469  0.35933     H
H        0.723  0.49531  0.14067     H
H        0.723  0.50469  0.85933     H
H        0.723  0.99531  0.64067     H
H      0.72366  0.04937   0.2529     H
H      0.72366  0.45063   0.2471     H
H      0.72366  0.54937   0.7529     H
H      0.72366  0.95063   0.7471     H
H      0.72377  0.13977  0.49308     H
H      0.72377  0.36023  0.00692     H
H      0.72377  0.63977  0.99308     H
H      0.72377  0.86023  0.50692     H
H      0.72403  0.24705  0.53696     H
H      0.72403  0.25295  0.96304     H
H      0.72403  0.74705  0.03696     H
H      0.72403  0.75295  0.46304     H
C      0.73375  0.01797  0.72119     C
C      0.73375  0.48203  0.77881     C
C      0.73375  0.51797  0.22119     C
C      0.73375  0.98203  0.27881     C
C      0.73401  0.22076  0.46976     C
C      0.73401  0.27924  0.03024     C
C      0.73401  0.72076  0.96976     C
C      0.73401  0.77924  0.53024     C
C      0.73817  0.00582  0.26165     C
C      0.73817  0.49418  0.23835     C
C      0.73817  0.50582  0.76165     C
C      0.73817  0.99418  0.73835     C
C      0.73835  0.23817  0.49418     C
C      0.73835  0.26183  0.00582     C
C      0.73835  0.73817  0.99418     C
C      0.73835  0.76183  0.50582     C
H      0.74705  0.03696  0.72403     H
H      0.74705  0.46304  0.77597     H
H      0.74705  0.53696  0.22403     H
H      0.74705  0.96304  0.27597     H
H       0.7471  0.22366  0.45063     H
H       0.7471  0.27634  0.04937     H
H       0.7471  0.72366  0.95063     H
H       0.7471  0.77634  0.54937     H
H       0.7529  0.22366  0.04937     H
H       0.7529  0.27634  0.45063     H
H       0.7529  0.72366  0.54937     H
H       0.7529  0.77634  0.95063     H
H      0.75295  0.03696  0.77597     H
H      0.75295  0.46304  0.72403     H
H      0.75295  0.53696  0.27597     H
H      0.75295  0.96304  0.22403     H
C      0.76165  0.23817  0.00582     C
C      0.76165  0.26183  0.49418     C
C      0.76165  0.73817  0.50582     C
C      0.76165  0.76183  0.99418     C
C      0.76183  0.00582  0.23835     C
C      0.76183  0.49418  0.26165     C
C      0.76183  0.50582  0.73835     C
C      0.76183  0.99418  0.76165     C
C      0.76599  0.22076  0.03024     C
C      0.76599  0.27924  0.46976     C
C      0.76599  0.72076  0.53024     C
C      0.76599  0.77924  0.96976     C
C      0.76625  0.01797  0.77881     C
C      0.76625  0.48203  0.72119     C
C      0.76625  0.51797  0.27881     C
C      0.76625  0.98203  0.22119     C
H      0.77597  0.24705  0.96304     H
H      0.77597  0.25295  0.53696     H
H      0.77597  0.74705  0.46304     H
H      0.77597  0.75295  0.03696     H
H      0.77623  0.13977  0.00692     H
H      0.77623  0.36023  0.49308     H
H      0.77623  0.63977  0.50692     H
H      0.77623  0.86023  0.99308     H
H      0.77634  0.04937   0.2471     H
H      0.77634  0.45063   0.2529     H
H      0.77634  0.54937   0.7471     H
H      0.77634  0.95063   0.7529     H
H        0.777  0.00469  0.14067     H
H        0.777  0.49531  0.35933     H
H        0.777  0.50469  0.64067     H
H        0.777  0.99531  0.85933     H
H      0.77751  0.08663  0.00518     H
H      0.77751  0.41337  0.49482     H
H      0.77751  0.58663  0.50518     H
H      0.77751  0.91337  0.99482     H
H      0.77827   0.0023  0.08755     H
H      0.77827   0.4977  0.41245     H
H      0.77827   0.5023  0.58755     H
H      0.77827   0.9977  0.91245     H
C      0.77881  0.23375  0.98203     C
C      0.77881  0.26625  0.51797     C
C      0.77881  0.73375  0.48203     C
C      0.77881  0.76625  0.01797     C
C      0.77924  0.03024  0.23401     C
C      0.77924  0.46976  0.26599     C
C      0.77924  0.53024  0.73401     C
C      0.77924  0.96976  0.76599     C
C      0.78697  0.19916  0.02996     C
C      0.78697  0.30084  0.47004     C
C      0.78697  0.69916  0.52996     C
C      0.78697  0.80084  0.97004     C
C       0.7876  0.01805  0.80006     C
C       0.7876  0.48195  0.69994     C
C       0.7876  0.51805  0.30006     C
C       0.7876  0.98195  0.19994     C
H      0.79004  0.18579  0.04886     H
H      0.79004  0.31421  0.45114     H
H      0.79004  0.68579  0.54886     H
H      0.79004  0.81421  0.95114     H
H      0.79073  0.03708  0.81322     H
H      0.79073  0.46292  0.68678     H
H      0.79073  0.53708  0.31322     H
H      0.79073  0.96292  0.18678     H
C      0.79669  0.12862  0.00575     C
C      0.79669  0.37138  0.49425     C
C      0.79669  0.62862  0.50575     C
C      0.79669  0.87138  0.99425     C
C      0.79746  0.00347  0.12953     C
C      0.79746  0.49653  0.37047     C
C      0.79746  0.50347  0.62953     C
C      0.79746  0.99653  0.87047     C
C      0.79767  0.09839  0.00468     C
C      0.79767  0.40161  0.49532     C
C      0.79767  0.59839  0.50468     C
C      0.79767  0.90161  0.99532     C
C      0.79845  0.00217  0.09931     C
C      0.79845  0.49783  0.40069     C
C      0.79845  0.50217  0.59931     C
C      0.79845  0.99783  0.90069     C
Cu     0.80003      0.0      0.0    Cu
Cu     0.80003      0.5      0.5    Cu
C      0.80006   0.2124  0.98195     C
C      0.80006   0.2876  0.51805     C
C      0.80006   0.7124  0.48195     C
C      0.80006   0.7876  0.01805     C
C      0.80084  0.02996  0.21303     C
C      0.80084  0.47004  0.28697     C
C      0.80084  0.52996  0.71303     C
C      0.80084  0.97004  0.78697     C
O      0.80241  0.03873  0.00058     O
O      0.80241  0.46127  0.49942     O
O      0.80241  0.53873  0.50058     O
O      0.80241  0.96127  0.99942     O
O      0.80322  0.00058  0.96046     O
O      0.80322  0.49942  0.53954     O
O      0.80322  0.50058  0.46046     O
O      0.80322  0.99942  0.03954     O
C      0.80412  0.19496  0.00546     C
C      0.80412  0.30504  0.49454     C
C      0.80412  0.69496  0.50546     C
C      0.80412  0.80504  0.99454     C
C      0.80504  0.00546  0.19588     C
C      0.80504  0.49454  0.30412     C
C      0.80504  0.50546  0.69588     C
C      0.80504  0.99454  0.80412     C
H      0.81322  0.20927  0.96292     H
H      0.81322  0.29073  0.53708     H
H      0.81322  0.70927  0.46292     H
H      0.81322  0.79073  0.03708     H
H      0.81421  0.04886  0.20996     H
H      0.81421  0.45114  0.29004     H
H      0.81421  0.54886  0.70996     H
H      0.81421  0.95114  0.79004     H
C       0.8227  0.14366  0.00498     C
C       0.8227  0.35634  0.49502     C
C       0.8227  0.64366  0.50498     C
C       0.8227  0.85634  0.99502     C
C      0.82349   0.0034  0.14455     C
C      0.82349   0.4966  0.35545     C
C      0.82349   0.5034  0.64455     C
C      0.82349   0.9966  0.85545     C
C      0.82439   0.0835  0.00276     C
C      0.82439   0.4165  0.49724     C
C      0.82439   0.5835  0.50276     C
C      0.82439   0.9165  0.99724     C
C       0.8252  0.00092   0.0844     C
C       0.8252  0.49908   0.4156     C
C       0.8252  0.50092   0.5844     C
C       0.8252  0.99908   0.9156     C
C      0.82611  0.05244   0.0007     C
C      0.82611  0.44756   0.4993     C
C      0.82611  0.55244   0.5007     C
C      0.82611  0.94756   0.9993     C
N      0.82658  0.17258  0.00514     N
N      0.82658  0.32742  0.49486     N
N      0.82658  0.67258  0.50514     N
N      0.82658  0.82742  0.99486     N
C      0.82692  0.00069  0.94675     C
C      0.82692  0.49931  0.55325     C
C      0.82692  0.50069  0.44675     C
C      0.82692  0.99931  0.05325     C
N      0.82742  0.00514  0.17342     N
N      0.82742  0.49486  0.32658     N
N      0.82742  0.50514  0.67342     N
N      0.82742  0.99486  0.82658     N
C      0.84874  0.12938  0.00309     C
C      0.84874  0.37062  0.49691     C
C      0.84874  0.62938  0.50309     C
C      0.84874  0.87062  0.99691     C
C      0.84956  0.00223  0.13025     C
C      0.84956  0.49777  0.36975     C
C      0.84956  0.50223  0.63025     C
C      0.84956  0.99777  0.86975     C
O      0.84997  0.03896  0.00048     O
O      0.84997  0.46104  0.49952     O
O      0.84997  0.53896  0.50048     O
O      0.84997  0.96104  0.99952     O
C      0.85045  0.09938  0.00204     C
C      0.85045  0.40062  0.49796     C
C      0.85045  0.59938  0.50204     C
C      0.85045  0.90062  0.99796     C
O      0.85079  0.00048  0.96023     O
O      0.85079  0.49952  0.53977     O
O      0.85079  0.50048  0.46023     O
O      0.85079  0.99952  0.03977     O
C      0.85127  0.00087  0.10028     C
C      0.85127  0.49913  0.39972     C
C      0.85127  0.50087  0.60028     C
C      0.85127  0.99913  0.89972     C
Cu     0.85375      0.0      0.0    Cu
Cu     0.85375      0.5      0.5    Cu
C      0.85545  0.17651   0.0034     C
C      0.85545  0.32349   0.4966     C
C      0.85545  0.67651   0.5034     C
C      0.85545  0.82349   0.9966     C
C      0.85634  0.00498   0.1773     C
C      0.85634  0.49502   0.3227     C
C      0.85634  0.50498   0.6773     C
C      0.85634  0.99502   0.8227     C
H      0.85933    0.223  0.00469     H
H      0.85933    0.277  0.49531     H
H      0.85933    0.723  0.50469     H
H      0.85933    0.777  0.99531     H
H      0.86023  0.00692  0.22377     H
H      0.86023  0.49308  0.27623     H
H      0.86023  0.50692  0.72377     H
H      0.86023  0.99308  0.77623     H
C      0.86975  0.15044  0.00223     C
C      0.86975  0.34956  0.49777     C
C      0.86975  0.65044  0.50223     C
C      0.86975  0.84956  0.99777     C
C      0.87047  0.20254  0.00347     C
C      0.87047  0.29746  0.49653     C
C      0.87047  0.70254  0.50347     C
C      0.87047  0.79746  0.99653     C
C      0.87062  0.00309  0.15126     C
C      0.87062  0.49691  0.34874     C
C      0.87062  0.50309  0.65126     C
C      0.87062  0.99691  0.84874     C
H       0.8712   0.0888  0.00045     H
H       0.8712   0.4112  0.49955     H
H       0.8712   0.5888  0.50045     H
H       0.8712   0.9112  0.99955     H
C      0.87138  0.00575  0.20331     C
C      0.87138  0.49425  0.29669     C
C      0.87138  0.50575  0.70331     C
C      0.87138  0.99425  0.79669     C
H      0.87206    9e-05  0.08967     H
H      0.87206  0.49991  0.41033     H
H      0.87206  0.50009  0.58967     H
H      0.87206  0.99991  0.91033     H
C      0.89972  0.14873  0.00087     C
C      0.89972  0.35127  0.49913     C
C      0.89972  0.64873  0.50087     C
C      0.89972  0.85127  0.99913     C
C      0.90062  0.00204  0.14955     C
C      0.90062  0.49796  0.35045     C
C      0.90062  0.50204  0.64955     C
C      0.90062  0.99796  0.85045     C
C      0.90069  0.20155  0.00217     C
C      0.90069  0.29845  0.49783     C
C      0.90069  0.70155  0.50217     C
C      0.90069  0.79845  0.99783     C
C      0.90161  0.00468  0.20233     C
C      0.90161  0.49532  0.29767     C
C      0.90161  0.50468  0.70233     C
C      0.90161  0.99532  0.79767     C
H      0.91033  0.12794    9e-05     H
H      0.91033  0.37206  0.49991     H
H      0.91033  0.62794  0.50009     H
H      0.91033  0.87206  0.99991     H
H       0.9112  0.00045   0.1288     H
H       0.9112  0.49955   0.3712     H
H       0.9112  0.50045   0.6288     H
H       0.9112  0.99955   0.8712     H
H      0.91245  0.22173   0.0023     H
H      0.91245  0.27827   0.4977     H
H      0.91245  0.72173   0.5023     H
H      0.91245  0.77827   0.9977     H
H      0.91337  0.00518  0.22249     H
H      0.91337  0.49482  0.27751     H
H      0.91337  0.50518  0.72249     H
H      0.91337  0.99482  0.77751     H
C       0.9156   0.1748  0.00092     C
C       0.9156   0.3252  0.49908     C
C       0.9156   0.6748  0.50092     C
C       0.9156   0.8252  0.99908     C
C       0.9165  0.00276  0.17561     C
C       0.9165  0.49724  0.32439     C
C       0.9165  0.50276  0.67561     C
C       0.9165  0.99724  0.82439     C
C      0.94675  0.17308  0.99931     C
C      0.94675  0.32692  0.50069     C
C      0.94675  0.67308  0.49931     C
C      0.94675  0.82692  0.00069     C
C      0.94756   0.0007  0.17389     C
C      0.94756   0.4993  0.32611     C
C      0.94756   0.5007  0.67389     C
C      0.94756   0.9993  0.82611     C
H      0.95063   0.2471  0.22366     H
H      0.95063   0.2529  0.27634     H
H      0.95063   0.7471  0.72366     H
H      0.95063   0.7529  0.77634     H
H      0.95114  0.20996  0.18579     H
H      0.95114  0.29004  0.31421     H
H      0.95114  0.70996  0.68579     H
H      0.95114  0.79004  0.81421     H
O      0.96023  0.14921  0.99952     O
O      0.96023  0.35079  0.50048     O
O      0.96023  0.64921  0.49952     O
O      0.96023  0.85079  0.00048     O
O      0.96046  0.19678  0.99942     O
O      0.96046  0.30322  0.50058     O
O      0.96046  0.69678  0.49942     O
O      0.96046  0.80322  0.00058     O
O      0.96104  0.00048  0.15003     O
O      0.96104  0.49952  0.34997     O
O      0.96104  0.50048  0.65003     O
O      0.96104  0.99952  0.84997     O
O      0.96127  0.00058  0.19759     O
O      0.96127  0.49942  0.30241     O
O      0.96127  0.50058  0.69759     O
O      0.96127  0.99942  0.80241     O
H      0.96292  0.18678  0.79073     H
H      0.96292  0.31322  0.70927     H
H      0.96292  0.68678  0.29073     H
H      0.96292  0.81322  0.20927     H
H      0.96304  0.22403  0.75295     H
H      0.96304  0.27597  0.74705     H
H      0.96304  0.72403  0.25295     H
H      0.96304  0.77597  0.24705     H
C      0.96976  0.23401  0.22076     C
C      0.96976  0.26599  0.27924     C
C      0.96976  0.73401  0.72076     C
C      0.96976  0.76599  0.77924     C
C      0.97004  0.21303  0.19916     C
C      0.97004  0.28697  0.30084     C
C      0.97004  0.71303  0.69916     C
C      0.97004  0.78697  0.80084     C
C      0.98195  0.19994   0.7876     C
C      0.98195  0.30006   0.7124     C
C      0.98195  0.69994   0.2876     C
C      0.98195  0.80006   0.2124     C
C      0.98203  0.22119  0.76625     C
C      0.98203  0.27881  0.73375     C
C      0.98203  0.72119  0.26625     C
C      0.98203  0.77881  0.23375     C
H      0.99308  0.22377  0.13977     H
H      0.99308  0.27623  0.36023     H
H      0.99308  0.72377  0.63977     H
H      0.99308  0.77623  0.86023     H
C      0.99418  0.23835  0.23817     C
C      0.99418  0.26165  0.26183     C
C      0.99418  0.73835  0.73817     C
C      0.99418  0.76165  0.76183     C
C      0.99425  0.20331  0.12862     C
C      0.99425  0.29669  0.37138     C
C      0.99425  0.70331  0.62862     C
C      0.99425  0.79669  0.87138     C
C      0.99454  0.19588  0.19496     C
C      0.99454  0.30412  0.30504     C
C      0.99454  0.69588  0.69496     C
C      0.99454  0.80412  0.80504     C
H      0.99482  0.22249  0.08663     H
H      0.99482  0.27751  0.41337     H
H      0.99482  0.72249  0.58663     H
H      0.99482  0.77751  0.91337     H
N      0.99486  0.17342  0.17258     N
N      0.99486  0.32658  0.32742     N
N      0.99486  0.67342  0.67258     N
N      0.99486  0.82658  0.82742     N
C      0.99502   0.1773  0.14366     C
C      0.99502   0.3227  0.35634     C
C      0.99502   0.6773  0.64366     C
C      0.99502   0.8227  0.85634     C
H      0.99531  0.14067    0.223     H
H      0.99531  0.35933    0.277     H
H      0.99531  0.64067    0.723     H
H      0.99531  0.85933    0.777     H
C      0.99532  0.20233  0.09839     C
C      0.99532  0.29767  0.40161     C
C      0.99532  0.70233  0.59839     C
C      0.99532  0.79767  0.90161     C
C      0.99653  0.12953  0.20254     C
C      0.99653  0.37047  0.29746     C
C      0.99653  0.62953  0.70254     C
C      0.99653  0.87047  0.79746     C
C       0.9966  0.14455  0.17651     C
C       0.9966  0.35545  0.32349     C
C       0.9966  0.64455  0.67651     C
C       0.9966  0.85545  0.82349     C
C      0.99691  0.15126  0.12938     C
C      0.99691  0.34874  0.37062     C
C      0.99691  0.65126  0.62938     C
C      0.99691  0.84874  0.87062     C
C      0.99724  0.17561   0.0835     C
C      0.99724  0.32439   0.4165     C
C      0.99724  0.67561   0.5835     C
C      0.99724  0.82439   0.9165     C
H       0.9977  0.08755  0.22173     H
H       0.9977  0.41245  0.27827     H
H       0.9977  0.58755  0.72173     H
H       0.9977  0.91245  0.77827     H
C      0.99777  0.13025  0.15044     C
C      0.99777  0.36975  0.34956     C
C      0.99777  0.63025  0.65044     C
C      0.99777  0.86975  0.84956     C
C      0.99783  0.09931  0.20155     C
C      0.99783  0.40069  0.29845     C
C      0.99783  0.59931  0.70155     C
C      0.99783  0.90069  0.79845     C
C      0.99796  0.14955  0.09938     C
C      0.99796  0.35045  0.40062     C
C      0.99796  0.64955  0.59938     C
C      0.99796  0.85045  0.90062     C
C      0.99908   0.0844   0.1748     C
C      0.99908   0.4156   0.3252     C
C      0.99908   0.5844   0.6748     C
C      0.99908   0.9156   0.8252     C
C      0.99913  0.10028  0.14873     C
C      0.99913  0.39972  0.35127     C
C      0.99913  0.60028  0.64873     C
C      0.99913  0.89972  0.85127     C
C       0.9993  0.17389  0.05244     C
C       0.9993  0.32611  0.44756     C
C       0.9993  0.67389  0.55244     C
C       0.9993  0.82611  0.94756     C
C      0.99931  0.05325  0.82692     C
C      0.99931  0.44675  0.67308     C
C      0.99931  0.55325  0.32692     C
C      0.99931  0.94675  0.17308     C
O      0.99942  0.03954  0.80322     O
O      0.99942  0.19759  0.03873     O
O      0.99942  0.30241  0.46127     O
O      0.99942  0.46046  0.69678     O
O      0.99942  0.53954  0.30322     O
O      0.99942  0.69759  0.53873     O
O      0.99942  0.80241  0.96127     O
O      0.99942  0.96046  0.19678     O
O      0.99952  0.03977  0.85079     O
O      0.99952  0.15003  0.03896     O
O      0.99952  0.34997  0.46104     O
O      0.99952  0.46023  0.64921     O
O      0.99952  0.53977  0.35079     O
O      0.99952  0.65003  0.53896     O
O      0.99952  0.84997  0.96104     O
O      0.99952  0.96023  0.14921     O
H      0.99955   0.1288   0.0888     H
H      0.99955   0.3712   0.4112     H
H      0.99955   0.6288   0.5888     H
H      0.99955   0.8712   0.9112     H
H      0.99991  0.08967  0.12794     H
H      0.99991  0.41033  0.37206     H
H      0.99991  0.58967  0.62794     H
H      0.99991  0.91033  0.87206     H
