data_I
_chemical_name_common  '/home/zhangsd/repos/MofS-CGCNN/ML/data/SSD/clean_cifs/OKUTAR_clean'
_cell_length_a 36.16010
_cell_length_b 36.16010
_cell_length_c 36.16010
_cell_angle_alpha 90.00000
_cell_angle_beta  90.00000
_cell_angle_gamma 90.00000
_space_group_name_H-M_alt      'P 1'


loop_
_space_group_symop_operation_xyz
  'x, y, z' 

loop_
_atom_site_label
_atom_site_fract_x
_atom_site_fract_y
_atom_site_fract_z
_atom_site_type_symbol
H      0.00219  0.17365  0.24905     H
H      0.00219  0.32635  0.74905     H
C      0.00226  0.24239  0.63265     C
C      0.00226  0.25761  0.13265     C
C      0.00323  0.72507  0.38873     C
C      0.00323  0.77493  0.88873     C
C      0.00648  0.12328  0.21652     C
C      0.00648  0.37672  0.71652     C
C      0.01102  0.19775  0.84153     C
C      0.01102  0.30225  0.34153     C
C      0.01349  0.23557  0.83671     C
C      0.01349  0.26443  0.33671     C
C      0.01585  0.14728  0.24611     C
C      0.01585  0.35272  0.74611     C
H      0.01587  0.73609   0.8444     H
H      0.01587  0.76391   0.3444     H
H      0.01844  0.19228  0.06545     H
H      0.01844  0.30772  0.56545     H
N      0.01873  0.74994  0.67605     N
N      0.01873  0.75006  0.17605     N
H       0.0193  0.07063  0.18992     H
H       0.0193  0.42937  0.68992     H
H      0.01994   0.7157  0.11088     H
H      0.01994   0.7843  0.61088     H
C      0.02115  0.21723  0.08177     C
C      0.02115  0.28277  0.58177     C
C      0.02353  0.63325  0.30912     C
C      0.02353  0.86675  0.80912     C
C      0.02436  0.68798  0.66889     C
C      0.02436  0.81202  0.16889     C
C      0.02558  0.08951  0.21228     C
C      0.02558  0.41049  0.71228     C
O      0.02779  0.61543  0.33914     O
O      0.02779  0.88457  0.83914     O
H      0.03045  0.63037  0.65434     H
H      0.03045  0.86963  0.15434     H
O      0.03046   0.6651  0.39056     O
O      0.03046   0.8349  0.89056     O
C      0.03132  0.69765  0.37735     C
C      0.03132  0.80235  0.87735     C
C      0.03232  0.21865  0.62568     C
C      0.03232  0.28135  0.12568     C
C      0.03234  0.71334  0.16921     C
C      0.03234  0.78666  0.66921     C
C      0.03491  0.70134  0.13246     C
C      0.03491  0.79866  0.63246     C
H      0.03607  0.14808  0.86317     H
H      0.03607  0.35192  0.36317     H
H      0.03705  0.19471  0.64297     H
H      0.03705  0.30529  0.14297     H
C      0.03936  0.17738  0.85805     C
C      0.03936  0.32262  0.35805     C
C      0.04144  0.72031  0.67989     C
C      0.04144  0.77969  0.17989     C
C      0.04291  0.13736  0.27209     C
C      0.04291  0.36264  0.77209     C
C       0.0439  0.65482  0.66515     C
C       0.0439  0.84518  0.16515     C
C      0.04527  0.24509  0.34681     C
C      0.04527  0.25491  0.84681     C
O      0.04529  0.65956  0.30086     O
O      0.04529  0.84044  0.80086     O
H      0.04719  0.21544   0.3432     H
H      0.04719  0.28456   0.8432     H
H      0.04955  0.15567  0.29481     H
H      0.04955  0.34433  0.79481     H
C      0.05054  0.24127  0.07555     C
C      0.05054  0.25873  0.57555     C
H      0.05151  0.70432   0.2249     H
H      0.05151  0.79568   0.7249     H
C      0.05221  0.08042   0.2385     C
C      0.05221  0.41958   0.7385     C
C      0.05262  0.69489  0.19655     C
C      0.05262  0.80511  0.69655     C
H      0.05336  0.10428  0.35341     H
H      0.05336  0.39572  0.85341     H
O      0.05512  0.70613  0.35289     O
O      0.05512  0.79387  0.85289     O
C      0.05639  0.22766  0.59689     C
C      0.05639  0.27234  0.09689     C
C      0.06027  0.67403  0.12258     C
C      0.06027  0.82597  0.62258     C
C      0.06063  0.10339  0.26773     C
C      0.06063  0.39661  0.76773     C
Cu     0.06146  0.62778  0.37436    Cu
Cu     0.06146  0.87222  0.87436    Cu
H      0.06399  0.66814   0.0935     H
H      0.06399  0.83186   0.5935     H
H      0.06545  0.01844  0.19228     H
H      0.06545  0.48156  0.69228     H
H      0.07063  0.18992   0.0193     H
H      0.07063  0.31008   0.5193     H
C      0.07193  0.19632  0.86856     C
C      0.07193  0.30368  0.36856     C
C       0.0748  0.23495  0.86221     C
C       0.0748  0.26505  0.36221     C
C      0.07555  0.05054  0.24127     C
C      0.07555  0.44946  0.74127     C
C      0.07755    0.667  0.18685     C
C      0.07755    0.833  0.68685     C
C      0.07894  0.72076  0.68914     C
C      0.07894  0.77924  0.18914     C
C      0.08042   0.2385  0.05221     C
C      0.08042   0.2615  0.55221     C
C      0.08177  0.02115  0.21723     C
C      0.08177  0.47885  0.71723     C
C      0.08202  0.65481  0.67409     C
C      0.08202  0.84519  0.17409     C
C      0.08333  0.65785  0.14942     C
C      0.08333  0.84215  0.64942     C
C       0.0839  0.11208  0.35264     C
C       0.0839  0.38792  0.85264     C
H      0.08391  0.13278  0.40807     H
H      0.08391  0.36722  0.90807     H
Cu     0.08624  0.67345  0.32873    Cu
Cu     0.08624  0.82655  0.82873    Cu
N      0.08779  0.08879  0.28896     N
N      0.08779  0.41121  0.78896     N
N      0.08879  0.21104  0.58779     N
N      0.08879  0.28896  0.08779     N
C      0.08951  0.21228  0.02558     C
C      0.08951  0.28772  0.52558     C
H      0.09193  0.58391  0.13278     H
H      0.09193  0.91609  0.63278     H
O       0.0928  0.59429  0.35235     O
O       0.0928  0.90571  0.85235     O
H      0.09295  0.74589  0.69715     H
H      0.09295  0.75411  0.19715     H
H       0.0935  0.06399  0.66814     H
H       0.0935  0.43601  0.16814     H
H      0.09407  0.65444  0.20842     H
H      0.09407  0.84556  0.70842     H
O      0.09429  0.14765   0.9072     O
O      0.09429  0.35235   0.4072     O
O      0.09488   0.5977  0.64399     O
O      0.09488   0.9023  0.14399     O
C      0.09689  0.05639  0.27234     C
C      0.09689  0.44361  0.77234     C
O       0.0977  0.64399  0.40512     O
O       0.0977  0.85601  0.90512     O
C       0.0989  0.68773   0.6869     C
C       0.0989  0.81227   0.1869     C
H      0.09935   0.2499  0.87062     H
H      0.09935   0.2501  0.37062     H
C      0.10052  0.12825  0.38361     C
C      0.10052  0.37175  0.88361     C
C      0.10153  0.17698  0.88917     C
C      0.10153  0.32302  0.38917     C
C      0.10339  0.23227  0.56063     C
C      0.10339  0.26773  0.06063     C
H      0.10428  0.14659  0.55336     H
H      0.10428  0.35341  0.05336     H
C      0.10465  0.10544  0.32066     C
C      0.10465  0.39456  0.82066     C
C      0.10544  0.17934  0.60465     C
C      0.10544  0.32066  0.10465     C
C      0.10567  0.62255   0.6663     C
C      0.10567  0.87745   0.1663     C
O      0.10944  0.53046   0.6651     O
O      0.10944  0.96954   0.1651     O
O      0.11019  0.63401  0.30952     O
O      0.11019  0.86599  0.80952     O
C      0.11083  0.60153  0.32302     C
C      0.11083  0.89847  0.82302     C
H      0.11088  0.01994   0.7157     H
H      0.11088  0.48006   0.2157     H
H      0.11089  0.20505  0.65817     H
H      0.11089  0.29495  0.15817     H
C      0.11127  0.50323  0.72507     C
C      0.11127  0.99677  0.22507     C
C      0.11208  0.14736   0.5839     C
C      0.11208  0.35264   0.0839     C
O      0.11543  0.16086  0.97221     O
O      0.11543  0.33914  0.47221     O
C      0.11602   0.1805  0.64184     C
C      0.11602   0.3195  0.14184     C
C      0.11639  0.60052  0.12825     C
C      0.11639  0.89948  0.62825     C
C      0.11675  0.63839  0.13743     C
C      0.11675  0.86161  0.63743     C
O      0.12092  0.68058  0.36218     O
O      0.12092  0.81942  0.86218     O
C      0.12255   0.6663  0.39433     C
C      0.12255   0.8337  0.89433     C
C      0.12258  0.06027  0.67403     C
C      0.12258  0.43973  0.17403     C
C      0.12265  0.53132  0.69765     C
C      0.12265  0.96868  0.19765     C
C      0.12328  0.21652  0.00648     C
C      0.12328  0.28348  0.50648     C
Cu     0.12564  0.56146  0.62778    Cu
Cu     0.12564  0.93854  0.12778    Cu
C      0.12568  0.03232  0.28135     C
C      0.12568  0.46768  0.78135     C
Cu     0.12778  0.12564  0.93854    Cu
Cu     0.12778  0.37436  0.43854    Cu
H      0.12814  0.68837   0.6933     H
H      0.12814  0.81163   0.1933     H
C      0.12825  0.11639  0.60052     C
C      0.12825  0.38361  0.10052     C
H      0.12938  0.59935   0.2501     H
H      0.12938  0.90065   0.7501     H
H      0.13037  0.65434  0.46955     H
H      0.13037  0.84566  0.96955     H
C      0.13144  0.57193  0.30368     C
C      0.13144  0.92807  0.80368     C
C       0.1317  0.14953  0.65862     C
C       0.1317  0.35047  0.15862     C
C      0.13246  0.03491  0.70134     C
C      0.13246  0.46509  0.20134     C
C      0.13265  0.00226  0.25761     C
C      0.13265  0.49774  0.75761     C
H      0.13278  0.09193  0.58391     H
H      0.13278  0.40807  0.08391     H
C      0.13325  0.19088  0.97647     C
C      0.13325  0.30912  0.47647     C
O      0.13401  0.19048  0.88981     O
O      0.13401  0.30952  0.38981     O
H      0.13683  0.53607  0.35192     H
H      0.13683  0.96393  0.85192     H
C      0.13736  0.22791  0.54291     C
C      0.13736  0.27209  0.04291     C
C      0.13743  0.11675  0.63839     C
C      0.13743  0.38325  0.13839     C
H      0.13753  0.15083  0.68793     H
H      0.13753  0.34917  0.18793     H
C      0.13779   0.5748  0.26505     C
C      0.13779   0.9252  0.76505     C
O      0.13782  0.62092  0.68058     O
O      0.13782  0.87908  0.18058     O
C      0.13839  0.13743  0.38325     C
C      0.13839  0.36257  0.88325     C
C      0.14184  0.11602   0.3195     C
C      0.14184  0.38398   0.8195     C
C      0.14195  0.53936  0.32262     C
C      0.14195  0.96064  0.82262     C
H      0.14297  0.03705  0.30529     H
H      0.14297  0.46295  0.80529     H
O      0.14399  0.09488   0.9023     O
O      0.14399  0.40512   0.4023     O
H      0.14659  0.55336  0.10428     H
H      0.14659  0.94664  0.60428     H
O      0.14711  0.55512  0.70613     O
O      0.14711  0.94488  0.20613     O
C      0.14728  0.24611  0.01585     C
C      0.14728  0.25389  0.51585     C
C      0.14736   0.5839  0.11208     C
C      0.14736   0.9161  0.61208     C
O      0.14765   0.5928  0.59429     O
O      0.14765   0.9072  0.09429     O
H      0.14808  0.63683  0.53607     H
H      0.14808  0.86317  0.03607     H
C      0.14942  0.08333  0.65785     C
C      0.14942  0.41667  0.15785     C
C      0.14953  0.65862   0.1317     C
C      0.14953  0.84138   0.6317     C
H      0.15083  0.68793  0.13753     H
H      0.15083  0.81207  0.63753     H
C      0.15319  0.54527  0.24509     C
C      0.15319  0.95473  0.74509     C
H      0.15434  0.03045  0.86963     H
H      0.15434  0.46955  0.36963     H
H      0.15444  0.20842  0.40593     H
H      0.15444  0.29158  0.90593     H
C      0.15481  0.67409  0.41798     C
C      0.15481  0.82591  0.91798     C
C      0.15482  0.66515   0.4561     C
C      0.15482  0.83485   0.9561     C
H       0.1556  0.51587  0.76391     H
H       0.1556  0.98413  0.26391     H
H      0.15567  0.20519  0.54955     H
H      0.15567  0.29481  0.04955     H
H       0.1568  0.54719  0.21544     H
H       0.1568  0.95281  0.71544     H
C      0.15785  0.14942  0.41667     C
C      0.15785  0.35058  0.91667     C
H      0.15817  0.11089  0.29495     H
H      0.15817  0.38911  0.79495     H
C      0.15847  0.51102  0.30225     C
C      0.15847  0.98898  0.80225     C
C      0.15862   0.1317  0.35047     C
C      0.15862   0.3683  0.85047     C
O      0.15956  0.19914  0.95471     O
O      0.15956  0.30086  0.45471     O
O      0.16086  0.52779  0.61543     O
O      0.16086  0.97221  0.11543     O
C      0.16329  0.51349  0.26443     C
C      0.16329  0.98651  0.76443     C
O       0.1651  0.10944  0.96954     O
O       0.1651  0.39056  0.46954     O
C      0.16515   0.0439  0.84518     C
C      0.16515   0.4561  0.34518     C
C       0.1663  0.10567  0.87745     C
C       0.1663  0.39433  0.37745     C
C        0.167  0.18685  0.42245     C
C        0.167  0.31315  0.92245     C
H      0.16814   0.0935  0.43601     H
H      0.16814   0.4065  0.93601     H
C      0.16889  0.02436  0.81202     C
C      0.16889  0.47564  0.31202     C
C      0.16921  0.03234  0.71334     C
C      0.16921  0.46766  0.21334     C
Cu     0.17127  0.58624  0.67345    Cu
Cu     0.17127  0.91376  0.17345    Cu
Cu     0.17345  0.17127  0.91376    Cu
Cu     0.17345  0.32873  0.41376    Cu
H      0.17365  0.24905  0.00219     H
H      0.17365  0.25095  0.50219     H
C      0.17403  0.12258  0.43973     C
C      0.17403  0.37742  0.93973     C
C      0.17409  0.08202  0.84519     C
C      0.17409  0.41798  0.34519     C
N      0.17605  0.01873  0.75006     N
N      0.17605  0.48127  0.25006     N
C      0.17698  0.61083  0.60153     C
C      0.17698  0.88917  0.10153     C
C      0.17738  0.64195  0.53936     C
C      0.17738  0.85805  0.03936     C
C      0.17934  0.60465  0.10544     C
C      0.17934  0.89535  0.60544     C
C      0.17989  0.04144  0.77969     C
C      0.17989  0.45856  0.27969     C
C       0.1805  0.64184  0.11602     C
C       0.1805  0.85816  0.61602     C
O      0.18058  0.13782  0.87908     O
O      0.18058  0.36218  0.37908     O
C      0.18685  0.07755    0.667     C
C      0.18685  0.42245    0.167     C
C       0.1869   0.0989  0.81227     C
C       0.1869   0.4011  0.31227     C
C      0.18773   0.6869   0.4011     C
C      0.18773   0.8131   0.9011     C
H      0.18793  0.13753  0.34917     H
H      0.18793  0.36247  0.84917     H
C      0.18798  0.66889  0.47564     C
C      0.18798  0.83111  0.97564     C
H      0.18837   0.6933  0.37186     H
H      0.18837   0.8067  0.87186     H
C      0.18914  0.07894  0.77924     C
C      0.18914  0.42106  0.27924     C
H      0.18992   0.0193  0.07063     H
H      0.18992   0.4807  0.57063     H
O      0.19048  0.61019  0.63401     O
O      0.19048  0.88981  0.13401     O
C      0.19088  0.52353  0.63325     C
C      0.19088  0.97647  0.13325     C
H      0.19228  0.06545  0.01844     H
H      0.19228  0.43455  0.51844     H
H       0.1933  0.12814  0.81163     H
H       0.1933  0.37186  0.31163     H
H      0.19471  0.64297  0.03705     H
H      0.19471  0.85703  0.53705     H
C      0.19489  0.19655  0.44738     C
C      0.19489  0.30345  0.94738     C
C      0.19632  0.63144  0.57193     C
C      0.19632  0.86856  0.07193     C
C      0.19655  0.05262  0.69489     C
C      0.19655  0.44738  0.19489     C
H      0.19715  0.09295  0.75411     H
H      0.19715  0.40705  0.25411     H
C      0.19765  0.12265  0.96868     C
C      0.19765  0.37735  0.46868     C
C      0.19775  0.65847  0.51102     C
C      0.19775  0.84153  0.01102     C
O      0.19914  0.54529  0.65956     O
O      0.19914  0.95471  0.15956     O
C      0.20134  0.13246  0.46509     C
C      0.20134  0.36754  0.96509     C
H      0.20432   0.2249  0.44849     H
H      0.20432   0.2751  0.94849     H
H      0.20505  0.65817  0.11089     H
H      0.20505  0.84183  0.61089     H
H      0.20519  0.54955  0.15567     H
H      0.20519  0.95045  0.65567     H
O      0.20613  0.14711  0.94488     O
O      0.20613  0.35289  0.44488     O
H      0.20842  0.09407  0.65444     H
H      0.20842  0.40593  0.15444     H
N      0.21104  0.58779  0.08879     N
N      0.21104  0.91221  0.58879     N
C      0.21228  0.02558  0.08951     C
C      0.21228  0.47442  0.58951     C
C      0.21334  0.16921  0.46766     C
C      0.21334  0.33079  0.96766     C
H      0.21544   0.1568  0.54719     H
H      0.21544   0.3432  0.04719     H
H       0.2157  0.11088  0.48006     H
H       0.2157  0.38912  0.98006     H
C      0.21652  0.00648  0.12328     C
C      0.21652  0.49352  0.62328     C
C      0.21723  0.08177  0.02115     C
C      0.21723  0.41823  0.52115     C
C      0.21865  0.62568  0.03232     C
C      0.21865  0.87432  0.53232     C
C      0.22031  0.67989  0.45856     C
C      0.22031  0.82011  0.95856     C
C      0.22076  0.68914  0.42106     C
C      0.22076  0.81086  0.92106     C
H       0.2249  0.05151  0.70432     H
H       0.2249  0.44849  0.20432     H
C      0.22507  0.11127  0.99677     C
C      0.22507  0.38873  0.49677     C
C      0.22766  0.59689  0.05639     C
C      0.22766  0.90311  0.55639     C
C      0.22791  0.54291  0.13736     C
C      0.22791  0.95709  0.63736     C
C      0.23227  0.56063  0.10339     C
C      0.23227  0.93937  0.60339     C
C      0.23495  0.63779   0.5748     C
C      0.23495  0.86221   0.0748     C
C      0.23557  0.66329  0.51349     C
C      0.23557  0.83671  0.01349     C
H      0.23609   0.6556  0.98413     H
H      0.23609   0.8444  0.48413     H
C       0.2385  0.05221  0.08042     C
C       0.2385  0.44779  0.58042     C
C      0.24127  0.07555  0.05054     C
C      0.24127  0.42445  0.55054     C
C      0.24239  0.63265  0.00226     C
C      0.24239  0.86735  0.50226     C
C      0.24509  0.15319  0.54527     C
C      0.24509  0.34681  0.04527     C
H      0.24589  0.69715  0.40705     H
H      0.24589  0.80285  0.90705     H
C      0.24611  0.01585  0.14728     C
C      0.24611  0.48415  0.64728     C
H      0.24905  0.00219  0.17365     H
H      0.24905  0.49781  0.67365     H
H       0.2499  0.62938  0.59935     H
H       0.2499  0.87062  0.09935     H
N      0.24994  0.67605  0.48127     N
N      0.24994  0.82395  0.98127     N
N      0.25006  0.17605  0.48127     N
N      0.25006  0.32395  0.98127     N
H       0.2501  0.12938  0.59935     H
H       0.2501  0.37062  0.09935     H
H      0.25095  0.50219  0.17365     H
H      0.25095  0.99781  0.67365     H
C      0.25389  0.51585  0.14728     C
C      0.25389  0.98415  0.64728     C
H      0.25411  0.19715  0.40705     H
H      0.25411  0.30285  0.90705     H
C      0.25491  0.65319  0.54527     C
C      0.25491  0.84681  0.04527     C
C      0.25761  0.13265  0.00226     C
C      0.25761  0.36735  0.50226     C
C      0.25873  0.57555  0.05054     C
C      0.25873  0.92445  0.55054     C
C       0.2615  0.55221  0.08042     C
C       0.2615  0.94779  0.58042     C
H      0.26391   0.1556  0.98413     H
H      0.26391   0.3444  0.48413     H
C      0.26443  0.16329  0.51349     C
C      0.26443  0.33671  0.01349     C
C      0.26505  0.13779   0.5748     C
C      0.26505  0.36221   0.0748     C
C      0.26773  0.06063  0.10339     C
C      0.26773  0.43937  0.60339     C
C      0.27209  0.04291  0.13736     C
C      0.27209  0.45709  0.63736     C
C      0.27234  0.09689  0.05639     C
C      0.27234  0.40311  0.55639     C
C      0.27493  0.61127  0.99677     C
C      0.27493  0.88873  0.49677     C
H       0.2751  0.55151  0.70432     H
H       0.2751  0.94849  0.20432     H
C      0.27924  0.18914  0.42106     C
C      0.27924  0.31086  0.92106     C
C      0.27969  0.17989  0.45856     C
C      0.27969  0.32011  0.95856     C
C      0.28135  0.12568  0.03232     C
C      0.28135  0.37432  0.53232     C
C      0.28277  0.58177  0.02115     C
C      0.28277  0.91823  0.52115     C
C      0.28348  0.50648  0.12328     C
C      0.28348  0.99352  0.62328     C
H       0.2843  0.61088  0.48006     H
H       0.2843  0.88912  0.98006     H
H      0.28456   0.6568  0.54719     H
H      0.28456   0.8432  0.04719     H
C      0.28666  0.66921  0.46766     C
C      0.28666  0.83079  0.96766     C
C      0.28772  0.52558  0.08951     C
C      0.28772  0.97442  0.58951     C
N      0.28896  0.08779  0.08879     N
N      0.28896  0.41221  0.58879     N
H      0.29158  0.59407  0.65444     H
H      0.29158  0.90593  0.15444     H
O      0.29387  0.64711  0.94488     O
O      0.29387  0.85289  0.44488     O
H      0.29481  0.04955  0.15567     H
H      0.29481  0.45045  0.65567     H
H      0.29495  0.15817  0.11089     H
H      0.29495  0.34183  0.61089     H
H      0.29568   0.7249  0.44849     H
H      0.29568   0.7751  0.94849     H
C      0.29866  0.63246  0.46509     C
C      0.29866  0.86754  0.96509     C
O      0.30086  0.04529  0.65956     O
O      0.30086  0.45471  0.15956     O
C      0.30225  0.15847  0.51102     C
C      0.30225  0.34153  0.01102     C
C      0.30235  0.62265  0.96868     C
C      0.30235  0.87735  0.46868     C
H      0.30285  0.59295  0.75411     H
H      0.30285  0.90705  0.25411     H
C      0.30345  0.55262  0.69489     C
C      0.30345  0.94738  0.19489     C
C      0.30368  0.13144  0.57193     C
C      0.30368  0.36856  0.07193     C
C      0.30511  0.69655  0.44738     C
C      0.30511  0.80345  0.94738     C
H      0.30529  0.14297  0.03705     H
H      0.30529  0.35703  0.53705     H
H       0.3067  0.62814  0.81163     H
H       0.3067  0.87186  0.31163     H
H      0.30772  0.56545  0.01844     H
H      0.30772  0.93455  0.51844     H
C      0.30912  0.02353  0.63325     C
C      0.30912  0.47647  0.13325     C
O      0.30952  0.11019  0.63401     O
O      0.30952  0.38981  0.13401     O
H      0.31008   0.5193  0.07063     H
H      0.31008   0.9807  0.57063     H
C      0.31086  0.57894  0.77924     C
C      0.31086  0.92106  0.27924     C
H      0.31163   0.1933  0.37186     H
H      0.31163   0.3067  0.87186     H
C      0.31202  0.16889  0.47564     C
C      0.31202  0.33111  0.97564     C
H      0.31207  0.63753  0.34917     H
H      0.31207  0.86247  0.84917     H
C      0.31227   0.1869   0.4011     C
C      0.31227   0.3131   0.9011     C
C       0.3131   0.5989  0.81227     C
C       0.3131   0.9011  0.31227     C
C      0.31315  0.57755    0.667     C
C      0.31315  0.92245    0.167     C
O      0.31942  0.63782  0.87908     O
O      0.31942  0.86218  0.37908     O
C       0.3195  0.14184  0.11602     C
C       0.3195  0.35816  0.61602     C
C      0.32011  0.54144  0.77969     C
C      0.32011  0.95856  0.27969     C
C      0.32066  0.10465  0.10544     C
C      0.32066  0.39535  0.60544     C
C      0.32262  0.14195  0.53936     C
C      0.32262  0.35805  0.03936     C
C      0.32302  0.11083  0.60153     C
C      0.32302  0.38917  0.10153     C
N      0.32395  0.51873  0.75006     N
N      0.32395  0.98127  0.25006     N
C      0.32591  0.58202  0.84519     C
C      0.32591  0.91798  0.34519     C
C      0.32597  0.62258  0.43973     C
C      0.32597  0.87742  0.93973     C
H      0.32635  0.74905  0.00219     H
H      0.32635  0.75095  0.50219     H
Cu     0.32655  0.67127  0.91376    Cu
Cu     0.32655  0.82873  0.41376    Cu
Cu     0.32873  0.08624  0.67345    Cu
Cu     0.32873  0.41376  0.17345    Cu
C      0.33079  0.53234  0.71334     C
C      0.33079  0.96766  0.21334     C
C      0.33111  0.52436  0.81202     C
C      0.33111  0.97564  0.31202     C
H      0.33186   0.5935  0.43601     H
H      0.33186   0.9065  0.93601     H
C        0.333  0.68685  0.42245     C
C        0.333  0.81315  0.92245     C
C       0.3337  0.60567  0.87745     C
C       0.3337  0.89433  0.37745     C
C      0.33485   0.5439  0.84518     C
C      0.33485   0.9561  0.34518     C
O       0.3349  0.60944  0.96954     O
O       0.3349  0.89056  0.46954     O
C      0.33671  0.01349  0.26443     C
C      0.33671  0.48651  0.76443     C
O      0.33914  0.02779  0.61543     O
O      0.33914  0.47221  0.11543     O
O      0.34044  0.69914  0.95471     O
O      0.34044  0.80086  0.45471     O
C      0.34138   0.6317  0.35047     C
C      0.34138   0.8683  0.85047     C
C      0.34153  0.01102  0.30225     C
C      0.34153  0.48898  0.80225     C
H      0.34183  0.61089  0.29495     H
H      0.34183  0.88911  0.79495     H
C      0.34215  0.64942  0.41667     C
C      0.34215  0.85058  0.91667     C
H       0.3432  0.04719  0.21544     H
H       0.3432  0.45281  0.71544     H
H      0.34433  0.70519  0.54955     H
H      0.34433  0.79481  0.04955     H
H       0.3444  0.01587  0.76391     H
H       0.3444  0.48413  0.26391     H
C      0.34518  0.16515   0.4561     C
C      0.34518  0.33485   0.9561     C
C      0.34519  0.17409  0.41798     C
C      0.34519  0.32591  0.91798     C
H      0.34556  0.70842  0.40593     H
H      0.34556  0.79158  0.90593     H
H      0.34566  0.53045  0.86963     H
H      0.34566  0.96955  0.36963     H
C      0.34681  0.04527  0.24509     C
C      0.34681  0.45473  0.74509     C
H      0.34917  0.18793  0.13753     H
H      0.34917  0.31207  0.63753     H
C      0.35047  0.15862   0.1317     C
C      0.35047  0.34138   0.6317     C
C      0.35058  0.58333  0.65785     C
C      0.35058  0.91667  0.15785     C
H      0.35192  0.13683  0.53607     H
H      0.35192  0.36317  0.03607     H
O      0.35235   0.0928  0.59429     O
O      0.35235   0.4072  0.09429     O
C      0.35264   0.0839  0.11208     C
C      0.35264   0.4161  0.61208     C
C      0.35272  0.74611  0.01585     C
C      0.35272  0.75389  0.51585     C
O      0.35289  0.05512  0.70613     O
O      0.35289  0.44488  0.20613     O
H      0.35341  0.05336  0.10428     H
H      0.35341  0.44664  0.60428     H
O      0.35601  0.59488   0.9023     O
O      0.35601  0.90512   0.4023     O
H      0.35703  0.53705  0.30529     H
H      0.35703  0.96295  0.80529     H
C      0.35805  0.03936  0.32262     C
C      0.35805  0.46064  0.82262     C
C      0.35816  0.61602   0.3195     C
C      0.35816  0.88398   0.8195     C
C      0.36161  0.63743  0.38325     C
C      0.36161  0.86257  0.88325     C
O      0.36218  0.12092  0.68058     O
O      0.36218  0.37908  0.18058     O
C      0.36221   0.0748  0.26505     C
C      0.36221   0.4252  0.76505     C
H      0.36247  0.65083  0.68793     H
H      0.36247  0.84917  0.18793     H
C      0.36257  0.61675  0.63839     C
C      0.36257  0.88325  0.13839     C
C      0.36264  0.72791  0.54291     C
C      0.36264  0.77209  0.04291     C
H      0.36317  0.03607  0.35192     H
H      0.36317  0.46393  0.85192     H
O      0.36599  0.69048  0.88981     O
O      0.36599  0.80952  0.38981     O
C      0.36675  0.69088  0.97647     C
C      0.36675  0.80912  0.47647     C
H      0.36722  0.59193  0.58391     H
H      0.36722  0.90807  0.08391     H
C      0.36735  0.50226  0.25761     C
C      0.36735  0.99774  0.75761     C
C      0.36754  0.53491  0.70134     C
C      0.36754  0.96509  0.20134     C
C       0.3683  0.64953  0.65862     C
C       0.3683  0.85047  0.15862     C
C      0.36856  0.07193  0.30368     C
C      0.36856  0.42807  0.80368     C
H      0.36963  0.15434  0.46955     H
H      0.36963  0.34566  0.96955     H
H      0.37062  0.09935   0.2501     H
H      0.37062  0.40065   0.7501     H
C      0.37175  0.61639  0.60052     C
C      0.37175  0.88361  0.10052     C
H      0.37186  0.18837   0.6933     H
H      0.37186  0.31163   0.1933     H
Cu     0.37222  0.62564  0.93854    Cu
Cu     0.37222  0.87436  0.43854    Cu
C      0.37432  0.53232  0.28135     C
C      0.37432  0.96768  0.78135     C
Cu     0.37436  0.06146  0.62778    Cu
Cu     0.37436  0.43854  0.12778    Cu
C      0.37672  0.71652  0.00648     C
C      0.37672  0.78348  0.50648     C
C      0.37735  0.03132  0.69765     C
C      0.37735  0.46868  0.19765     C
C      0.37742  0.56027  0.67403     C
C      0.37742  0.93973  0.17403     C
C      0.37745   0.1663  0.39433     C
C      0.37745   0.3337  0.89433     C
O      0.37908  0.18058  0.36218     O
O      0.37908  0.31942  0.86218     O
C      0.38325  0.13839  0.13743     C
C      0.38325  0.36161  0.63743     C
C      0.38361  0.10052  0.12825     C
C      0.38361  0.39948  0.62825     C
C      0.38398   0.6805  0.64184     C
C      0.38398   0.8195  0.14184     C
O      0.38457  0.66086  0.97221     O
O      0.38457  0.83914  0.47221     O
C      0.38792  0.64736   0.5839     C
C      0.38792  0.85264   0.0839     C
C      0.38873  0.00323  0.72507     C
C      0.38873  0.49677  0.22507     C
H      0.38911  0.70505  0.65817     H
H      0.38911  0.79495  0.15817     H
H      0.38912  0.51994   0.7157     H
H      0.38912  0.98006   0.2157     H
C      0.38917  0.10153  0.32302     C
C      0.38917  0.39847  0.82302     C
O      0.38981  0.13401  0.30952     O
O      0.38981  0.36599  0.80952     O
O      0.39056  0.03046   0.6651     O
O      0.39056  0.46954   0.1651     O
C      0.39433  0.12255   0.6663     C
C      0.39433  0.37745   0.1663     C
C      0.39456  0.67934  0.60465     C
C      0.39456  0.82066  0.10465     C
C      0.39535  0.60544  0.32066     C
C      0.39535  0.89456  0.82066     C
H      0.39572  0.64659  0.55336     H
H      0.39572  0.85341  0.05336     H
C      0.39661  0.73227  0.56063     C
C      0.39661  0.76773  0.06063     C
C      0.39847  0.67698  0.88917     C
C      0.39847  0.82302  0.38917     C
C      0.39948  0.62825  0.38361     C
C      0.39948  0.87175  0.88361     C
H      0.40065   0.7499  0.87062     H
H      0.40065   0.7501  0.37062     H
C       0.4011  0.18773   0.6869     C
C       0.4011  0.31227   0.1869     C
O       0.4023  0.14399  0.40512     O
O       0.4023  0.35601  0.90512     O
C      0.40311  0.55639  0.27234     C
C      0.40311  0.94361  0.77234     C
O      0.40512   0.0977  0.64399     O
O      0.40512   0.4023  0.14399     O
O      0.40571  0.64765   0.9072     O
O      0.40571  0.85235   0.4072     O
H      0.40593  0.15444  0.20842     H
H      0.40593  0.34556  0.70842     H
H       0.4065  0.56399  0.66814     H
H       0.4065  0.93601  0.16814     H
H      0.40705  0.24589  0.69715     H
H      0.40705  0.25411  0.19715     H
O       0.4072  0.09429  0.35235     O
O       0.4072  0.40571  0.85235     O
H      0.40807  0.08391  0.13278     H
H      0.40807  0.41609  0.63278     H
C      0.41049  0.71228  0.02558     C
C      0.41049  0.78772  0.52558     C
N      0.41121  0.71104  0.58779     N
N      0.41121  0.78896  0.08779     N
N      0.41221  0.58879  0.28896     N
N      0.41221  0.91121  0.78896     N
Cu     0.41376  0.17345  0.32873    Cu
Cu     0.41376  0.32655  0.82873    Cu
H      0.41609  0.63278  0.40807     H
H      0.41609  0.86722  0.90807     H
C       0.4161  0.61208  0.35264     C
C       0.4161  0.88792  0.85264     C
C      0.41667  0.15785  0.14942     C
C      0.41667  0.34215  0.64942     C
C      0.41798  0.15481  0.67409     C
C      0.41798  0.34519  0.17409     C
C      0.41823  0.52115  0.21723     C
C      0.41823  0.97885  0.71723     C
C      0.41958   0.7385  0.05221     C
C      0.41958   0.7615  0.55221     C
C      0.42106  0.22076  0.68914     C
C      0.42106  0.27924  0.18914     C
C      0.42245    0.167  0.18685     C
C      0.42245    0.333  0.68685     C
C      0.42445  0.55054  0.24127     C
C      0.42445  0.94946  0.74127     C
C       0.4252  0.73495  0.86221     C
C       0.4252  0.76505  0.36221     C
C      0.42807  0.69632  0.86856     C
C      0.42807  0.80368  0.36856     C
H      0.42937  0.68992   0.0193     H
H      0.42937  0.81008   0.5193     H
H      0.43455  0.51844  0.19228     H
H      0.43455  0.98156  0.69228     H
H      0.43601  0.16814   0.0935     H
H      0.43601  0.33186   0.5935     H
Cu     0.43854  0.12778  0.37436    Cu
Cu     0.43854  0.37222  0.87436    Cu
C      0.43937  0.60339  0.26773     C
C      0.43937  0.89661  0.76773     C
C      0.43973  0.17403  0.12258     C
C      0.43973  0.32597  0.62258     C
C      0.44361  0.72766  0.59689     C
C      0.44361  0.77234  0.09689     C
O      0.44488  0.20613  0.35289     O
O      0.44488  0.29387  0.85289     O
H      0.44664  0.60428  0.35341     H
H      0.44664  0.89572  0.85341     H
C      0.44738  0.19489  0.19655     C
C      0.44738  0.30511  0.69655     C
C      0.44779  0.58042   0.2385     C
C      0.44779  0.91958   0.7385     C
H      0.44849  0.20432   0.2249     H
H      0.44849  0.29568   0.7249     H
C      0.44946  0.74127  0.07555     C
C      0.44946  0.75873  0.57555     C
H      0.45045  0.65567  0.29481     H
H      0.45045  0.84433  0.79481     H
H      0.45281  0.71544   0.3432     H
H      0.45281  0.78456   0.8432     H
O      0.45471  0.15956  0.30086     O
O      0.45471  0.34044  0.80086     O
C      0.45473  0.74509  0.34681     C
C      0.45473  0.75491  0.84681     C
C       0.4561  0.15482  0.66515     C
C       0.4561  0.34518  0.16515     C
C      0.45709  0.63736  0.27209     C
C      0.45709  0.86264  0.77209     C
C      0.45856  0.22031  0.67989     C
C      0.45856  0.27969  0.17989     C
C      0.46064  0.67738  0.85805     C
C      0.46064  0.82262  0.35805     C
H      0.46295  0.69471  0.64297     H
H      0.46295  0.80529  0.14297     H
H      0.46393  0.64808  0.86317     H
H      0.46393  0.85192  0.36317     H
C      0.46509  0.20134  0.13246     C
C      0.46509  0.29866  0.63246     C
C      0.46766  0.21334  0.16921     C
C      0.46766  0.28666  0.66921     C
C      0.46768  0.71865  0.62568     C
C      0.46768  0.78135  0.12568     C
C      0.46868  0.19765  0.37735     C
C      0.46868  0.30235  0.87735     C
O      0.46954   0.1651  0.39056     O
O      0.46954   0.3349  0.89056     O
H      0.46955  0.13037  0.65434     H
H      0.46955  0.36963  0.15434     H
O      0.47221  0.11543  0.33914     O
O      0.47221  0.38457  0.83914     O
C      0.47442  0.58951  0.21228     C
C      0.47442  0.91049  0.71228     C
C      0.47564  0.18798  0.66889     C
C      0.47564  0.31202  0.16889     C
C      0.47647  0.13325  0.30912     C
C      0.47647  0.36675  0.80912     C
C      0.47885  0.71723  0.08177     C
C      0.47885  0.78277  0.58177     C
H      0.48006   0.2157  0.11088     H
H      0.48006   0.2843  0.61088     H
H       0.4807  0.57063  0.18992     H
H       0.4807  0.92937  0.68992     H
N      0.48127  0.24994  0.67605     N
N      0.48127  0.25006  0.17605     N
H      0.48156  0.69228  0.06545     H
H      0.48156  0.80772  0.56545     H
H      0.48413  0.23609   0.8444     H
H      0.48413  0.26391   0.3444     H
C      0.48415  0.64728  0.24611     C
C      0.48415  0.85272  0.74611     C
C      0.48651  0.73557  0.83671     C
C      0.48651  0.76443  0.33671     C
C      0.48898  0.69775  0.84153     C
C      0.48898  0.80225  0.34153     C
C      0.49352  0.62328  0.21652     C
C      0.49352  0.87672  0.71652     C
C      0.49677  0.22507  0.38873     C
C      0.49677  0.27493  0.88873     C
C      0.49774  0.74239  0.63265     C
C      0.49774  0.75761  0.13265     C
H      0.49781  0.67365  0.24905     H
H      0.49781  0.82635  0.74905     H
H      0.50219  0.17365  0.25095     H
H      0.50219  0.32635  0.75095     H
C      0.50226  0.24239  0.86735     C
C      0.50226  0.25761  0.36735     C
C      0.50323  0.72507  0.11127     C
C      0.50323  0.77493  0.61127     C
C      0.50648  0.12328  0.28348     C
C      0.50648  0.37672  0.78348     C
C      0.51102  0.19775  0.65847     C
C      0.51102  0.30225  0.15847     C
C      0.51349  0.23557  0.66329     C
C      0.51349  0.26443  0.16329     C
C      0.51585  0.14728  0.25389     C
C      0.51585  0.35272  0.75389     C
H      0.51587  0.73609   0.6556     H
H      0.51587  0.76391   0.1556     H
H      0.51844  0.19228  0.43455     H
H      0.51844  0.30772  0.93455     H
N      0.51873  0.74994  0.82395     N
N      0.51873  0.75006  0.32395     N
H       0.5193  0.07063  0.31008     H
H       0.5193  0.42937  0.81008     H
H      0.51994   0.7157  0.38912     H
H      0.51994   0.7843  0.88912     H
C      0.52115  0.21723  0.41823     C
C      0.52115  0.28277  0.91823     C
C      0.52353  0.63325  0.19088     C
C      0.52353  0.86675  0.69088     C
C      0.52436  0.68798  0.83111     C
C      0.52436  0.81202  0.33111     C
C      0.52558  0.08951  0.28772     C
C      0.52558  0.41049  0.78772     C
O      0.52779  0.61543  0.16086     O
O      0.52779  0.88457  0.66086     O
H      0.53045  0.63037  0.84566     H
H      0.53045  0.86963  0.34566     H
O      0.53046   0.6651  0.10944     O
O      0.53046   0.8349  0.60944     O
C      0.53132  0.69765  0.12265     C
C      0.53132  0.80235  0.62265     C
C      0.53232  0.21865  0.87432     C
C      0.53232  0.28135  0.37432     C
C      0.53234  0.71334  0.33079     C
C      0.53234  0.78666  0.83079     C
C      0.53491  0.70134  0.36754     C
C      0.53491  0.79866  0.86754     C
H      0.53607  0.14808  0.63683     H
H      0.53607  0.35192  0.13683     H
H      0.53705  0.19471  0.85703     H
H      0.53705  0.30529  0.35703     H
C      0.53936  0.17738  0.64195     C
C      0.53936  0.32262  0.14195     C
C      0.54144  0.72031  0.82011     C
C      0.54144  0.77969  0.32011     C
C      0.54291  0.13736  0.22791     C
C      0.54291  0.36264  0.72791     C
C       0.5439  0.65482  0.83485     C
C       0.5439  0.84518  0.33485     C
C      0.54527  0.24509  0.15319     C
C      0.54527  0.25491  0.65319     C
O      0.54529  0.65956  0.19914     O
O      0.54529  0.84044  0.69914     O
H      0.54719  0.21544   0.1568     H
H      0.54719  0.28456   0.6568     H
H      0.54955  0.15567  0.20519     H
H      0.54955  0.34433  0.70519     H
C      0.55054  0.24127  0.42445     C
C      0.55054  0.25873  0.92445     C
H      0.55151  0.70432   0.2751     H
H      0.55151  0.79568   0.7751     H
C      0.55221  0.08042   0.2615     C
C      0.55221  0.41958   0.7615     C
C      0.55262  0.69489  0.30345     C
C      0.55262  0.80511  0.80345     C
H      0.55336  0.10428  0.14659     H
H      0.55336  0.39572  0.64659     H
O      0.55512  0.70613  0.14711     O
O      0.55512  0.79387  0.64711     O
C      0.55639  0.22766  0.90311     C
C      0.55639  0.27234  0.40311     C
C      0.56027  0.67403  0.37742     C
C      0.56027  0.82597  0.87742     C
C      0.56063  0.10339  0.23227     C
C      0.56063  0.39661  0.73227     C
Cu     0.56146  0.62778  0.12564    Cu
Cu     0.56146  0.87222  0.62564    Cu
H      0.56399  0.66814   0.4065     H
H      0.56399  0.83186   0.9065     H
H      0.56545  0.01844  0.30772     H
H      0.56545  0.48156  0.80772     H
H      0.57063  0.18992   0.4807     H
H      0.57063  0.31008   0.9807     H
C      0.57193  0.19632  0.63144     C
C      0.57193  0.30368  0.13144     C
C       0.5748  0.23495  0.63779     C
C       0.5748  0.26505  0.13779     C
C      0.57555  0.05054  0.25873     C
C      0.57555  0.44946  0.75873     C
C      0.57755    0.667  0.31315     C
C      0.57755    0.833  0.81315     C
C      0.57894  0.72076  0.81086     C
C      0.57894  0.77924  0.31086     C
C      0.58042   0.2385  0.44779     C
C      0.58042   0.2615  0.94779     C
C      0.58177  0.02115  0.28277     C
C      0.58177  0.47885  0.78277     C
C      0.58202  0.65481  0.82591     C
C      0.58202  0.84519  0.32591     C
C      0.58333  0.65785  0.35058     C
C      0.58333  0.84215  0.85058     C
C       0.5839  0.11208  0.14736     C
C       0.5839  0.38792  0.64736     C
H      0.58391  0.13278  0.09193     H
H      0.58391  0.36722  0.59193     H
Cu     0.58624  0.67345  0.17127    Cu
Cu     0.58624  0.82655  0.67127    Cu
N      0.58779  0.08879  0.21104     N
N      0.58779  0.41121  0.71104     N
N      0.58879  0.21104  0.91221     N
N      0.58879  0.28896  0.41221     N
C      0.58951  0.21228  0.47442     C
C      0.58951  0.28772  0.97442     C
H      0.59193  0.58391  0.36722     H
H      0.59193  0.91609  0.86722     H
O       0.5928  0.59429  0.14765     O
O       0.5928  0.90571  0.64765     O
H      0.59295  0.74589  0.80285     H
H      0.59295  0.75411  0.30285     H
H       0.5935  0.06399  0.83186     H
H       0.5935  0.43601  0.33186     H
H      0.59407  0.65444  0.29158     H
H      0.59407  0.84556  0.79158     H
O      0.59429  0.14765   0.5928     O
O      0.59429  0.35235   0.0928     O
O      0.59488   0.5977  0.85601     O
O      0.59488   0.9023  0.35601     O
C      0.59689  0.05639  0.22766     C
C      0.59689  0.44361  0.72766     C
O       0.5977  0.64399  0.09488     O
O       0.5977  0.85601  0.59488     O
C       0.5989  0.68773   0.8131     C
C       0.5989  0.81227   0.3131     C
H      0.59935   0.2499  0.62938     H
H      0.59935   0.2501  0.12938     H
C      0.60052  0.12825  0.11639     C
C      0.60052  0.37175  0.61639     C
C      0.60153  0.17698  0.61083     C
C      0.60153  0.32302  0.11083     C
C      0.60339  0.23227  0.93937     C
C      0.60339  0.26773  0.43937     C
H      0.60428  0.14659  0.94664     H
H      0.60428  0.35341  0.44664     H
C      0.60465  0.10544  0.17934     C
C      0.60465  0.39456  0.67934     C
C      0.60544  0.17934  0.89535     C
C      0.60544  0.32066  0.39535     C
C      0.60567  0.62255   0.8337     C
C      0.60567  0.87745   0.3337     C
O      0.60944  0.53046   0.8349     O
O      0.60944  0.96954   0.3349     O
O      0.61019  0.63401  0.19048     O
O      0.61019  0.86599  0.69048     O
C      0.61083  0.60153  0.17698     C
C      0.61083  0.89847  0.67698     C
H      0.61088  0.01994   0.7843     H
H      0.61088  0.48006   0.2843     H
H      0.61089  0.20505  0.84183     H
H      0.61089  0.29495  0.34183     H
C      0.61127  0.50323  0.77493     C
C      0.61127  0.99677  0.27493     C
C      0.61208  0.14736   0.9161     C
C      0.61208  0.35264   0.4161     C
O      0.61543  0.16086  0.52779     O
O      0.61543  0.33914  0.02779     O
C      0.61602   0.1805  0.85816     C
C      0.61602   0.3195  0.35816     C
C      0.61639  0.60052  0.37175     C
C      0.61639  0.89948  0.87175     C
C      0.61675  0.63839  0.36257     C
C      0.61675  0.86161  0.86257     C
O      0.62092  0.68058  0.13782     O
O      0.62092  0.81942  0.63782     O
C      0.62255   0.6663  0.10567     C
C      0.62255   0.8337  0.60567     C
C      0.62258  0.06027  0.82597     C
C      0.62258  0.43973  0.32597     C
C      0.62265  0.53132  0.80235     C
C      0.62265  0.96868  0.30235     C
C      0.62328  0.21652  0.49352     C
C      0.62328  0.28348  0.99352     C
Cu     0.62564  0.56146  0.87222    Cu
Cu     0.62564  0.93854  0.37222    Cu
C      0.62568  0.03232  0.21865     C
C      0.62568  0.46768  0.71865     C
Cu     0.62778  0.12564  0.56146    Cu
Cu     0.62778  0.37436  0.06146    Cu
H      0.62814  0.68837   0.8067     H
H      0.62814  0.81163   0.3067     H
C      0.62825  0.11639  0.89948     C
C      0.62825  0.38361  0.39948     C
H      0.62938  0.59935   0.2499     H
H      0.62938  0.90065   0.7499     H
H      0.63037  0.65434  0.03045     H
H      0.63037  0.84566  0.53045     H
C      0.63144  0.57193  0.19632     C
C      0.63144  0.92807  0.69632     C
C       0.6317  0.14953  0.84138     C
C       0.6317  0.35047  0.34138     C
C      0.63246  0.03491  0.79866     C
C      0.63246  0.46509  0.29866     C
C      0.63265  0.00226  0.24239     C
C      0.63265  0.49774  0.74239     C
H      0.63278  0.09193  0.91609     H
H      0.63278  0.40807  0.41609     H
C      0.63325  0.19088  0.52353     C
C      0.63325  0.30912  0.02353     C
O      0.63401  0.19048  0.61019     O
O      0.63401  0.30952  0.11019     O
H      0.63683  0.53607  0.14808     H
H      0.63683  0.96393  0.64808     H
C      0.63736  0.22791  0.95709     C
C      0.63736  0.27209  0.45709     C
C      0.63743  0.11675  0.86161     C
C      0.63743  0.38325  0.36161     C
H      0.63753  0.15083  0.81207     H
H      0.63753  0.34917  0.31207     H
C      0.63779   0.5748  0.23495     C
C      0.63779   0.9252  0.73495     C
O      0.63782  0.62092  0.81942     O
O      0.63782  0.87908  0.31942     O
C      0.63839  0.13743  0.11675     C
C      0.63839  0.36257  0.61675     C
C      0.64184  0.11602   0.1805     C
C      0.64184  0.38398   0.6805     C
C      0.64195  0.53936  0.17738     C
C      0.64195  0.96064  0.67738     C
H      0.64297  0.03705  0.19471     H
H      0.64297  0.46295  0.69471     H
O      0.64399  0.09488   0.5977     O
O      0.64399  0.40512   0.0977     O
H      0.64659  0.55336  0.39572     H
H      0.64659  0.94664  0.89572     H
O      0.64711  0.55512  0.79387     O
O      0.64711  0.94488  0.29387     O
C      0.64728  0.24611  0.48415     C
C      0.64728  0.25389  0.98415     C
C      0.64736   0.5839  0.38792     C
C      0.64736   0.9161  0.88792     C
O      0.64765   0.5928  0.90571     O
O      0.64765   0.9072  0.40571     O
H      0.64808  0.63683  0.96393     H
H      0.64808  0.86317  0.46393     H
C      0.64942  0.08333  0.84215     C
C      0.64942  0.41667  0.34215     C
C      0.64953  0.65862   0.3683     C
C      0.64953  0.84138   0.8683     C
H      0.65083  0.68793  0.36247     H
H      0.65083  0.81207  0.86247     H
C      0.65319  0.54527  0.25491     C
C      0.65319  0.95473  0.75491     C
H      0.65434  0.03045  0.63037     H
H      0.65434  0.46955  0.13037     H
H      0.65444  0.20842  0.09407     H
H      0.65444  0.29158  0.59407     H
C      0.65481  0.67409  0.08202     C
C      0.65481  0.82591  0.58202     C
C      0.65482  0.66515   0.0439     C
C      0.65482  0.83485   0.5439     C
H       0.6556  0.51587  0.73609     H
H       0.6556  0.98413  0.23609     H
H      0.65567  0.20519  0.95045     H
H      0.65567  0.29481  0.45045     H
H       0.6568  0.54719  0.28456     H
H       0.6568  0.95281  0.78456     H
C      0.65785  0.14942  0.08333     C
C      0.65785  0.35058  0.58333     C
H      0.65817  0.11089  0.20505     H
H      0.65817  0.38911  0.70505     H
C      0.65847  0.51102  0.19775     C
C      0.65847  0.98898  0.69775     C
C      0.65862   0.1317  0.14953     C
C      0.65862   0.3683  0.64953     C
O      0.65956  0.19914  0.54529     O
O      0.65956  0.30086  0.04529     O
O      0.66086  0.52779  0.88457     O
O      0.66086  0.97221  0.38457     O
C      0.66329  0.51349  0.23557     C
C      0.66329  0.98651  0.73557     C
O       0.6651  0.10944  0.53046     O
O       0.6651  0.39056  0.03046     O
C      0.66515   0.0439  0.65482     C
C      0.66515   0.4561  0.15482     C
C       0.6663  0.10567  0.62255     C
C       0.6663  0.39433  0.12255     C
C        0.667  0.18685  0.07755     C
C        0.667  0.31315  0.57755     C
H      0.66814   0.0935  0.06399     H
H      0.66814   0.4065  0.56399     H
C      0.66889  0.02436  0.68798     C
C      0.66889  0.47564  0.18798     C
C      0.66921  0.03234  0.78666     C
C      0.66921  0.46766  0.28666     C
Cu     0.67127  0.58624  0.82655    Cu
Cu     0.67127  0.91376  0.32655    Cu
Cu     0.67345  0.17127  0.58624    Cu
Cu     0.67345  0.32873  0.08624    Cu
H      0.67365  0.24905  0.49781     H
H      0.67365  0.25095  0.99781     H
C      0.67403  0.12258  0.06027     C
C      0.67403  0.37742  0.56027     C
C      0.67409  0.08202  0.65481     C
C      0.67409  0.41798  0.15481     C
N      0.67605  0.01873  0.74994     N
N      0.67605  0.48127  0.24994     N
C      0.67698  0.61083  0.89847     C
C      0.67698  0.88917  0.39847     C
C      0.67738  0.64195  0.96064     C
C      0.67738  0.85805  0.46064     C
C      0.67934  0.60465  0.39456     C
C      0.67934  0.89535  0.89456     C
C      0.67989  0.04144  0.72031     C
C      0.67989  0.45856  0.22031     C
C       0.6805  0.64184  0.38398     C
C       0.6805  0.85816  0.88398     C
O      0.68058  0.13782  0.62092     O
O      0.68058  0.36218  0.12092     O
C      0.68685  0.07755    0.833     C
C      0.68685  0.42245    0.333     C
C       0.6869   0.0989  0.68773     C
C       0.6869   0.4011  0.18773     C
C      0.68773   0.6869   0.0989     C
C      0.68773   0.8131   0.5989     C
H      0.68793  0.13753  0.15083     H
H      0.68793  0.36247  0.65083     H
C      0.68798  0.66889  0.02436     C
C      0.68798  0.83111  0.52436     C
H      0.68837   0.6933  0.12814     H
H      0.68837   0.8067  0.62814     H
C      0.68914  0.07894  0.72076     C
C      0.68914  0.42106  0.22076     C
H      0.68992   0.0193  0.42937     H
H      0.68992   0.4807  0.92937     H
O      0.69048  0.61019  0.86599     O
O      0.69048  0.88981  0.36599     O
C      0.69088  0.52353  0.86675     C
C      0.69088  0.97647  0.36675     C
H      0.69228  0.06545  0.48156     H
H      0.69228  0.43455  0.98156     H
H       0.6933  0.12814  0.68837     H
H       0.6933  0.37186  0.18837     H
H      0.69471  0.64297  0.46295     H
H      0.69471  0.85703  0.96295     H
C      0.69489  0.19655  0.05262     C
C      0.69489  0.30345  0.55262     C
C      0.69632  0.63144  0.92807     C
C      0.69632  0.86856  0.42807     C
C      0.69655  0.05262  0.80511     C
C      0.69655  0.44738  0.30511     C
H      0.69715  0.09295  0.74589     H
H      0.69715  0.40705  0.24589     H
C      0.69765  0.12265  0.53132     C
C      0.69765  0.37735  0.03132     C
C      0.69775  0.65847  0.98898     C
C      0.69775  0.84153  0.48898     C
O      0.69914  0.54529  0.84044     O
O      0.69914  0.95471  0.34044     O
C      0.70134  0.13246  0.03491     C
C      0.70134  0.36754  0.53491     C
H      0.70432   0.2249  0.05151     H
H      0.70432   0.2751  0.55151     H
H      0.70505  0.65817  0.38911     H
H      0.70505  0.84183  0.88911     H
H      0.70519  0.54955  0.34433     H
H      0.70519  0.95045  0.84433     H
O      0.70613  0.14711  0.55512     O
O      0.70613  0.35289  0.05512     O
H      0.70842  0.09407  0.84556     H
H      0.70842  0.40593  0.34556     H
N      0.71104  0.58779  0.41121     N
N      0.71104  0.91221  0.91121     N
C      0.71228  0.02558  0.41049     C
C      0.71228  0.47442  0.91049     C
C      0.71334  0.16921  0.03234     C
C      0.71334  0.33079  0.53234     C
H      0.71544   0.1568  0.95281     H
H      0.71544   0.3432  0.45281     H
H       0.7157  0.11088  0.01994     H
H       0.7157  0.38912  0.51994     H
C      0.71652  0.00648  0.37672     C
C      0.71652  0.49352  0.87672     C
C      0.71723  0.08177  0.47885     C
C      0.71723  0.41823  0.97885     C
C      0.71865  0.62568  0.46768     C
C      0.71865  0.87432  0.96768     C
C      0.72031  0.67989  0.04144     C
C      0.72031  0.82011  0.54144     C
C      0.72076  0.68914  0.07894     C
C      0.72076  0.81086  0.57894     C
H       0.7249  0.05151  0.79568     H
H       0.7249  0.44849  0.29568     H
C      0.72507  0.11127  0.50323     C
C      0.72507  0.38873  0.00323     C
C      0.72766  0.59689  0.44361     C
C      0.72766  0.90311  0.94361     C
C      0.72791  0.54291  0.36264     C
C      0.72791  0.95709  0.86264     C
C      0.73227  0.56063  0.39661     C
C      0.73227  0.93937  0.89661     C
C      0.73495  0.63779   0.9252     C
C      0.73495  0.86221   0.4252     C
C      0.73557  0.66329  0.98651     C
C      0.73557  0.83671  0.48651     C
H      0.73609   0.6556  0.51587     H
H      0.73609   0.8444  0.01587     H
C       0.7385  0.05221  0.41958     C
C       0.7385  0.44779  0.91958     C
C      0.74127  0.07555  0.44946     C
C      0.74127  0.42445  0.94946     C
C      0.74239  0.63265  0.49774     C
C      0.74239  0.86735  0.99774     C
C      0.74509  0.15319  0.95473     C
C      0.74509  0.34681  0.45473     C
H      0.74589  0.69715  0.09295     H
H      0.74589  0.80285  0.59295     H
C      0.74611  0.01585  0.35272     C
C      0.74611  0.48415  0.85272     C
H      0.74905  0.00219  0.32635     H
H      0.74905  0.49781  0.82635     H
H       0.7499  0.62938  0.90065     H
H       0.7499  0.87062  0.40065     H
N      0.74994  0.67605  0.01873     N
N      0.74994  0.82395  0.51873     N
N      0.75006  0.17605  0.01873     N
N      0.75006  0.32395  0.51873     N
H       0.7501  0.12938  0.90065     H
H       0.7501  0.37062  0.40065     H
H      0.75095  0.50219  0.32635     H
H      0.75095  0.99781  0.82635     H
C      0.75389  0.51585  0.35272     C
C      0.75389  0.98415  0.85272     C
H      0.75411  0.19715  0.09295     H
H      0.75411  0.30285  0.59295     H
C      0.75491  0.65319  0.95473     C
C      0.75491  0.84681  0.45473     C
C      0.75761  0.13265  0.49774     C
C      0.75761  0.36735  0.99774     C
C      0.75873  0.57555  0.44946     C
C      0.75873  0.92445  0.94946     C
C       0.7615  0.55221  0.41958     C
C       0.7615  0.94779  0.91958     C
H      0.76391   0.1556  0.51587     H
H      0.76391   0.3444  0.01587     H
C      0.76443  0.16329  0.98651     C
C      0.76443  0.33671  0.48651     C
C      0.76505  0.13779   0.9252     C
C      0.76505  0.36221   0.4252     C
C      0.76773  0.06063  0.39661     C
C      0.76773  0.43937  0.89661     C
C      0.77209  0.04291  0.36264     C
C      0.77209  0.45709  0.86264     C
C      0.77234  0.09689  0.44361     C
C      0.77234  0.40311  0.94361     C
C      0.77493  0.61127  0.50323     C
C      0.77493  0.88873  0.00323     C
H       0.7751  0.55151  0.79568     H
H       0.7751  0.94849  0.29568     H
C      0.77924  0.18914  0.07894     C
C      0.77924  0.31086  0.57894     C
C      0.77969  0.17989  0.04144     C
C      0.77969  0.32011  0.54144     C
C      0.78135  0.12568  0.46768     C
C      0.78135  0.37432  0.96768     C
C      0.78277  0.58177  0.47885     C
C      0.78277  0.91823  0.97885     C
C      0.78348  0.50648  0.37672     C
C      0.78348  0.99352  0.87672     C
H       0.7843  0.61088  0.01994     H
H       0.7843  0.88912  0.51994     H
H      0.78456   0.6568  0.95281     H
H      0.78456   0.8432  0.45281     H
C      0.78666  0.66921  0.03234     C
C      0.78666  0.83079  0.53234     C
C      0.78772  0.52558  0.41049     C
C      0.78772  0.97442  0.91049     C
N      0.78896  0.08779  0.41121     N
N      0.78896  0.41221  0.91121     N
H      0.79158  0.59407  0.84556     H
H      0.79158  0.90593  0.34556     H
O      0.79387  0.64711  0.55512     O
O      0.79387  0.85289  0.05512     O
H      0.79481  0.04955  0.34433     H
H      0.79481  0.45045  0.84433     H
H      0.79495  0.15817  0.38911     H
H      0.79495  0.34183  0.88911     H
H      0.79568   0.7249  0.05151     H
H      0.79568   0.7751  0.55151     H
C      0.79866  0.63246  0.03491     C
C      0.79866  0.86754  0.53491     C
O      0.80086  0.04529  0.84044     O
O      0.80086  0.45471  0.34044     O
C      0.80225  0.15847  0.98898     C
C      0.80225  0.34153  0.48898     C
C      0.80235  0.62265  0.53132     C
C      0.80235  0.87735  0.03132     C
H      0.80285  0.59295  0.74589     H
H      0.80285  0.90705  0.24589     H
C      0.80345  0.55262  0.80511     C
C      0.80345  0.94738  0.30511     C
C      0.80368  0.13144  0.92807     C
C      0.80368  0.36856  0.42807     C
C      0.80511  0.69655  0.05262     C
C      0.80511  0.80345  0.55262     C
H      0.80529  0.14297  0.46295     H
H      0.80529  0.35703  0.96295     H
H       0.8067  0.62814  0.68837     H
H       0.8067  0.87186  0.18837     H
H      0.80772  0.56545  0.48156     H
H      0.80772  0.93455  0.98156     H
C      0.80912  0.02353  0.86675     C
C      0.80912  0.47647  0.36675     C
O      0.80952  0.11019  0.86599     O
O      0.80952  0.38981  0.36599     O
H      0.81008   0.5193  0.42937     H
H      0.81008   0.9807  0.92937     H
C      0.81086  0.57894  0.72076     C
C      0.81086  0.92106  0.22076     C
H      0.81163   0.1933  0.12814     H
H      0.81163   0.3067  0.62814     H
C      0.81202  0.16889  0.02436     C
C      0.81202  0.33111  0.52436     C
H      0.81207  0.63753  0.15083     H
H      0.81207  0.86247  0.65083     H
C      0.81227   0.1869   0.0989     C
C      0.81227   0.3131   0.5989     C
C       0.8131   0.5989  0.68773     C
C       0.8131   0.9011  0.18773     C
C      0.81315  0.57755    0.833     C
C      0.81315  0.92245    0.333     C
O      0.81942  0.63782  0.62092     O
O      0.81942  0.86218  0.12092     O
C       0.8195  0.14184  0.38398     C
C       0.8195  0.35816  0.88398     C
C      0.82011  0.54144  0.72031     C
C      0.82011  0.95856  0.22031     C
C      0.82066  0.10465  0.39456     C
C      0.82066  0.39535  0.89456     C
C      0.82262  0.14195  0.96064     C
C      0.82262  0.35805  0.46064     C
C      0.82302  0.11083  0.89847     C
C      0.82302  0.38917  0.39847     C
N      0.82395  0.51873  0.74994     N
N      0.82395  0.98127  0.24994     N
C      0.82591  0.58202  0.65481     C
C      0.82591  0.91798  0.15481     C
C      0.82597  0.62258  0.06027     C
C      0.82597  0.87742  0.56027     C
H      0.82635  0.74905  0.49781     H
H      0.82635  0.75095  0.99781     H
Cu     0.82655  0.67127  0.58624    Cu
Cu     0.82655  0.82873  0.08624    Cu
Cu     0.82873  0.08624  0.82655    Cu
Cu     0.82873  0.41376  0.32655    Cu
C      0.83079  0.53234  0.78666     C
C      0.83079  0.96766  0.28666     C
C      0.83111  0.52436  0.68798     C
C      0.83111  0.97564  0.18798     C
H      0.83186   0.5935  0.06399     H
H      0.83186   0.9065  0.56399     H
C        0.833  0.68685  0.07755     C
C        0.833  0.81315  0.57755     C
C       0.8337  0.60567  0.62255     C
C       0.8337  0.89433  0.12255     C
C      0.83485   0.5439  0.65482     C
C      0.83485   0.9561  0.15482     C
O       0.8349  0.60944  0.53046     O
O       0.8349  0.89056  0.03046     O
C      0.83671  0.01349  0.23557     C
C      0.83671  0.48651  0.73557     C
O      0.83914  0.02779  0.88457     O
O      0.83914  0.47221  0.38457     O
O      0.84044  0.69914  0.54529     O
O      0.84044  0.80086  0.04529     O
C      0.84138   0.6317  0.14953     C
C      0.84138   0.8683  0.64953     C
C      0.84153  0.01102  0.19775     C
C      0.84153  0.48898  0.69775     C
H      0.84183  0.61089  0.20505     H
H      0.84183  0.88911  0.70505     H
C      0.84215  0.64942  0.08333     C
C      0.84215  0.85058  0.58333     C
H       0.8432  0.04719  0.28456     H
H       0.8432  0.45281  0.78456     H
H      0.84433  0.70519  0.95045     H
H      0.84433  0.79481  0.45045     H
H       0.8444  0.01587  0.73609     H
H       0.8444  0.48413  0.23609     H
C      0.84518  0.16515   0.0439     C
C      0.84518  0.33485   0.5439     C
C      0.84519  0.17409  0.08202     C
C      0.84519  0.32591  0.58202     C
H      0.84556  0.70842  0.09407     H
H      0.84556  0.79158  0.59407     H
H      0.84566  0.53045  0.63037     H
H      0.84566  0.96955  0.13037     H
C      0.84681  0.04527  0.25491     C
C      0.84681  0.45473  0.75491     C
H      0.84917  0.18793  0.36247     H
H      0.84917  0.31207  0.86247     H
C      0.85047  0.15862   0.3683     C
C      0.85047  0.34138   0.8683     C
C      0.85058  0.58333  0.84215     C
C      0.85058  0.91667  0.34215     C
H      0.85192  0.13683  0.96393     H
H      0.85192  0.36317  0.46393     H
O      0.85235   0.0928  0.90571     O
O      0.85235   0.4072  0.40571     O
C      0.85264   0.0839  0.38792     C
C      0.85264   0.4161  0.88792     C
C      0.85272  0.74611  0.48415     C
C      0.85272  0.75389  0.98415     C
O      0.85289  0.05512  0.79387     O
O      0.85289  0.44488  0.29387     O
H      0.85341  0.05336  0.39572     H
H      0.85341  0.44664  0.89572     H
O      0.85601  0.59488   0.5977     O
O      0.85601  0.90512   0.0977     O
H      0.85703  0.53705  0.19471     H
H      0.85703  0.96295  0.69471     H
C      0.85805  0.03936  0.17738     C
C      0.85805  0.46064  0.67738     C
C      0.85816  0.61602   0.1805     C
C      0.85816  0.88398   0.6805     C
C      0.86161  0.63743  0.11675     C
C      0.86161  0.86257  0.61675     C
O      0.86218  0.12092  0.81942     O
O      0.86218  0.37908  0.31942     O
C      0.86221   0.0748  0.23495     C
C      0.86221   0.4252  0.73495     C
H      0.86247  0.65083  0.81207     H
H      0.86247  0.84917  0.31207     H
C      0.86257  0.61675  0.86161     C
C      0.86257  0.88325  0.36161     C
C      0.86264  0.72791  0.95709     C
C      0.86264  0.77209  0.45709     C
H      0.86317  0.03607  0.14808     H
H      0.86317  0.46393  0.64808     H
O      0.86599  0.69048  0.61019     O
O      0.86599  0.80952  0.11019     O
C      0.86675  0.69088  0.52353     C
C      0.86675  0.80912  0.02353     C
H      0.86722  0.59193  0.91609     H
H      0.86722  0.90807  0.41609     H
C      0.86735  0.50226  0.24239     C
C      0.86735  0.99774  0.74239     C
C      0.86754  0.53491  0.79866     C
C      0.86754  0.96509  0.29866     C
C       0.8683  0.64953  0.84138     C
C       0.8683  0.85047  0.34138     C
C      0.86856  0.07193  0.19632     C
C      0.86856  0.42807  0.69632     C
H      0.86963  0.15434  0.03045     H
H      0.86963  0.34566  0.53045     H
H      0.87062  0.09935   0.2499     H
H      0.87062  0.40065   0.7499     H
C      0.87175  0.61639  0.89948     C
C      0.87175  0.88361  0.39948     C
H      0.87186  0.18837   0.8067     H
H      0.87186  0.31163   0.3067     H
Cu     0.87222  0.62564  0.56146    Cu
Cu     0.87222  0.87436  0.06146    Cu
C      0.87432  0.53232  0.21865     C
C      0.87432  0.96768  0.71865     C
Cu     0.87436  0.06146  0.87222    Cu
Cu     0.87436  0.43854  0.37222    Cu
C      0.87672  0.71652  0.49352     C
C      0.87672  0.78348  0.99352     C
C      0.87735  0.03132  0.80235     C
C      0.87735  0.46868  0.30235     C
C      0.87742  0.56027  0.82597     C
C      0.87742  0.93973  0.32597     C
C      0.87745   0.1663  0.10567     C
C      0.87745   0.3337  0.60567     C
O      0.87908  0.18058  0.13782     O
O      0.87908  0.31942  0.63782     O
C      0.88325  0.13839  0.36257     C
C      0.88325  0.36161  0.86257     C
C      0.88361  0.10052  0.37175     C
C      0.88361  0.39948  0.87175     C
C      0.88398   0.6805  0.85816     C
C      0.88398   0.8195  0.35816     C
O      0.88457  0.66086  0.52779     O
O      0.88457  0.83914  0.02779     O
C      0.88792  0.64736   0.9161     C
C      0.88792  0.85264   0.4161     C
C      0.88873  0.00323  0.77493     C
C      0.88873  0.49677  0.27493     C
H      0.88911  0.70505  0.84183     H
H      0.88911  0.79495  0.34183     H
H      0.88912  0.51994   0.7843     H
H      0.88912  0.98006   0.2843     H
C      0.88917  0.10153  0.17698     C
C      0.88917  0.39847  0.67698     C
O      0.88981  0.13401  0.19048     O
O      0.88981  0.36599  0.69048     O
O      0.89056  0.03046   0.8349     O
O      0.89056  0.46954   0.3349     O
C      0.89433  0.12255   0.8337     C
C      0.89433  0.37745   0.3337     C
C      0.89456  0.67934  0.89535     C
C      0.89456  0.82066  0.39535     C
C      0.89535  0.60544  0.17934     C
C      0.89535  0.89456  0.67934     C
H      0.89572  0.64659  0.94664     H
H      0.89572  0.85341  0.44664     H
C      0.89661  0.73227  0.93937     C
C      0.89661  0.76773  0.43937     C
C      0.89847  0.67698  0.61083     C
C      0.89847  0.82302  0.11083     C
C      0.89948  0.62825  0.11639     C
C      0.89948  0.87175  0.61639     C
H      0.90065   0.7499  0.62938     H
H      0.90065   0.7501  0.12938     H
C       0.9011  0.18773   0.8131     C
C       0.9011  0.31227   0.3131     C
O       0.9023  0.14399  0.09488     O
O       0.9023  0.35601  0.59488     O
C      0.90311  0.55639  0.22766     C
C      0.90311  0.94361  0.72766     C
O      0.90512   0.0977  0.85601     O
O      0.90512   0.4023  0.35601     O
O      0.90571  0.64765   0.5928     O
O      0.90571  0.85235   0.0928     O
H      0.90593  0.15444  0.29158     H
H      0.90593  0.34556  0.79158     H
H       0.9065  0.56399  0.83186     H
H       0.9065  0.93601  0.33186     H
H      0.90705  0.24589  0.80285     H
H      0.90705  0.25411  0.30285     H
O       0.9072  0.09429  0.14765     O
O       0.9072  0.40571  0.64765     O
H      0.90807  0.08391  0.36722     H
H      0.90807  0.41609  0.86722     H
C      0.91049  0.71228  0.47442     C
C      0.91049  0.78772  0.97442     C
N      0.91121  0.71104  0.91221     N
N      0.91121  0.78896  0.41221     N
N      0.91221  0.58879  0.21104     N
N      0.91221  0.91121  0.71104     N
Cu     0.91376  0.17345  0.17127    Cu
Cu     0.91376  0.32655  0.67127    Cu
H      0.91609  0.63278  0.09193     H
H      0.91609  0.86722  0.59193     H
C       0.9161  0.61208  0.14736     C
C       0.9161  0.88792  0.64736     C
C      0.91667  0.15785  0.35058     C
C      0.91667  0.34215  0.85058     C
C      0.91798  0.15481  0.82591     C
C      0.91798  0.34519  0.32591     C
C      0.91823  0.52115  0.28277     C
C      0.91823  0.97885  0.78277     C
C      0.91958   0.7385  0.44779     C
C      0.91958   0.7615  0.94779     C
C      0.92106  0.22076  0.81086     C
C      0.92106  0.27924  0.31086     C
C      0.92245    0.167  0.31315     C
C      0.92245    0.333  0.81315     C
C      0.92445  0.55054  0.25873     C
C      0.92445  0.94946  0.75873     C
C       0.9252  0.73495  0.63779     C
C       0.9252  0.76505  0.13779     C
C      0.92807  0.69632  0.63144     C
C      0.92807  0.80368  0.13144     C
H      0.92937  0.68992   0.4807     H
H      0.92937  0.81008   0.9807     H
H      0.93455  0.51844  0.30772     H
H      0.93455  0.98156  0.80772     H
H      0.93601  0.16814   0.4065     H
H      0.93601  0.33186   0.9065     H
Cu     0.93854  0.12778  0.12564    Cu
Cu     0.93854  0.37222  0.62564    Cu
C      0.93937  0.60339  0.23227     C
C      0.93937  0.89661  0.73227     C
C      0.93973  0.17403  0.37742     C
C      0.93973  0.32597  0.87742     C
C      0.94361  0.72766  0.90311     C
C      0.94361  0.77234  0.40311     C
O      0.94488  0.20613  0.14711     O
O      0.94488  0.29387  0.64711     O
H      0.94664  0.60428  0.14659     H
H      0.94664  0.89572  0.64659     H
C      0.94738  0.19489  0.30345     C
C      0.94738  0.30511  0.80345     C
C      0.94779  0.58042   0.2615     C
C      0.94779  0.91958   0.7615     C
H      0.94849  0.20432   0.2751     H
H      0.94849  0.29568   0.7751     H
C      0.94946  0.74127  0.42445     C
C      0.94946  0.75873  0.92445     C
H      0.95045  0.65567  0.20519     H
H      0.95045  0.84433  0.70519     H
H      0.95281  0.71544   0.1568     H
H      0.95281  0.78456   0.6568     H
O      0.95471  0.15956  0.19914     O
O      0.95471  0.34044  0.69914     O
C      0.95473  0.74509  0.15319     C
C      0.95473  0.75491  0.65319     C
C       0.9561  0.15482  0.83485     C
C       0.9561  0.34518  0.33485     C
C      0.95709  0.63736  0.22791     C
C      0.95709  0.86264  0.72791     C
C      0.95856  0.22031  0.82011     C
C      0.95856  0.27969  0.32011     C
C      0.96064  0.67738  0.64195     C
C      0.96064  0.82262  0.14195     C
H      0.96295  0.69471  0.85703     H
H      0.96295  0.80529  0.35703     H
H      0.96393  0.64808  0.63683     H
H      0.96393  0.85192  0.13683     H
C      0.96509  0.20134  0.36754     C
C      0.96509  0.29866  0.86754     C
C      0.96766  0.21334  0.33079     C
C      0.96766  0.28666  0.83079     C
C      0.96768  0.71865  0.87432     C
C      0.96768  0.78135  0.37432     C
C      0.96868  0.19765  0.12265     C
C      0.96868  0.30235  0.62265     C
O      0.96954   0.1651  0.10944     O
O      0.96954   0.3349  0.60944     O
H      0.96955  0.13037  0.84566     H
H      0.96955  0.36963  0.34566     H
O      0.97221  0.11543  0.16086     O
O      0.97221  0.38457  0.66086     O
C      0.97442  0.58951  0.28772     C
C      0.97442  0.91049  0.78772     C
C      0.97564  0.18798  0.83111     C
C      0.97564  0.31202  0.33111     C
C      0.97647  0.13325  0.19088     C
C      0.97647  0.36675  0.69088     C
C      0.97885  0.71723  0.41823     C
C      0.97885  0.78277  0.91823     C
H      0.98006   0.2157  0.38912     H
H      0.98006   0.2843  0.88912     H
H       0.9807  0.57063  0.31008     H
H       0.9807  0.92937  0.81008     H
N      0.98127  0.24994  0.82395     N
N      0.98127  0.25006  0.32395     N
H      0.98156  0.69228  0.43455     H
H      0.98156  0.80772  0.93455     H
H      0.98413  0.23609   0.6556     H
H      0.98413  0.26391   0.1556     H
C      0.98415  0.64728  0.25389     C
C      0.98415  0.85272  0.75389     C
C      0.98651  0.73557  0.66329     C
C      0.98651  0.76443  0.16329     C
C      0.98898  0.69775  0.65847     C
C      0.98898  0.80225  0.15847     C
C      0.99352  0.62328  0.28348     C
C      0.99352  0.87672  0.78348     C
C      0.99677  0.22507  0.11127     C
C      0.99677  0.27493  0.61127     C
C      0.99774  0.74239  0.86735     C
C      0.99774  0.75761  0.36735     C
H      0.99781  0.67365  0.25095     H
H      0.99781  0.82635  0.75095     H
