data_I
_chemical_name_common  '/home/zhangsd/repos/MofS-CGCNN/ML/data/SSD/clean_cifs/OLICIX_clean'
_cell_length_a 38.06800
_cell_length_b 38.06800
_cell_length_c 38.06800
_cell_angle_alpha 90.00000
_cell_angle_beta  90.00000
_cell_angle_gamma 90.00000
_space_group_name_H-M_alt      'P 1'


loop_
_space_group_symop_operation_xyz
  'x, y, z' 

loop_
_atom_site_label
_atom_site_fract_x
_atom_site_fract_y
_atom_site_fract_z
_atom_site_type_symbol
Fe         0.0   0.1818  0.24594    Fe
Fe         0.0   0.1818  0.75406    Fe
Fe         0.0  0.24594   0.3182    Fe
Fe         0.0  0.24594   0.6818    Fe
Cl         0.0     0.25     0.25    Cl
Cl         0.0     0.25     0.75    Cl
Fe         0.0  0.25406   0.1818    Fe
Fe         0.0  0.25406   0.8182    Fe
Fe         0.0   0.3182  0.25406    Fe
Fe         0.0   0.3182  0.74594    Fe
Fe         0.0   0.6818  0.25406    Fe
Fe         0.0   0.6818  0.74594    Fe
Fe         0.0  0.74594   0.1818    Fe
Fe         0.0  0.74594   0.8182    Fe
Cl         0.0     0.75     0.25    Cl
Cl         0.0     0.75     0.75    Cl
Fe         0.0  0.75406   0.3182    Fe
Fe         0.0  0.75406   0.6818    Fe
Fe         0.0   0.8182  0.24594    Fe
Fe         0.0   0.8182  0.75406    Fe
N      0.03921  0.18749  0.20593     N
N      0.03921  0.18749  0.79407     N
N      0.03921  0.20593  0.31251     N
N      0.03921  0.20593  0.68749     N
N      0.03921  0.29407  0.18749     N
N      0.03921  0.29407  0.81251     N
N      0.03921  0.31251  0.29407     N
N      0.03921  0.31251  0.70593     N
N      0.03921  0.68749  0.29407     N
N      0.03921  0.68749  0.70593     N
N      0.03921  0.70593  0.18749     N
N      0.03921  0.70593  0.81251     N
N      0.03921  0.79407  0.31251     N
N      0.03921  0.79407  0.68749     N
N      0.03921  0.81251  0.20593     N
N      0.03921  0.81251  0.79407     N
N      0.03955  0.18284  0.28591     N
N      0.03955  0.18284  0.71409     N
N      0.03955  0.21409  0.18284     N
N      0.03955  0.21409  0.81716     N
N      0.03955  0.28591  0.31716     N
N      0.03955  0.28591  0.68284     N
N      0.03955  0.31716  0.21409     N
N      0.03955  0.31716  0.78591     N
N      0.03955  0.68284  0.21409     N
N      0.03955  0.68284  0.78591     N
N      0.03955  0.71409  0.31716     N
N      0.03955  0.71409  0.68284     N
N      0.03955  0.78591  0.18284     N
N      0.03955  0.78591  0.81716     N
N      0.03955  0.81716  0.28591     N
N      0.03955  0.81716  0.71409     N
N      0.06652  0.16644  0.20092     N
N      0.06652  0.16644  0.79908     N
N      0.06652  0.20092  0.33356     N
N      0.06652  0.20092  0.66644     N
N      0.06652  0.29908  0.16644     N
N      0.06652  0.29908  0.83356     N
N      0.06652  0.33356  0.29908     N
N      0.06652  0.33356  0.70092     N
N      0.06652  0.66644  0.29908     N
N      0.06652  0.66644  0.70092     N
N      0.06652  0.70092  0.16644     N
N      0.06652  0.70092  0.83356     N
N      0.06652  0.79908  0.33356     N
N      0.06652  0.79908  0.66644     N
N      0.06652  0.83356  0.20092     N
N      0.06652  0.83356  0.79908     N
C      0.06781  0.16248   0.2901     C
C      0.06781  0.16248   0.7099     C
C      0.06781   0.2099  0.16248     C
C      0.06781   0.2099  0.83752     C
C      0.06781   0.2901  0.33752     C
C      0.06781   0.2901  0.66248     C
C      0.06781  0.33752   0.2099     C
C      0.06781  0.33752   0.7901     C
C      0.06781  0.66248   0.2099     C
C      0.06781  0.66248   0.7901     C
C      0.06781   0.7099  0.33752     C
C      0.06781   0.7099  0.66248     C
C      0.06781   0.7901  0.16248     C
C      0.06781   0.7901  0.83752     C
C      0.06781  0.83752   0.2901     C
C      0.06781  0.83752   0.7099     C
H       0.0748   0.1437   0.2752     H
H       0.0748   0.1437   0.7248     H
H       0.0748   0.2248   0.1437     H
H       0.0748   0.2248   0.8563     H
H       0.0748   0.2752   0.3563     H
H       0.0748   0.2752   0.6437     H
H       0.0748   0.3563   0.2248     H
H       0.0748   0.3563   0.7752     H
H       0.0748   0.6437   0.2248     H
H       0.0748   0.6437   0.7752     H
H       0.0748   0.7248   0.3563     H
H       0.0748   0.7248   0.6437     H
H       0.0748   0.7752   0.1437     H
H       0.0748   0.7752   0.8563     H
H       0.0748   0.8563   0.2752     H
H       0.0748   0.8563   0.7248     H
C      0.08513  0.17375  0.32018     C
C      0.08513  0.17375  0.67982     C
C      0.08513  0.17982  0.17375     C
C      0.08513  0.17982  0.82625     C
C      0.08513  0.32018  0.32625     C
C      0.08513  0.32018  0.67375     C
C      0.08513  0.32625  0.17982     C
C      0.08513  0.32625  0.82018     C
C      0.08513  0.67375  0.17982     C
C      0.08513  0.67375  0.82018     C
C      0.08513  0.67982  0.32625     C
C      0.08513  0.67982  0.67375     C
C      0.08513  0.82018  0.17375     C
C      0.08513  0.82018  0.82625     C
C      0.08513  0.82625  0.32018     C
C      0.08513  0.82625  0.67982     C
C      0.11688  0.16026  0.33678     C
C      0.11688  0.16026  0.66322     C
C      0.11688  0.16322  0.16026     C
C      0.11688  0.16322  0.83974     C
C      0.11688  0.33678  0.33974     C
C      0.11688  0.33678  0.66026     C
C      0.11688  0.33974  0.16322     C
C      0.11688  0.33974  0.83678     C
C      0.11688  0.66026  0.16322     C
C      0.11688  0.66026  0.83678     C
C      0.11688  0.66322  0.33974     C
C      0.11688  0.66322  0.66026     C
C      0.11688  0.83678  0.16026     C
C      0.11688  0.83678  0.83974     C
C      0.11688  0.83974  0.33678     C
C      0.11688  0.83974  0.66322     C
H       0.1196   0.1245   0.1972     H
H       0.1196   0.1245   0.8028     H
H       0.1196   0.1972   0.3755     H
H       0.1196   0.1972   0.6245     H
H       0.1196   0.3028   0.1245     H
H       0.1196   0.3028   0.8755     H
H       0.1196   0.3755   0.3028     H
H       0.1196   0.3755   0.6972     H
H       0.1196   0.6245   0.3028     H
H       0.1196   0.6245   0.6972     H
H       0.1196   0.6972   0.1245     H
H       0.1196   0.6972   0.8755     H
H       0.1196   0.8028   0.3755     H
H       0.1196   0.8028   0.6245     H
H       0.1196   0.8755   0.1972     H
H       0.1196   0.8755   0.8028     H
H       0.1245   0.1196   0.3028     H
H       0.1245   0.1196   0.6972     H
H       0.1245   0.1972   0.1196     H
H       0.1245   0.1972   0.8804     H
H       0.1245   0.3028   0.3804     H
H       0.1245   0.3028   0.6196     H
H       0.1245   0.3804   0.1972     H
H       0.1245   0.3804   0.8028     H
H       0.1245   0.6196   0.1972     H
H       0.1245   0.6196   0.8028     H
H       0.1245   0.6972   0.3804     H
H       0.1245   0.6972   0.6196     H
H       0.1245   0.8028   0.1196     H
H       0.1245   0.8028   0.8804     H
H       0.1245   0.8804   0.3028     H
H       0.1245   0.8804   0.6972     H
C       0.1306   0.1335   0.1767     C
C       0.1306   0.1335   0.8233     C
C       0.1306   0.1767   0.3665     C
C       0.1306   0.1767   0.6335     C
C       0.1306   0.3233   0.1335     C
C       0.1306   0.3233   0.8665     C
C       0.1306   0.3665   0.3233     C
C       0.1306   0.3665   0.6767     C
C       0.1306   0.6335   0.3233     C
C       0.1306   0.6335   0.6767     C
C       0.1306   0.6767   0.1335     C
C       0.1306   0.6767   0.8665     C
C       0.1306   0.8233   0.3665     C
C       0.1306   0.8233   0.6335     C
C       0.1306   0.8665   0.1767     C
C       0.1306   0.8665   0.8233     C
C       0.1335   0.1306   0.3233     C
C       0.1335   0.1306   0.6767     C
C       0.1335   0.1767   0.1306     C
C       0.1335   0.1767   0.8694     C
C       0.1335   0.3233   0.3694     C
C       0.1335   0.3233   0.6306     C
C       0.1335   0.3694   0.1767     C
C       0.1335   0.3694   0.8233     C
C       0.1335   0.6306   0.1767     C
C       0.1335   0.6306   0.8233     C
C       0.1335   0.6767   0.3694     C
C       0.1335   0.6767   0.6306     C
C       0.1335   0.8233   0.1306     C
C       0.1335   0.8233   0.8694     C
C       0.1335   0.8694   0.3233     C
C       0.1335   0.8694   0.6767     C
H       0.1437   0.0748   0.2248     H
H       0.1437   0.0748   0.7752     H
H       0.1437   0.2248   0.4252     H
H       0.1437   0.2248   0.5748     H
H       0.1437   0.2752   0.0748     H
H       0.1437   0.2752   0.9252     H
H       0.1437   0.4252   0.2752     H
H       0.1437   0.4252   0.7248     H
H       0.1437   0.5748   0.2752     H
H       0.1437   0.5748   0.7248     H
H       0.1437   0.7248   0.0748     H
H       0.1437   0.7248   0.9252     H
H       0.1437   0.7752   0.4252     H
H       0.1437   0.7752   0.5748     H
H       0.1437   0.9252   0.2248     H
H       0.1437   0.9252   0.7752     H
C      0.16026  0.11688  0.16322     C
C      0.16026  0.11688  0.83678     C
C      0.16026  0.16322  0.38312     C
C      0.16026  0.16322  0.61688     C
C      0.16026  0.33678  0.11688     C
C      0.16026  0.33678  0.88312     C
C      0.16026  0.38312  0.33678     C
C      0.16026  0.38312  0.66322     C
C      0.16026  0.61688  0.33678     C
C      0.16026  0.61688  0.66322     C
C      0.16026  0.66322  0.11688     C
C      0.16026  0.66322  0.88312     C
C      0.16026  0.83678  0.38312     C
C      0.16026  0.83678  0.61688     C
C      0.16026  0.88312  0.16322     C
C      0.16026  0.88312  0.83678     C
C      0.16248  0.06781   0.2099     C
C      0.16248  0.06781   0.7901     C
C      0.16248   0.2099  0.43219     C
C      0.16248   0.2099  0.56781     C
C      0.16248   0.2901  0.06781     C
C      0.16248   0.2901  0.93219     C
C      0.16248  0.43219   0.2901     C
C      0.16248  0.43219   0.7099     C
C      0.16248  0.56781   0.2901     C
C      0.16248  0.56781   0.7099     C
C      0.16248   0.7099  0.06781     C
C      0.16248   0.7099  0.93219     C
C      0.16248   0.7901  0.43219     C
C      0.16248   0.7901  0.56781     C
C      0.16248  0.93219   0.2099     C
C      0.16248  0.93219   0.7901     C
C      0.16322  0.11688  0.33974     C
C      0.16322  0.11688  0.66026     C
C      0.16322  0.16026  0.11688     C
C      0.16322  0.16026  0.88312     C
C      0.16322  0.33974  0.38312     C
C      0.16322  0.33974  0.61688     C
C      0.16322  0.38312  0.16026     C
C      0.16322  0.38312  0.83974     C
C      0.16322  0.61688  0.16026     C
C      0.16322  0.61688  0.83974     C
C      0.16322  0.66026  0.38312     C
C      0.16322  0.66026  0.61688     C
C      0.16322  0.83974  0.11688     C
C      0.16322  0.83974  0.88312     C
C      0.16322  0.88312  0.33974     C
C      0.16322  0.88312  0.66026     C
N      0.16644  0.06652  0.29908     N
N      0.16644  0.06652  0.70092     N
N      0.16644  0.20092  0.06652     N
N      0.16644  0.20092  0.93348     N
N      0.16644  0.29908  0.43348     N
N      0.16644  0.29908  0.56652     N
N      0.16644  0.43348  0.20092     N
N      0.16644  0.43348  0.79908     N
N      0.16644  0.56652  0.20092     N
N      0.16644  0.56652  0.79908     N
N      0.16644  0.70092  0.43348     N
N      0.16644  0.70092  0.56652     N
N      0.16644  0.79908  0.06652     N
N      0.16644  0.79908  0.93348     N
N      0.16644  0.93348  0.29908     N
N      0.16644  0.93348  0.70092     N
C      0.17375  0.08513  0.17982     C
C      0.17375  0.08513  0.82018     C
C      0.17375  0.17982  0.41487     C
C      0.17375  0.17982  0.58513     C
C      0.17375  0.32018  0.08513     C
C      0.17375  0.32018  0.91487     C
C      0.17375  0.41487  0.32018     C
C      0.17375  0.41487  0.67982     C
C      0.17375  0.58513  0.32018     C
C      0.17375  0.58513  0.67982     C
C      0.17375  0.67982  0.08513     C
C      0.17375  0.67982  0.91487     C
C      0.17375  0.82018  0.41487     C
C      0.17375  0.82018  0.58513     C
C      0.17375  0.91487  0.17982     C
C      0.17375  0.91487  0.82018     C
C       0.1767   0.1306   0.1335     C
C       0.1767   0.1306   0.8665     C
C       0.1767   0.1335   0.3694     C
C       0.1767   0.1335   0.6306     C
C       0.1767   0.3665   0.1306     C
C       0.1767   0.3665   0.8694     C
C       0.1767   0.3694   0.3665     C
C       0.1767   0.3694   0.6335     C
C       0.1767   0.6306   0.3665     C
C       0.1767   0.6306   0.6335     C
C       0.1767   0.6335   0.1306     C
C       0.1767   0.6335   0.8694     C
C       0.1767   0.8665   0.3694     C
C       0.1767   0.8665   0.6306     C
C       0.1767   0.8694   0.1335     C
C       0.1767   0.8694   0.8665     C
C      0.17982  0.08513  0.32625     C
C      0.17982  0.08513  0.67375     C
C      0.17982  0.17375  0.08513     C
C      0.17982  0.17375  0.91487     C
C      0.17982  0.32625  0.41487     C
C      0.17982  0.32625  0.58513     C
C      0.17982  0.41487  0.17375     C
C      0.17982  0.41487  0.82625     C
C      0.17982  0.58513  0.17375     C
C      0.17982  0.58513  0.82625     C
C      0.17982  0.67375  0.41487     C
C      0.17982  0.67375  0.58513     C
C      0.17982  0.82625  0.08513     C
C      0.17982  0.82625  0.91487     C
C      0.17982  0.91487  0.32625     C
C      0.17982  0.91487  0.67375     C
Fe      0.1818      0.0  0.25406    Fe
Fe      0.1818      0.0  0.74594    Fe
Fe      0.1818  0.24594      0.0    Fe
Fe      0.1818  0.25406      0.5    Fe
Fe      0.1818      0.5  0.24594    Fe
Fe      0.1818      0.5  0.75406    Fe
Fe      0.1818  0.74594      0.5    Fe
Fe      0.1818  0.75406      0.0    Fe
N      0.18284  0.03955  0.21409     N
N      0.18284  0.03955  0.78591     N
N      0.18284  0.21409  0.46045     N
N      0.18284  0.21409  0.53955     N
N      0.18284  0.28591  0.03955     N
N      0.18284  0.28591  0.96045     N
N      0.18284  0.46045  0.28591     N
N      0.18284  0.46045  0.71409     N
N      0.18284  0.53955  0.28591     N
N      0.18284  0.53955  0.71409     N
N      0.18284  0.71409  0.03955     N
N      0.18284  0.71409  0.96045     N
N      0.18284  0.78591  0.46045     N
N      0.18284  0.78591  0.53955     N
N      0.18284  0.96045  0.21409     N
N      0.18284  0.96045  0.78591     N
N      0.18749  0.03921  0.29407     N
N      0.18749  0.03921  0.70593     N
N      0.18749  0.20593  0.03921     N
N      0.18749  0.20593  0.96079     N
N      0.18749  0.29407  0.46079     N
N      0.18749  0.29407  0.53921     N
N      0.18749  0.46079  0.20593     N
N      0.18749  0.46079  0.79407     N
N      0.18749  0.53921  0.20593     N
N      0.18749  0.53921  0.79407     N
N      0.18749  0.70593  0.46079     N
N      0.18749  0.70593  0.53921     N
N      0.18749  0.79407  0.03921     N
N      0.18749  0.79407  0.96079     N
N      0.18749  0.96079  0.29407     N
N      0.18749  0.96079  0.70593     N
H       0.1972   0.1196   0.1245     H
H       0.1972   0.1196   0.8755     H
H       0.1972   0.1245   0.3804     H
H       0.1972   0.1245   0.6196     H
H       0.1972   0.3755   0.1196     H
H       0.1972   0.3755   0.8804     H
H       0.1972   0.3804   0.3755     H
H       0.1972   0.3804   0.6245     H
H       0.1972   0.6196   0.3755     H
H       0.1972   0.6196   0.6245     H
H       0.1972   0.6245   0.1196     H
H       0.1972   0.6245   0.8804     H
H       0.1972   0.8755   0.3804     H
H       0.1972   0.8755   0.6196     H
H       0.1972   0.8804   0.1245     H
H       0.1972   0.8804   0.8755     H
N      0.20092  0.06652  0.16644     N
N      0.20092  0.06652  0.83356     N
N      0.20092  0.16644  0.43348     N
N      0.20092  0.16644  0.56652     N
N      0.20092  0.33356  0.06652     N
N      0.20092  0.33356  0.93348     N
N      0.20092  0.43348  0.33356     N
N      0.20092  0.43348  0.66644     N
N      0.20092  0.56652  0.33356     N
N      0.20092  0.56652  0.66644     N
N      0.20092  0.66644  0.06652     N
N      0.20092  0.66644  0.93348     N
N      0.20092  0.83356  0.43348     N
N      0.20092  0.83356  0.56652     N
N      0.20092  0.93348  0.16644     N
N      0.20092  0.93348  0.83356     N
N      0.20593  0.03921  0.18749     N
N      0.20593  0.03921  0.81251     N
N      0.20593  0.18749  0.46079     N
N      0.20593  0.18749  0.53921     N
N      0.20593  0.31251  0.03921     N
N      0.20593  0.31251  0.96079     N
N      0.20593  0.46079  0.31251     N
N      0.20593  0.46079  0.68749     N
N      0.20593  0.53921  0.31251     N
N      0.20593  0.53921  0.68749     N
N      0.20593  0.68749  0.03921     N
N      0.20593  0.68749  0.96079     N
N      0.20593  0.81251  0.46079     N
N      0.20593  0.81251  0.53921     N
N      0.20593  0.96079  0.18749     N
N      0.20593  0.96079  0.81251     N
C       0.2099  0.06781  0.33752     C
C       0.2099  0.06781  0.66248     C
C       0.2099  0.16248  0.06781     C
C       0.2099  0.16248  0.93219     C
C       0.2099  0.33752  0.43219     C
C       0.2099  0.33752  0.56781     C
C       0.2099  0.43219  0.16248     C
C       0.2099  0.43219  0.83752     C
C       0.2099  0.56781  0.16248     C
C       0.2099  0.56781  0.83752     C
C       0.2099  0.66248  0.43219     C
C       0.2099  0.66248  0.56781     C
C       0.2099  0.83752  0.06781     C
C       0.2099  0.83752  0.93219     C
C       0.2099  0.93219  0.33752     C
C       0.2099  0.93219  0.66248     C
N      0.21409  0.03955  0.31716     N
N      0.21409  0.03955  0.68284     N
N      0.21409  0.18284  0.03955     N
N      0.21409  0.18284  0.96045     N
N      0.21409  0.31716  0.46045     N
N      0.21409  0.31716  0.53955     N
N      0.21409  0.46045  0.18284     N
N      0.21409  0.46045  0.81716     N
N      0.21409  0.53955  0.18284     N
N      0.21409  0.53955  0.81716     N
N      0.21409  0.68284  0.46045     N
N      0.21409  0.68284  0.53955     N
N      0.21409  0.81716  0.03955     N
N      0.21409  0.81716  0.96045     N
N      0.21409  0.96045  0.31716     N
N      0.21409  0.96045  0.68284     N
H       0.2248   0.0748   0.3563     H
H       0.2248   0.0748   0.6437     H
H       0.2248   0.1437   0.0748     H
H       0.2248   0.1437   0.9252     H
H       0.2248   0.3563   0.4252     H
H       0.2248   0.3563   0.5748     H
H       0.2248   0.4252   0.1437     H
H       0.2248   0.4252   0.8563     H
H       0.2248   0.5748   0.1437     H
H       0.2248   0.5748   0.8563     H
H       0.2248   0.6437   0.4252     H
H       0.2248   0.6437   0.5748     H
H       0.2248   0.8563   0.0748     H
H       0.2248   0.8563   0.9252     H
H       0.2248   0.9252   0.3563     H
H       0.2248   0.9252   0.6437     H
Fe     0.24594      0.0   0.1818    Fe
Fe     0.24594      0.0   0.8182    Fe
Fe     0.24594   0.1818      0.5    Fe
Fe     0.24594   0.3182      0.0    Fe
Fe     0.24594      0.5   0.3182    Fe
Fe     0.24594      0.5   0.6818    Fe
Fe     0.24594   0.6818      0.0    Fe
Fe     0.24594   0.8182      0.5    Fe
Cl        0.25      0.0     0.25    Cl
Cl        0.25      0.0     0.75    Cl
Cl        0.25     0.25      0.0    Cl
Cl        0.25     0.25      0.5    Cl
Cl        0.25      0.5     0.25    Cl
Cl        0.25      0.5     0.75    Cl
Cl        0.25     0.75      0.0    Cl
Cl        0.25     0.75      0.5    Cl
Fe     0.25406      0.0   0.3182    Fe
Fe     0.25406      0.0   0.6818    Fe
Fe     0.25406   0.1818      0.0    Fe
Fe     0.25406   0.3182      0.5    Fe
Fe     0.25406      0.5   0.1818    Fe
Fe     0.25406      0.5   0.8182    Fe
Fe     0.25406   0.6818      0.5    Fe
Fe     0.25406   0.8182      0.0    Fe
H       0.2752   0.0748   0.1437     H
H       0.2752   0.0748   0.8563     H
H       0.2752   0.1437   0.4252     H
H       0.2752   0.1437   0.5748     H
H       0.2752   0.3563   0.0748     H
H       0.2752   0.3563   0.9252     H
H       0.2752   0.4252   0.3563     H
H       0.2752   0.4252   0.6437     H
H       0.2752   0.5748   0.3563     H
H       0.2752   0.5748   0.6437     H
H       0.2752   0.6437   0.0748     H
H       0.2752   0.6437   0.9252     H
H       0.2752   0.8563   0.4252     H
H       0.2752   0.8563   0.5748     H
H       0.2752   0.9252   0.1437     H
H       0.2752   0.9252   0.8563     H
N      0.28591  0.03955  0.18284     N
N      0.28591  0.03955  0.81716     N
N      0.28591  0.18284  0.46045     N
N      0.28591  0.18284  0.53955     N
N      0.28591  0.31716  0.03955     N
N      0.28591  0.31716  0.96045     N
N      0.28591  0.46045  0.31716     N
N      0.28591  0.46045  0.68284     N
N      0.28591  0.53955  0.31716     N
N      0.28591  0.53955  0.68284     N
N      0.28591  0.68284  0.03955     N
N      0.28591  0.68284  0.96045     N
N      0.28591  0.81716  0.46045     N
N      0.28591  0.81716  0.53955     N
N      0.28591  0.96045  0.18284     N
N      0.28591  0.96045  0.81716     N
C       0.2901  0.06781  0.16248     C
C       0.2901  0.06781  0.83752     C
C       0.2901  0.16248  0.43219     C
C       0.2901  0.16248  0.56781     C
C       0.2901  0.33752  0.06781     C
C       0.2901  0.33752  0.93219     C
C       0.2901  0.43219  0.33752     C
C       0.2901  0.43219  0.66248     C
C       0.2901  0.56781  0.33752     C
C       0.2901  0.56781  0.66248     C
C       0.2901  0.66248  0.06781     C
C       0.2901  0.66248  0.93219     C
C       0.2901  0.83752  0.43219     C
C       0.2901  0.83752  0.56781     C
C       0.2901  0.93219  0.16248     C
C       0.2901  0.93219  0.83752     C
N      0.29407  0.03921  0.31251     N
N      0.29407  0.03921  0.68749     N
N      0.29407  0.18749  0.03921     N
N      0.29407  0.18749  0.96079     N
N      0.29407  0.31251  0.46079     N
N      0.29407  0.31251  0.53921     N
N      0.29407  0.46079  0.18749     N
N      0.29407  0.46079  0.81251     N
N      0.29407  0.53921  0.18749     N
N      0.29407  0.53921  0.81251     N
N      0.29407  0.68749  0.46079     N
N      0.29407  0.68749  0.53921     N
N      0.29407  0.81251  0.03921     N
N      0.29407  0.81251  0.96079     N
N      0.29407  0.96079  0.31251     N
N      0.29407  0.96079  0.68749     N
N      0.29908  0.06652  0.33356     N
N      0.29908  0.06652  0.66644     N
N      0.29908  0.16644  0.06652     N
N      0.29908  0.16644  0.93348     N
N      0.29908  0.33356  0.43348     N
N      0.29908  0.33356  0.56652     N
N      0.29908  0.43348  0.16644     N
N      0.29908  0.43348  0.83356     N
N      0.29908  0.56652  0.16644     N
N      0.29908  0.56652  0.83356     N
N      0.29908  0.66644  0.43348     N
N      0.29908  0.66644  0.56652     N
N      0.29908  0.83356  0.06652     N
N      0.29908  0.83356  0.93348     N
N      0.29908  0.93348  0.33356     N
N      0.29908  0.93348  0.66644     N
H       0.3028   0.1196   0.3755     H
H       0.3028   0.1196   0.6245     H
H       0.3028   0.1245   0.1196     H
H       0.3028   0.1245   0.8804     H
H       0.3028   0.3755   0.3804     H
H       0.3028   0.3755   0.6196     H
H       0.3028   0.3804   0.1245     H
H       0.3028   0.3804   0.8755     H
H       0.3028   0.6196   0.1245     H
H       0.3028   0.6196   0.8755     H
H       0.3028   0.6245   0.3804     H
H       0.3028   0.6245   0.6196     H
H       0.3028   0.8755   0.1196     H
H       0.3028   0.8755   0.8804     H
H       0.3028   0.8804   0.3755     H
H       0.3028   0.8804   0.6245     H
N      0.31251  0.03921  0.20593     N
N      0.31251  0.03921  0.79407     N
N      0.31251  0.20593  0.46079     N
N      0.31251  0.20593  0.53921     N
N      0.31251  0.29407  0.03921     N
N      0.31251  0.29407  0.96079     N
N      0.31251  0.46079  0.29407     N
N      0.31251  0.46079  0.70593     N
N      0.31251  0.53921  0.29407     N
N      0.31251  0.53921  0.70593     N
N      0.31251  0.70593  0.03921     N
N      0.31251  0.70593  0.96079     N
N      0.31251  0.79407  0.46079     N
N      0.31251  0.79407  0.53921     N
N      0.31251  0.96079  0.20593     N
N      0.31251  0.96079  0.79407     N
N      0.31716  0.03955  0.28591     N
N      0.31716  0.03955  0.71409     N
N      0.31716  0.21409  0.03955     N
N      0.31716  0.21409  0.96045     N
N      0.31716  0.28591  0.46045     N
N      0.31716  0.28591  0.53955     N
N      0.31716  0.46045  0.21409     N
N      0.31716  0.46045  0.78591     N
N      0.31716  0.53955  0.21409     N
N      0.31716  0.53955  0.78591     N
N      0.31716  0.71409  0.46045     N
N      0.31716  0.71409  0.53955     N
N      0.31716  0.78591  0.03955     N
N      0.31716  0.78591  0.96045     N
N      0.31716  0.96045  0.28591     N
N      0.31716  0.96045  0.71409     N
Fe      0.3182      0.0  0.24594    Fe
Fe      0.3182      0.0  0.75406    Fe
Fe      0.3182  0.24594      0.5    Fe
Fe      0.3182  0.25406      0.0    Fe
Fe      0.3182      0.5  0.25406    Fe
Fe      0.3182      0.5  0.74594    Fe
Fe      0.3182  0.74594      0.0    Fe
Fe      0.3182  0.75406      0.5    Fe
C      0.32018  0.08513  0.17375     C
C      0.32018  0.08513  0.82625     C
C      0.32018  0.17375  0.41487     C
C      0.32018  0.17375  0.58513     C
C      0.32018  0.32625  0.08513     C
C      0.32018  0.32625  0.91487     C
C      0.32018  0.41487  0.32625     C
C      0.32018  0.41487  0.67375     C
C      0.32018  0.58513  0.32625     C
C      0.32018  0.58513  0.67375     C
C      0.32018  0.67375  0.08513     C
C      0.32018  0.67375  0.91487     C
C      0.32018  0.82625  0.41487     C
C      0.32018  0.82625  0.58513     C
C      0.32018  0.91487  0.17375     C
C      0.32018  0.91487  0.82625     C
C       0.3233   0.1306   0.3665     C
C       0.3233   0.1306   0.6335     C
C       0.3233   0.1335   0.1306     C
C       0.3233   0.1335   0.8694     C
C       0.3233   0.3665   0.3694     C
C       0.3233   0.3665   0.6306     C
C       0.3233   0.3694   0.1335     C
C       0.3233   0.3694   0.8665     C
C       0.3233   0.6306   0.1335     C
C       0.3233   0.6306   0.8665     C
C       0.3233   0.6335   0.3694     C
C       0.3233   0.6335   0.6306     C
C       0.3233   0.8665   0.1306     C
C       0.3233   0.8665   0.8694     C
C       0.3233   0.8694   0.3665     C
C       0.3233   0.8694   0.6335     C
C      0.32625  0.08513  0.32018     C
C      0.32625  0.08513  0.67982     C
C      0.32625  0.17982  0.08513     C
C      0.32625  0.17982  0.91487     C
C      0.32625  0.32018  0.41487     C
C      0.32625  0.32018  0.58513     C
C      0.32625  0.41487  0.17982     C
C      0.32625  0.41487  0.82018     C
C      0.32625  0.58513  0.17982     C
C      0.32625  0.58513  0.82018     C
C      0.32625  0.67982  0.41487     C
C      0.32625  0.67982  0.58513     C
C      0.32625  0.82018  0.08513     C
C      0.32625  0.82018  0.91487     C
C      0.32625  0.91487  0.32018     C
C      0.32625  0.91487  0.67982     C
N      0.33356  0.06652  0.20092     N
N      0.33356  0.06652  0.79908     N
N      0.33356  0.20092  0.43348     N
N      0.33356  0.20092  0.56652     N
N      0.33356  0.29908  0.06652     N
N      0.33356  0.29908  0.93348     N
N      0.33356  0.43348  0.29908     N
N      0.33356  0.43348  0.70092     N
N      0.33356  0.56652  0.29908     N
N      0.33356  0.56652  0.70092     N
N      0.33356  0.70092  0.06652     N
N      0.33356  0.70092  0.93348     N
N      0.33356  0.79908  0.43348     N
N      0.33356  0.79908  0.56652     N
N      0.33356  0.93348  0.20092     N
N      0.33356  0.93348  0.79908     N
C      0.33678  0.11688  0.16026     C
C      0.33678  0.11688  0.83974     C
C      0.33678  0.16026  0.38312     C
C      0.33678  0.16026  0.61688     C
C      0.33678  0.33974  0.11688     C
C      0.33678  0.33974  0.88312     C
C      0.33678  0.38312  0.33974     C
C      0.33678  0.38312  0.66026     C
C      0.33678  0.61688  0.33974     C
C      0.33678  0.61688  0.66026     C
C      0.33678  0.66026  0.11688     C
C      0.33678  0.66026  0.88312     C
C      0.33678  0.83974  0.38312     C
C      0.33678  0.83974  0.61688     C
C      0.33678  0.88312  0.16026     C
C      0.33678  0.88312  0.83974     C
C      0.33752  0.06781   0.2901     C
C      0.33752  0.06781   0.7099     C
C      0.33752   0.2099  0.06781     C
C      0.33752   0.2099  0.93219     C
C      0.33752   0.2901  0.43219     C
C      0.33752   0.2901  0.56781     C
C      0.33752  0.43219   0.2099     C
C      0.33752  0.43219   0.7901     C
C      0.33752  0.56781   0.2099     C
C      0.33752  0.56781   0.7901     C
C      0.33752   0.7099  0.43219     C
C      0.33752   0.7099  0.56781     C
C      0.33752   0.7901  0.06781     C
C      0.33752   0.7901  0.93219     C
C      0.33752  0.93219   0.2901     C
C      0.33752  0.93219   0.7099     C
C      0.33974  0.11688  0.33678     C
C      0.33974  0.11688  0.66322     C
C      0.33974  0.16322  0.11688     C
C      0.33974  0.16322  0.88312     C
C      0.33974  0.33678  0.38312     C
C      0.33974  0.33678  0.61688     C
C      0.33974  0.38312  0.16322     C
C      0.33974  0.38312  0.83678     C
C      0.33974  0.61688  0.16322     C
C      0.33974  0.61688  0.83678     C
C      0.33974  0.66322  0.38312     C
C      0.33974  0.66322  0.61688     C
C      0.33974  0.83678  0.11688     C
C      0.33974  0.83678  0.88312     C
C      0.33974  0.88312  0.33678     C
C      0.33974  0.88312  0.66322     C
H       0.3563   0.0748   0.2752     H
H       0.3563   0.0748   0.7248     H
H       0.3563   0.2248   0.0748     H
H       0.3563   0.2248   0.9252     H
H       0.3563   0.2752   0.4252     H
H       0.3563   0.2752   0.5748     H
H       0.3563   0.4252   0.2248     H
H       0.3563   0.4252   0.7752     H
H       0.3563   0.5748   0.2248     H
H       0.3563   0.5748   0.7752     H
H       0.3563   0.7248   0.4252     H
H       0.3563   0.7248   0.5748     H
H       0.3563   0.7752   0.0748     H
H       0.3563   0.7752   0.9252     H
H       0.3563   0.9252   0.2752     H
H       0.3563   0.9252   0.7248     H
C       0.3665   0.1306   0.1767     C
C       0.3665   0.1306   0.8233     C
C       0.3665   0.1767   0.3694     C
C       0.3665   0.1767   0.6306     C
C       0.3665   0.3233   0.1306     C
C       0.3665   0.3233   0.8694     C
C       0.3665   0.3694   0.3233     C
C       0.3665   0.3694   0.6767     C
C       0.3665   0.6306   0.3233     C
C       0.3665   0.6306   0.6767     C
C       0.3665   0.6767   0.1306     C
C       0.3665   0.6767   0.8694     C
C       0.3665   0.8233   0.3694     C
C       0.3665   0.8233   0.6306     C
C       0.3665   0.8694   0.1767     C
C       0.3665   0.8694   0.8233     C
C       0.3694   0.1335   0.3233     C
C       0.3694   0.1335   0.6767     C
C       0.3694   0.1767   0.1335     C
C       0.3694   0.1767   0.8665     C
C       0.3694   0.3233   0.3665     C
C       0.3694   0.3233   0.6335     C
C       0.3694   0.3665   0.1767     C
C       0.3694   0.3665   0.8233     C
C       0.3694   0.6335   0.1767     C
C       0.3694   0.6335   0.8233     C
C       0.3694   0.6767   0.3665     C
C       0.3694   0.6767   0.6335     C
C       0.3694   0.8233   0.1335     C
C       0.3694   0.8233   0.8665     C
C       0.3694   0.8665   0.3233     C
C       0.3694   0.8665   0.6767     C
H       0.3755   0.1196   0.1972     H
H       0.3755   0.1196   0.8028     H
H       0.3755   0.1972   0.3804     H
H       0.3755   0.1972   0.6196     H
H       0.3755   0.3028   0.1196     H
H       0.3755   0.3028   0.8804     H
H       0.3755   0.3804   0.3028     H
H       0.3755   0.3804   0.6972     H
H       0.3755   0.6196   0.3028     H
H       0.3755   0.6196   0.6972     H
H       0.3755   0.6972   0.1196     H
H       0.3755   0.6972   0.8804     H
H       0.3755   0.8028   0.3804     H
H       0.3755   0.8028   0.6196     H
H       0.3755   0.8804   0.1972     H
H       0.3755   0.8804   0.8028     H
H       0.3804   0.1245   0.3028     H
H       0.3804   0.1245   0.6972     H
H       0.3804   0.1972   0.1245     H
H       0.3804   0.1972   0.8755     H
H       0.3804   0.3028   0.3755     H
H       0.3804   0.3028   0.6245     H
H       0.3804   0.3755   0.1972     H
H       0.3804   0.3755   0.8028     H
H       0.3804   0.6245   0.1972     H
H       0.3804   0.6245   0.8028     H
H       0.3804   0.6972   0.3755     H
H       0.3804   0.6972   0.6245     H
H       0.3804   0.8028   0.1245     H
H       0.3804   0.8028   0.8755     H
H       0.3804   0.8755   0.3028     H
H       0.3804   0.8755   0.6972     H
C      0.38312  0.16026  0.16322     C
C      0.38312  0.16026  0.83678     C
C      0.38312  0.16322  0.33974     C
C      0.38312  0.16322  0.66026     C
C      0.38312  0.33678  0.16026     C
C      0.38312  0.33678  0.83974     C
C      0.38312  0.33974  0.33678     C
C      0.38312  0.33974  0.66322     C
C      0.38312  0.66026  0.33678     C
C      0.38312  0.66026  0.66322     C
C      0.38312  0.66322  0.16026     C
C      0.38312  0.66322  0.83974     C
C      0.38312  0.83678  0.33974     C
C      0.38312  0.83678  0.66026     C
C      0.38312  0.83974  0.16322     C
C      0.38312  0.83974  0.83678     C
C      0.41487  0.17375  0.17982     C
C      0.41487  0.17375  0.82018     C
C      0.41487  0.17982  0.32625     C
C      0.41487  0.17982  0.67375     C
C      0.41487  0.32018  0.17375     C
C      0.41487  0.32018  0.82625     C
C      0.41487  0.32625  0.32018     C
C      0.41487  0.32625  0.67982     C
C      0.41487  0.67375  0.32018     C
C      0.41487  0.67375  0.67982     C
C      0.41487  0.67982  0.17375     C
C      0.41487  0.67982  0.82625     C
C      0.41487  0.82018  0.32625     C
C      0.41487  0.82018  0.67375     C
C      0.41487  0.82625  0.17982     C
C      0.41487  0.82625  0.82018     C
H       0.4252   0.1437   0.2248     H
H       0.4252   0.1437   0.7752     H
H       0.4252   0.2248   0.3563     H
H       0.4252   0.2248   0.6437     H
H       0.4252   0.2752   0.1437     H
H       0.4252   0.2752   0.8563     H
H       0.4252   0.3563   0.2752     H
H       0.4252   0.3563   0.7248     H
H       0.4252   0.6437   0.2752     H
H       0.4252   0.6437   0.7248     H
H       0.4252   0.7248   0.1437     H
H       0.4252   0.7248   0.8563     H
H       0.4252   0.7752   0.3563     H
H       0.4252   0.7752   0.6437     H
H       0.4252   0.8563   0.2248     H
H       0.4252   0.8563   0.7752     H
C      0.43219  0.16248   0.2099     C
C      0.43219  0.16248   0.7901     C
C      0.43219   0.2099  0.33752     C
C      0.43219   0.2099  0.66248     C
C      0.43219   0.2901  0.16248     C
C      0.43219   0.2901  0.83752     C
C      0.43219  0.33752   0.2901     C
C      0.43219  0.33752   0.7099     C
C      0.43219  0.66248   0.2901     C
C      0.43219  0.66248   0.7099     C
C      0.43219   0.7099  0.16248     C
C      0.43219   0.7099  0.83752     C
C      0.43219   0.7901  0.33752     C
C      0.43219   0.7901  0.66248     C
C      0.43219  0.83752   0.2099     C
C      0.43219  0.83752   0.7901     C
N      0.43348  0.16644  0.29908     N
N      0.43348  0.16644  0.70092     N
N      0.43348  0.20092  0.16644     N
N      0.43348  0.20092  0.83356     N
N      0.43348  0.29908  0.33356     N
N      0.43348  0.29908  0.66644     N
N      0.43348  0.33356  0.20092     N
N      0.43348  0.33356  0.79908     N
N      0.43348  0.66644  0.20092     N
N      0.43348  0.66644  0.79908     N
N      0.43348  0.70092  0.33356     N
N      0.43348  0.70092  0.66644     N
N      0.43348  0.79908  0.16644     N
N      0.43348  0.79908  0.83356     N
N      0.43348  0.83356  0.29908     N
N      0.43348  0.83356  0.70092     N
N      0.46045  0.18284  0.21409     N
N      0.46045  0.18284  0.78591     N
N      0.46045  0.21409  0.31716     N
N      0.46045  0.21409  0.68284     N
N      0.46045  0.28591  0.18284     N
N      0.46045  0.28591  0.81716     N
N      0.46045  0.31716  0.28591     N
N      0.46045  0.31716  0.71409     N
N      0.46045  0.68284  0.28591     N
N      0.46045  0.68284  0.71409     N
N      0.46045  0.71409  0.18284     N
N      0.46045  0.71409  0.81716     N
N      0.46045  0.78591  0.31716     N
N      0.46045  0.78591  0.68284     N
N      0.46045  0.81716  0.21409     N
N      0.46045  0.81716  0.78591     N
N      0.46079  0.18749  0.29407     N
N      0.46079  0.18749  0.70593     N
N      0.46079  0.20593  0.18749     N
N      0.46079  0.20593  0.81251     N
N      0.46079  0.29407  0.31251     N
N      0.46079  0.29407  0.68749     N
N      0.46079  0.31251  0.20593     N
N      0.46079  0.31251  0.79407     N
N      0.46079  0.68749  0.20593     N
N      0.46079  0.68749  0.79407     N
N      0.46079  0.70593  0.31251     N
N      0.46079  0.70593  0.68749     N
N      0.46079  0.79407  0.18749     N
N      0.46079  0.79407  0.81251     N
N      0.46079  0.81251  0.29407     N
N      0.46079  0.81251  0.70593     N
Fe         0.5   0.1818  0.25406    Fe
Fe         0.5   0.1818  0.74594    Fe
Fe         0.5  0.24594   0.1818    Fe
Fe         0.5  0.24594   0.8182    Fe
Cl         0.5     0.25     0.25    Cl
Cl         0.5     0.25     0.75    Cl
Fe         0.5  0.25406   0.3182    Fe
Fe         0.5  0.25406   0.6818    Fe
Fe         0.5   0.3182  0.24594    Fe
Fe         0.5   0.3182  0.75406    Fe
Fe         0.5   0.6818  0.24594    Fe
Fe         0.5   0.6818  0.75406    Fe
Fe         0.5  0.74594   0.3182    Fe
Fe         0.5  0.74594   0.6818    Fe
Cl         0.5     0.75     0.25    Cl
Cl         0.5     0.75     0.75    Cl
Fe         0.5  0.75406   0.1818    Fe
Fe         0.5  0.75406   0.8182    Fe
Fe         0.5   0.8182  0.25406    Fe
Fe         0.5   0.8182  0.74594    Fe
N      0.53921  0.18749  0.29407     N
N      0.53921  0.18749  0.70593     N
N      0.53921  0.20593  0.18749     N
N      0.53921  0.20593  0.81251     N
N      0.53921  0.29407  0.31251     N
N      0.53921  0.29407  0.68749     N
N      0.53921  0.31251  0.20593     N
N      0.53921  0.31251  0.79407     N
N      0.53921  0.68749  0.20593     N
N      0.53921  0.68749  0.79407     N
N      0.53921  0.70593  0.31251     N
N      0.53921  0.70593  0.68749     N
N      0.53921  0.79407  0.18749     N
N      0.53921  0.79407  0.81251     N
N      0.53921  0.81251  0.29407     N
N      0.53921  0.81251  0.70593     N
N      0.53955  0.18284  0.21409     N
N      0.53955  0.18284  0.78591     N
N      0.53955  0.21409  0.31716     N
N      0.53955  0.21409  0.68284     N
N      0.53955  0.28591  0.18284     N
N      0.53955  0.28591  0.81716     N
N      0.53955  0.31716  0.28591     N
N      0.53955  0.31716  0.71409     N
N      0.53955  0.68284  0.28591     N
N      0.53955  0.68284  0.71409     N
N      0.53955  0.71409  0.18284     N
N      0.53955  0.71409  0.81716     N
N      0.53955  0.78591  0.31716     N
N      0.53955  0.78591  0.68284     N
N      0.53955  0.81716  0.21409     N
N      0.53955  0.81716  0.78591     N
N      0.56652  0.16644  0.29908     N
N      0.56652  0.16644  0.70092     N
N      0.56652  0.20092  0.16644     N
N      0.56652  0.20092  0.83356     N
N      0.56652  0.29908  0.33356     N
N      0.56652  0.29908  0.66644     N
N      0.56652  0.33356  0.20092     N
N      0.56652  0.33356  0.79908     N
N      0.56652  0.66644  0.20092     N
N      0.56652  0.66644  0.79908     N
N      0.56652  0.70092  0.33356     N
N      0.56652  0.70092  0.66644     N
N      0.56652  0.79908  0.16644     N
N      0.56652  0.79908  0.83356     N
N      0.56652  0.83356  0.29908     N
N      0.56652  0.83356  0.70092     N
C      0.56781  0.16248   0.2099     C
C      0.56781  0.16248   0.7901     C
C      0.56781   0.2099  0.33752     C
C      0.56781   0.2099  0.66248     C
C      0.56781   0.2901  0.16248     C
C      0.56781   0.2901  0.83752     C
C      0.56781  0.33752   0.2901     C
C      0.56781  0.33752   0.7099     C
C      0.56781  0.66248   0.2901     C
C      0.56781  0.66248   0.7099     C
C      0.56781   0.7099  0.16248     C
C      0.56781   0.7099  0.83752     C
C      0.56781   0.7901  0.33752     C
C      0.56781   0.7901  0.66248     C
C      0.56781  0.83752   0.2099     C
C      0.56781  0.83752   0.7901     C
H       0.5748   0.1437   0.2248     H
H       0.5748   0.1437   0.7752     H
H       0.5748   0.2248   0.3563     H
H       0.5748   0.2248   0.6437     H
H       0.5748   0.2752   0.1437     H
H       0.5748   0.2752   0.8563     H
H       0.5748   0.3563   0.2752     H
H       0.5748   0.3563   0.7248     H
H       0.5748   0.6437   0.2752     H
H       0.5748   0.6437   0.7248     H
H       0.5748   0.7248   0.1437     H
H       0.5748   0.7248   0.8563     H
H       0.5748   0.7752   0.3563     H
H       0.5748   0.7752   0.6437     H
H       0.5748   0.8563   0.2248     H
H       0.5748   0.8563   0.7752     H
C      0.58513  0.17375  0.17982     C
C      0.58513  0.17375  0.82018     C
C      0.58513  0.17982  0.32625     C
C      0.58513  0.17982  0.67375     C
C      0.58513  0.32018  0.17375     C
C      0.58513  0.32018  0.82625     C
C      0.58513  0.32625  0.32018     C
C      0.58513  0.32625  0.67982     C
C      0.58513  0.67375  0.32018     C
C      0.58513  0.67375  0.67982     C
C      0.58513  0.67982  0.17375     C
C      0.58513  0.67982  0.82625     C
C      0.58513  0.82018  0.32625     C
C      0.58513  0.82018  0.67375     C
C      0.58513  0.82625  0.17982     C
C      0.58513  0.82625  0.82018     C
C      0.61688  0.16026  0.16322     C
C      0.61688  0.16026  0.83678     C
C      0.61688  0.16322  0.33974     C
C      0.61688  0.16322  0.66026     C
C      0.61688  0.33678  0.16026     C
C      0.61688  0.33678  0.83974     C
C      0.61688  0.33974  0.33678     C
C      0.61688  0.33974  0.66322     C
C      0.61688  0.66026  0.33678     C
C      0.61688  0.66026  0.66322     C
C      0.61688  0.66322  0.16026     C
C      0.61688  0.66322  0.83974     C
C      0.61688  0.83678  0.33974     C
C      0.61688  0.83678  0.66026     C
C      0.61688  0.83974  0.16322     C
C      0.61688  0.83974  0.83678     C
H       0.6196   0.1245   0.3028     H
H       0.6196   0.1245   0.6972     H
H       0.6196   0.1972   0.1245     H
H       0.6196   0.1972   0.8755     H
H       0.6196   0.3028   0.3755     H
H       0.6196   0.3028   0.6245     H
H       0.6196   0.3755   0.1972     H
H       0.6196   0.3755   0.8028     H
H       0.6196   0.6245   0.1972     H
H       0.6196   0.6245   0.8028     H
H       0.6196   0.6972   0.3755     H
H       0.6196   0.6972   0.6245     H
H       0.6196   0.8028   0.1245     H
H       0.6196   0.8028   0.8755     H
H       0.6196   0.8755   0.3028     H
H       0.6196   0.8755   0.6972     H
H       0.6245   0.1196   0.1972     H
H       0.6245   0.1196   0.8028     H
H       0.6245   0.1972   0.3804     H
H       0.6245   0.1972   0.6196     H
H       0.6245   0.3028   0.1196     H
H       0.6245   0.3028   0.8804     H
H       0.6245   0.3804   0.3028     H
H       0.6245   0.3804   0.6972     H
H       0.6245   0.6196   0.3028     H
H       0.6245   0.6196   0.6972     H
H       0.6245   0.6972   0.1196     H
H       0.6245   0.6972   0.8804     H
H       0.6245   0.8028   0.3804     H
H       0.6245   0.8028   0.6196     H
H       0.6245   0.8804   0.1972     H
H       0.6245   0.8804   0.8028     H
C       0.6306   0.1335   0.3233     C
C       0.6306   0.1335   0.6767     C
C       0.6306   0.1767   0.1335     C
C       0.6306   0.1767   0.8665     C
C       0.6306   0.3233   0.3665     C
C       0.6306   0.3233   0.6335     C
C       0.6306   0.3665   0.1767     C
C       0.6306   0.3665   0.8233     C
C       0.6306   0.6335   0.1767     C
C       0.6306   0.6335   0.8233     C
C       0.6306   0.6767   0.3665     C
C       0.6306   0.6767   0.6335     C
C       0.6306   0.8233   0.1335     C
C       0.6306   0.8233   0.8665     C
C       0.6306   0.8665   0.3233     C
C       0.6306   0.8665   0.6767     C
C       0.6335   0.1306   0.1767     C
C       0.6335   0.1306   0.8233     C
C       0.6335   0.1767   0.3694     C
C       0.6335   0.1767   0.6306     C
C       0.6335   0.3233   0.1306     C
C       0.6335   0.3233   0.8694     C
C       0.6335   0.3694   0.3233     C
C       0.6335   0.3694   0.6767     C
C       0.6335   0.6306   0.3233     C
C       0.6335   0.6306   0.6767     C
C       0.6335   0.6767   0.1306     C
C       0.6335   0.6767   0.8694     C
C       0.6335   0.8233   0.3694     C
C       0.6335   0.8233   0.6306     C
C       0.6335   0.8694   0.1767     C
C       0.6335   0.8694   0.8233     C
H       0.6437   0.0748   0.2752     H
H       0.6437   0.0748   0.7248     H
H       0.6437   0.2248   0.0748     H
H       0.6437   0.2248   0.9252     H
H       0.6437   0.2752   0.4252     H
H       0.6437   0.2752   0.5748     H
H       0.6437   0.4252   0.2248     H
H       0.6437   0.4252   0.7752     H
H       0.6437   0.5748   0.2248     H
H       0.6437   0.5748   0.7752     H
H       0.6437   0.7248   0.4252     H
H       0.6437   0.7248   0.5748     H
H       0.6437   0.7752   0.0748     H
H       0.6437   0.7752   0.9252     H
H       0.6437   0.9252   0.2752     H
H       0.6437   0.9252   0.7248     H
C      0.66026  0.11688  0.33678     C
C      0.66026  0.11688  0.66322     C
C      0.66026  0.16322  0.11688     C
C      0.66026  0.16322  0.88312     C
C      0.66026  0.33678  0.38312     C
C      0.66026  0.33678  0.61688     C
C      0.66026  0.38312  0.16322     C
C      0.66026  0.38312  0.83678     C
C      0.66026  0.61688  0.16322     C
C      0.66026  0.61688  0.83678     C
C      0.66026  0.66322  0.38312     C
C      0.66026  0.66322  0.61688     C
C      0.66026  0.83678  0.11688     C
C      0.66026  0.83678  0.88312     C
C      0.66026  0.88312  0.33678     C
C      0.66026  0.88312  0.66322     C
C      0.66248  0.06781   0.2901     C
C      0.66248  0.06781   0.7099     C
C      0.66248   0.2099  0.06781     C
C      0.66248   0.2099  0.93219     C
C      0.66248   0.2901  0.43219     C
C      0.66248   0.2901  0.56781     C
C      0.66248  0.43219   0.2099     C
C      0.66248  0.43219   0.7901     C
C      0.66248  0.56781   0.2099     C
C      0.66248  0.56781   0.7901     C
C      0.66248   0.7099  0.43219     C
C      0.66248   0.7099  0.56781     C
C      0.66248   0.7901  0.06781     C
C      0.66248   0.7901  0.93219     C
C      0.66248  0.93219   0.2901     C
C      0.66248  0.93219   0.7099     C
C      0.66322  0.11688  0.16026     C
C      0.66322  0.11688  0.83974     C
C      0.66322  0.16026  0.38312     C
C      0.66322  0.16026  0.61688     C
C      0.66322  0.33974  0.11688     C
C      0.66322  0.33974  0.88312     C
C      0.66322  0.38312  0.33974     C
C      0.66322  0.38312  0.66026     C
C      0.66322  0.61688  0.33974     C
C      0.66322  0.61688  0.66026     C
C      0.66322  0.66026  0.11688     C
C      0.66322  0.66026  0.88312     C
C      0.66322  0.83974  0.38312     C
C      0.66322  0.83974  0.61688     C
C      0.66322  0.88312  0.16026     C
C      0.66322  0.88312  0.83974     C
N      0.66644  0.06652  0.20092     N
N      0.66644  0.06652  0.79908     N
N      0.66644  0.20092  0.43348     N
N      0.66644  0.20092  0.56652     N
N      0.66644  0.29908  0.06652     N
N      0.66644  0.29908  0.93348     N
N      0.66644  0.43348  0.29908     N
N      0.66644  0.43348  0.70092     N
N      0.66644  0.56652  0.29908     N
N      0.66644  0.56652  0.70092     N
N      0.66644  0.70092  0.06652     N
N      0.66644  0.70092  0.93348     N
N      0.66644  0.79908  0.43348     N
N      0.66644  0.79908  0.56652     N
N      0.66644  0.93348  0.20092     N
N      0.66644  0.93348  0.79908     N
C      0.67375  0.08513  0.32018     C
C      0.67375  0.08513  0.67982     C
C      0.67375  0.17982  0.08513     C
C      0.67375  0.17982  0.91487     C
C      0.67375  0.32018  0.41487     C
C      0.67375  0.32018  0.58513     C
C      0.67375  0.41487  0.17982     C
C      0.67375  0.41487  0.82018     C
C      0.67375  0.58513  0.17982     C
C      0.67375  0.58513  0.82018     C
C      0.67375  0.67982  0.41487     C
C      0.67375  0.67982  0.58513     C
C      0.67375  0.82018  0.08513     C
C      0.67375  0.82018  0.91487     C
C      0.67375  0.91487  0.32018     C
C      0.67375  0.91487  0.67982     C
C       0.6767   0.1306   0.3665     C
C       0.6767   0.1306   0.6335     C
C       0.6767   0.1335   0.1306     C
C       0.6767   0.1335   0.8694     C
C       0.6767   0.3665   0.3694     C
C       0.6767   0.3665   0.6306     C
C       0.6767   0.3694   0.1335     C
C       0.6767   0.3694   0.8665     C
C       0.6767   0.6306   0.1335     C
C       0.6767   0.6306   0.8665     C
C       0.6767   0.6335   0.3694     C
C       0.6767   0.6335   0.6306     C
C       0.6767   0.8665   0.1306     C
C       0.6767   0.8665   0.8694     C
C       0.6767   0.8694   0.3665     C
C       0.6767   0.8694   0.6335     C
C      0.67982  0.08513  0.17375     C
C      0.67982  0.08513  0.82625     C
C      0.67982  0.17375  0.41487     C
C      0.67982  0.17375  0.58513     C
C      0.67982  0.32625  0.08513     C
C      0.67982  0.32625  0.91487     C
C      0.67982  0.41487  0.32625     C
C      0.67982  0.41487  0.67375     C
C      0.67982  0.58513  0.32625     C
C      0.67982  0.58513  0.67375     C
C      0.67982  0.67375  0.08513     C
C      0.67982  0.67375  0.91487     C
C      0.67982  0.82625  0.41487     C
C      0.67982  0.82625  0.58513     C
C      0.67982  0.91487  0.17375     C
C      0.67982  0.91487  0.82625     C
Fe      0.6818      0.0  0.24594    Fe
Fe      0.6818      0.0  0.75406    Fe
Fe      0.6818  0.24594      0.5    Fe
Fe      0.6818  0.25406      0.0    Fe
Fe      0.6818      0.5  0.25406    Fe
Fe      0.6818      0.5  0.74594    Fe
Fe      0.6818  0.74594      0.0    Fe
Fe      0.6818  0.75406      0.5    Fe
N      0.68284  0.03955  0.28591     N
N      0.68284  0.03955  0.71409     N
N      0.68284  0.21409  0.03955     N
N      0.68284  0.21409  0.96045     N
N      0.68284  0.28591  0.46045     N
N      0.68284  0.28591  0.53955     N
N      0.68284  0.46045  0.21409     N
N      0.68284  0.46045  0.78591     N
N      0.68284  0.53955  0.21409     N
N      0.68284  0.53955  0.78591     N
N      0.68284  0.71409  0.46045     N
N      0.68284  0.71409  0.53955     N
N      0.68284  0.78591  0.03955     N
N      0.68284  0.78591  0.96045     N
N      0.68284  0.96045  0.28591     N
N      0.68284  0.96045  0.71409     N
N      0.68749  0.03921  0.20593     N
N      0.68749  0.03921  0.79407     N
N      0.68749  0.20593  0.46079     N
N      0.68749  0.20593  0.53921     N
N      0.68749  0.29407  0.03921     N
N      0.68749  0.29407  0.96079     N
N      0.68749  0.46079  0.29407     N
N      0.68749  0.46079  0.70593     N
N      0.68749  0.53921  0.29407     N
N      0.68749  0.53921  0.70593     N
N      0.68749  0.70593  0.03921     N
N      0.68749  0.70593  0.96079     N
N      0.68749  0.79407  0.46079     N
N      0.68749  0.79407  0.53921     N
N      0.68749  0.96079  0.20593     N
N      0.68749  0.96079  0.79407     N
H       0.6972   0.1196   0.3755     H
H       0.6972   0.1196   0.6245     H
H       0.6972   0.1245   0.1196     H
H       0.6972   0.1245   0.8804     H
H       0.6972   0.3755   0.3804     H
H       0.6972   0.3755   0.6196     H
H       0.6972   0.3804   0.1245     H
H       0.6972   0.3804   0.8755     H
H       0.6972   0.6196   0.1245     H
H       0.6972   0.6196   0.8755     H
H       0.6972   0.6245   0.3804     H
H       0.6972   0.6245   0.6196     H
H       0.6972   0.8755   0.1196     H
H       0.6972   0.8755   0.8804     H
H       0.6972   0.8804   0.3755     H
H       0.6972   0.8804   0.6245     H
N      0.70092  0.06652  0.33356     N
N      0.70092  0.06652  0.66644     N
N      0.70092  0.16644  0.06652     N
N      0.70092  0.16644  0.93348     N
N      0.70092  0.33356  0.43348     N
N      0.70092  0.33356  0.56652     N
N      0.70092  0.43348  0.16644     N
N      0.70092  0.43348  0.83356     N
N      0.70092  0.56652  0.16644     N
N      0.70092  0.56652  0.83356     N
N      0.70092  0.66644  0.43348     N
N      0.70092  0.66644  0.56652     N
N      0.70092  0.83356  0.06652     N
N      0.70092  0.83356  0.93348     N
N      0.70092  0.93348  0.33356     N
N      0.70092  0.93348  0.66644     N
N      0.70593  0.03921  0.31251     N
N      0.70593  0.03921  0.68749     N
N      0.70593  0.18749  0.03921     N
N      0.70593  0.18749  0.96079     N
N      0.70593  0.31251  0.46079     N
N      0.70593  0.31251  0.53921     N
N      0.70593  0.46079  0.18749     N
N      0.70593  0.46079  0.81251     N
N      0.70593  0.53921  0.18749     N
N      0.70593  0.53921  0.81251     N
N      0.70593  0.68749  0.46079     N
N      0.70593  0.68749  0.53921     N
N      0.70593  0.81251  0.03921     N
N      0.70593  0.81251  0.96079     N
N      0.70593  0.96079  0.31251     N
N      0.70593  0.96079  0.68749     N
C       0.7099  0.06781  0.16248     C
C       0.7099  0.06781  0.83752     C
C       0.7099  0.16248  0.43219     C
C       0.7099  0.16248  0.56781     C
C       0.7099  0.33752  0.06781     C
C       0.7099  0.33752  0.93219     C
C       0.7099  0.43219  0.33752     C
C       0.7099  0.43219  0.66248     C
C       0.7099  0.56781  0.33752     C
C       0.7099  0.56781  0.66248     C
C       0.7099  0.66248  0.06781     C
C       0.7099  0.66248  0.93219     C
C       0.7099  0.83752  0.43219     C
C       0.7099  0.83752  0.56781     C
C       0.7099  0.93219  0.16248     C
C       0.7099  0.93219  0.83752     C
N      0.71409  0.03955  0.18284     N
N      0.71409  0.03955  0.81716     N
N      0.71409  0.18284  0.46045     N
N      0.71409  0.18284  0.53955     N
N      0.71409  0.31716  0.03955     N
N      0.71409  0.31716  0.96045     N
N      0.71409  0.46045  0.31716     N
N      0.71409  0.46045  0.68284     N
N      0.71409  0.53955  0.31716     N
N      0.71409  0.53955  0.68284     N
N      0.71409  0.68284  0.03955     N
N      0.71409  0.68284  0.96045     N
N      0.71409  0.81716  0.46045     N
N      0.71409  0.81716  0.53955     N
N      0.71409  0.96045  0.18284     N
N      0.71409  0.96045  0.81716     N
H       0.7248   0.0748   0.1437     H
H       0.7248   0.0748   0.8563     H
H       0.7248   0.1437   0.4252     H
H       0.7248   0.1437   0.5748     H
H       0.7248   0.3563   0.0748     H
H       0.7248   0.3563   0.9252     H
H       0.7248   0.4252   0.3563     H
H       0.7248   0.4252   0.6437     H
H       0.7248   0.5748   0.3563     H
H       0.7248   0.5748   0.6437     H
H       0.7248   0.6437   0.0748     H
H       0.7248   0.6437   0.9252     H
H       0.7248   0.8563   0.4252     H
H       0.7248   0.8563   0.5748     H
H       0.7248   0.9252   0.1437     H
H       0.7248   0.9252   0.8563     H
Fe     0.74594      0.0   0.3182    Fe
Fe     0.74594      0.0   0.6818    Fe
Fe     0.74594   0.1818      0.0    Fe
Fe     0.74594   0.3182      0.5    Fe
Fe     0.74594      0.5   0.1818    Fe
Fe     0.74594      0.5   0.8182    Fe
Fe     0.74594   0.6818      0.5    Fe
Fe     0.74594   0.8182      0.0    Fe
Cl        0.75      0.0     0.25    Cl
Cl        0.75      0.0     0.75    Cl
Cl        0.75     0.25      0.0    Cl
Cl        0.75     0.25      0.5    Cl
Cl        0.75      0.5     0.25    Cl
Cl        0.75      0.5     0.75    Cl
Cl        0.75     0.75      0.0    Cl
Cl        0.75     0.75      0.5    Cl
Fe     0.75406      0.0   0.1818    Fe
Fe     0.75406      0.0   0.8182    Fe
Fe     0.75406   0.1818      0.5    Fe
Fe     0.75406   0.3182      0.0    Fe
Fe     0.75406      0.5   0.3182    Fe
Fe     0.75406      0.5   0.6818    Fe
Fe     0.75406   0.6818      0.0    Fe
Fe     0.75406   0.8182      0.5    Fe
H       0.7752   0.0748   0.3563     H
H       0.7752   0.0748   0.6437     H
H       0.7752   0.1437   0.0748     H
H       0.7752   0.1437   0.9252     H
H       0.7752   0.3563   0.4252     H
H       0.7752   0.3563   0.5748     H
H       0.7752   0.4252   0.1437     H
H       0.7752   0.4252   0.8563     H
H       0.7752   0.5748   0.1437     H
H       0.7752   0.5748   0.8563     H
H       0.7752   0.6437   0.4252     H
H       0.7752   0.6437   0.5748     H
H       0.7752   0.8563   0.0748     H
H       0.7752   0.8563   0.9252     H
H       0.7752   0.9252   0.3563     H
H       0.7752   0.9252   0.6437     H
N      0.78591  0.03955  0.31716     N
N      0.78591  0.03955  0.68284     N
N      0.78591  0.18284  0.03955     N
N      0.78591  0.18284  0.96045     N
N      0.78591  0.31716  0.46045     N
N      0.78591  0.31716  0.53955     N
N      0.78591  0.46045  0.18284     N
N      0.78591  0.46045  0.81716     N
N      0.78591  0.53955  0.18284     N
N      0.78591  0.53955  0.81716     N
N      0.78591  0.68284  0.46045     N
N      0.78591  0.68284  0.53955     N
N      0.78591  0.81716  0.03955     N
N      0.78591  0.81716  0.96045     N
N      0.78591  0.96045  0.31716     N
N      0.78591  0.96045  0.68284     N
C       0.7901  0.06781  0.33752     C
C       0.7901  0.06781  0.66248     C
C       0.7901  0.16248  0.06781     C
C       0.7901  0.16248  0.93219     C
C       0.7901  0.33752  0.43219     C
C       0.7901  0.33752  0.56781     C
C       0.7901  0.43219  0.16248     C
C       0.7901  0.43219  0.83752     C
C       0.7901  0.56781  0.16248     C
C       0.7901  0.56781  0.83752     C
C       0.7901  0.66248  0.43219     C
C       0.7901  0.66248  0.56781     C
C       0.7901  0.83752  0.06781     C
C       0.7901  0.83752  0.93219     C
C       0.7901  0.93219  0.33752     C
C       0.7901  0.93219  0.66248     C
N      0.79407  0.03921  0.18749     N
N      0.79407  0.03921  0.81251     N
N      0.79407  0.18749  0.46079     N
N      0.79407  0.18749  0.53921     N
N      0.79407  0.31251  0.03921     N
N      0.79407  0.31251  0.96079     N
N      0.79407  0.46079  0.31251     N
N      0.79407  0.46079  0.68749     N
N      0.79407  0.53921  0.31251     N
N      0.79407  0.53921  0.68749     N
N      0.79407  0.68749  0.03921     N
N      0.79407  0.68749  0.96079     N
N      0.79407  0.81251  0.46079     N
N      0.79407  0.81251  0.53921     N
N      0.79407  0.96079  0.18749     N
N      0.79407  0.96079  0.81251     N
N      0.79908  0.06652  0.16644     N
N      0.79908  0.06652  0.83356     N
N      0.79908  0.16644  0.43348     N
N      0.79908  0.16644  0.56652     N
N      0.79908  0.33356  0.06652     N
N      0.79908  0.33356  0.93348     N
N      0.79908  0.43348  0.33356     N
N      0.79908  0.43348  0.66644     N
N      0.79908  0.56652  0.33356     N
N      0.79908  0.56652  0.66644     N
N      0.79908  0.66644  0.06652     N
N      0.79908  0.66644  0.93348     N
N      0.79908  0.83356  0.43348     N
N      0.79908  0.83356  0.56652     N
N      0.79908  0.93348  0.16644     N
N      0.79908  0.93348  0.83356     N
H       0.8028   0.1196   0.1245     H
H       0.8028   0.1196   0.8755     H
H       0.8028   0.1245   0.3804     H
H       0.8028   0.1245   0.6196     H
H       0.8028   0.3755   0.1196     H
H       0.8028   0.3755   0.8804     H
H       0.8028   0.3804   0.3755     H
H       0.8028   0.3804   0.6245     H
H       0.8028   0.6196   0.3755     H
H       0.8028   0.6196   0.6245     H
H       0.8028   0.6245   0.1196     H
H       0.8028   0.6245   0.8804     H
H       0.8028   0.8755   0.3804     H
H       0.8028   0.8755   0.6196     H
H       0.8028   0.8804   0.1245     H
H       0.8028   0.8804   0.8755     H
N      0.81251  0.03921  0.29407     N
N      0.81251  0.03921  0.70593     N
N      0.81251  0.20593  0.03921     N
N      0.81251  0.20593  0.96079     N
N      0.81251  0.29407  0.46079     N
N      0.81251  0.29407  0.53921     N
N      0.81251  0.46079  0.20593     N
N      0.81251  0.46079  0.79407     N
N      0.81251  0.53921  0.20593     N
N      0.81251  0.53921  0.79407     N
N      0.81251  0.70593  0.46079     N
N      0.81251  0.70593  0.53921     N
N      0.81251  0.79407  0.03921     N
N      0.81251  0.79407  0.96079     N
N      0.81251  0.96079  0.29407     N
N      0.81251  0.96079  0.70593     N
N      0.81716  0.03955  0.21409     N
N      0.81716  0.03955  0.78591     N
N      0.81716  0.21409  0.46045     N
N      0.81716  0.21409  0.53955     N
N      0.81716  0.28591  0.03955     N
N      0.81716  0.28591  0.96045     N
N      0.81716  0.46045  0.28591     N
N      0.81716  0.46045  0.71409     N
N      0.81716  0.53955  0.28591     N
N      0.81716  0.53955  0.71409     N
N      0.81716  0.71409  0.03955     N
N      0.81716  0.71409  0.96045     N
N      0.81716  0.78591  0.46045     N
N      0.81716  0.78591  0.53955     N
N      0.81716  0.96045  0.21409     N
N      0.81716  0.96045  0.78591     N
Fe      0.8182      0.0  0.25406    Fe
Fe      0.8182      0.0  0.74594    Fe
Fe      0.8182  0.24594      0.0    Fe
Fe      0.8182  0.25406      0.5    Fe
Fe      0.8182      0.5  0.24594    Fe
Fe      0.8182      0.5  0.75406    Fe
Fe      0.8182  0.74594      0.5    Fe
Fe      0.8182  0.75406      0.0    Fe
C      0.82018  0.08513  0.32625     C
C      0.82018  0.08513  0.67375     C
C      0.82018  0.17375  0.08513     C
C      0.82018  0.17375  0.91487     C
C      0.82018  0.32625  0.41487     C
C      0.82018  0.32625  0.58513     C
C      0.82018  0.41487  0.17375     C
C      0.82018  0.41487  0.82625     C
C      0.82018  0.58513  0.17375     C
C      0.82018  0.58513  0.82625     C
C      0.82018  0.67375  0.41487     C
C      0.82018  0.67375  0.58513     C
C      0.82018  0.82625  0.08513     C
C      0.82018  0.82625  0.91487     C
C      0.82018  0.91487  0.32625     C
C      0.82018  0.91487  0.67375     C
C       0.8233   0.1306   0.1335     C
C       0.8233   0.1306   0.8665     C
C       0.8233   0.1335   0.3694     C
C       0.8233   0.1335   0.6306     C
C       0.8233   0.3665   0.1306     C
C       0.8233   0.3665   0.8694     C
C       0.8233   0.3694   0.3665     C
C       0.8233   0.3694   0.6335     C
C       0.8233   0.6306   0.3665     C
C       0.8233   0.6306   0.6335     C
C       0.8233   0.6335   0.1306     C
C       0.8233   0.6335   0.8694     C
C       0.8233   0.8665   0.3694     C
C       0.8233   0.8665   0.6306     C
C       0.8233   0.8694   0.1335     C
C       0.8233   0.8694   0.8665     C
C      0.82625  0.08513  0.17982     C
C      0.82625  0.08513  0.82018     C
C      0.82625  0.17982  0.41487     C
C      0.82625  0.17982  0.58513     C
C      0.82625  0.32018  0.08513     C
C      0.82625  0.32018  0.91487     C
C      0.82625  0.41487  0.32018     C
C      0.82625  0.41487  0.67982     C
C      0.82625  0.58513  0.32018     C
C      0.82625  0.58513  0.67982     C
C      0.82625  0.67982  0.08513     C
C      0.82625  0.67982  0.91487     C
C      0.82625  0.82018  0.41487     C
C      0.82625  0.82018  0.58513     C
C      0.82625  0.91487  0.17982     C
C      0.82625  0.91487  0.82018     C
N      0.83356  0.06652  0.29908     N
N      0.83356  0.06652  0.70092     N
N      0.83356  0.20092  0.06652     N
N      0.83356  0.20092  0.93348     N
N      0.83356  0.29908  0.43348     N
N      0.83356  0.29908  0.56652     N
N      0.83356  0.43348  0.20092     N
N      0.83356  0.43348  0.79908     N
N      0.83356  0.56652  0.20092     N
N      0.83356  0.56652  0.79908     N
N      0.83356  0.70092  0.43348     N
N      0.83356  0.70092  0.56652     N
N      0.83356  0.79908  0.06652     N
N      0.83356  0.79908  0.93348     N
N      0.83356  0.93348  0.29908     N
N      0.83356  0.93348  0.70092     N
C      0.83678  0.11688  0.33974     C
C      0.83678  0.11688  0.66026     C
C      0.83678  0.16026  0.11688     C
C      0.83678  0.16026  0.88312     C
C      0.83678  0.33974  0.38312     C
C      0.83678  0.33974  0.61688     C
C      0.83678  0.38312  0.16026     C
C      0.83678  0.38312  0.83974     C
C      0.83678  0.61688  0.16026     C
C      0.83678  0.61688  0.83974     C
C      0.83678  0.66026  0.38312     C
C      0.83678  0.66026  0.61688     C
C      0.83678  0.83974  0.11688     C
C      0.83678  0.83974  0.88312     C
C      0.83678  0.88312  0.33974     C
C      0.83678  0.88312  0.66026     C
C      0.83752  0.06781   0.2099     C
C      0.83752  0.06781   0.7901     C
C      0.83752   0.2099  0.43219     C
C      0.83752   0.2099  0.56781     C
C      0.83752   0.2901  0.06781     C
C      0.83752   0.2901  0.93219     C
C      0.83752  0.43219   0.2901     C
C      0.83752  0.43219   0.7099     C
C      0.83752  0.56781   0.2901     C
C      0.83752  0.56781   0.7099     C
C      0.83752   0.7099  0.06781     C
C      0.83752   0.7099  0.93219     C
C      0.83752   0.7901  0.43219     C
C      0.83752   0.7901  0.56781     C
C      0.83752  0.93219   0.2099     C
C      0.83752  0.93219   0.7901     C
C      0.83974  0.11688  0.16322     C
C      0.83974  0.11688  0.83678     C
C      0.83974  0.16322  0.38312     C
C      0.83974  0.16322  0.61688     C
C      0.83974  0.33678  0.11688     C
C      0.83974  0.33678  0.88312     C
C      0.83974  0.38312  0.33678     C
C      0.83974  0.38312  0.66322     C
C      0.83974  0.61688  0.33678     C
C      0.83974  0.61688  0.66322     C
C      0.83974  0.66322  0.11688     C
C      0.83974  0.66322  0.88312     C
C      0.83974  0.83678  0.38312     C
C      0.83974  0.83678  0.61688     C
C      0.83974  0.88312  0.16322     C
C      0.83974  0.88312  0.83678     C
H       0.8563   0.0748   0.2248     H
H       0.8563   0.0748   0.7752     H
H       0.8563   0.2248   0.4252     H
H       0.8563   0.2248   0.5748     H
H       0.8563   0.2752   0.0748     H
H       0.8563   0.2752   0.9252     H
H       0.8563   0.4252   0.2752     H
H       0.8563   0.4252   0.7248     H
H       0.8563   0.5748   0.2752     H
H       0.8563   0.5748   0.7248     H
H       0.8563   0.7248   0.0748     H
H       0.8563   0.7248   0.9252     H
H       0.8563   0.7752   0.4252     H
H       0.8563   0.7752   0.5748     H
H       0.8563   0.9252   0.2248     H
H       0.8563   0.9252   0.7752     H
C       0.8665   0.1306   0.3233     C
C       0.8665   0.1306   0.6767     C
C       0.8665   0.1767   0.1306     C
C       0.8665   0.1767   0.8694     C
C       0.8665   0.3233   0.3694     C
C       0.8665   0.3233   0.6306     C
C       0.8665   0.3694   0.1767     C
C       0.8665   0.3694   0.8233     C
C       0.8665   0.6306   0.1767     C
C       0.8665   0.6306   0.8233     C
C       0.8665   0.6767   0.3694     C
C       0.8665   0.6767   0.6306     C
C       0.8665   0.8233   0.1306     C
C       0.8665   0.8233   0.8694     C
C       0.8665   0.8694   0.3233     C
C       0.8665   0.8694   0.6767     C
C       0.8694   0.1335   0.1767     C
C       0.8694   0.1335   0.8233     C
C       0.8694   0.1767   0.3665     C
C       0.8694   0.1767   0.6335     C
C       0.8694   0.3233   0.1335     C
C       0.8694   0.3233   0.8665     C
C       0.8694   0.3665   0.3233     C
C       0.8694   0.3665   0.6767     C
C       0.8694   0.6335   0.3233     C
C       0.8694   0.6335   0.6767     C
C       0.8694   0.6767   0.1335     C
C       0.8694   0.6767   0.8665     C
C       0.8694   0.8233   0.3665     C
C       0.8694   0.8233   0.6335     C
C       0.8694   0.8665   0.1767     C
C       0.8694   0.8665   0.8233     C
H       0.8755   0.1196   0.3028     H
H       0.8755   0.1196   0.6972     H
H       0.8755   0.1972   0.1196     H
H       0.8755   0.1972   0.8804     H
H       0.8755   0.3028   0.3804     H
H       0.8755   0.3028   0.6196     H
H       0.8755   0.3804   0.1972     H
H       0.8755   0.3804   0.8028     H
H       0.8755   0.6196   0.1972     H
H       0.8755   0.6196   0.8028     H
H       0.8755   0.6972   0.3804     H
H       0.8755   0.6972   0.6196     H
H       0.8755   0.8028   0.1196     H
H       0.8755   0.8028   0.8804     H
H       0.8755   0.8804   0.3028     H
H       0.8755   0.8804   0.6972     H
H       0.8804   0.1245   0.1972     H
H       0.8804   0.1245   0.8028     H
H       0.8804   0.1972   0.3755     H
H       0.8804   0.1972   0.6245     H
H       0.8804   0.3028   0.1245     H
H       0.8804   0.3028   0.8755     H
H       0.8804   0.3755   0.3028     H
H       0.8804   0.3755   0.6972     H
H       0.8804   0.6245   0.3028     H
H       0.8804   0.6245   0.6972     H
H       0.8804   0.6972   0.1245     H
H       0.8804   0.6972   0.8755     H
H       0.8804   0.8028   0.3755     H
H       0.8804   0.8028   0.6245     H
H       0.8804   0.8755   0.1972     H
H       0.8804   0.8755   0.8028     H
C      0.88312  0.16026  0.33678     C
C      0.88312  0.16026  0.66322     C
C      0.88312  0.16322  0.16026     C
C      0.88312  0.16322  0.83974     C
C      0.88312  0.33678  0.33974     C
C      0.88312  0.33678  0.66026     C
C      0.88312  0.33974  0.16322     C
C      0.88312  0.33974  0.83678     C
C      0.88312  0.66026  0.16322     C
C      0.88312  0.66026  0.83678     C
C      0.88312  0.66322  0.33974     C
C      0.88312  0.66322  0.66026     C
C      0.88312  0.83678  0.16026     C
C      0.88312  0.83678  0.83974     C
C      0.88312  0.83974  0.33678     C
C      0.88312  0.83974  0.66322     C
C      0.91487  0.17375  0.32018     C
C      0.91487  0.17375  0.67982     C
C      0.91487  0.17982  0.17375     C
C      0.91487  0.17982  0.82625     C
C      0.91487  0.32018  0.32625     C
C      0.91487  0.32018  0.67375     C
C      0.91487  0.32625  0.17982     C
C      0.91487  0.32625  0.82018     C
C      0.91487  0.67375  0.17982     C
C      0.91487  0.67375  0.82018     C
C      0.91487  0.67982  0.32625     C
C      0.91487  0.67982  0.67375     C
C      0.91487  0.82018  0.17375     C
C      0.91487  0.82018  0.82625     C
C      0.91487  0.82625  0.32018     C
C      0.91487  0.82625  0.67982     C
H       0.9252   0.1437   0.2752     H
H       0.9252   0.1437   0.7248     H
H       0.9252   0.2248   0.1437     H
H       0.9252   0.2248   0.8563     H
H       0.9252   0.2752   0.3563     H
H       0.9252   0.2752   0.6437     H
H       0.9252   0.3563   0.2248     H
H       0.9252   0.3563   0.7752     H
H       0.9252   0.6437   0.2248     H
H       0.9252   0.6437   0.7752     H
H       0.9252   0.7248   0.3563     H
H       0.9252   0.7248   0.6437     H
H       0.9252   0.7752   0.1437     H
H       0.9252   0.7752   0.8563     H
H       0.9252   0.8563   0.2752     H
H       0.9252   0.8563   0.7248     H
C      0.93219  0.16248   0.2901     C
C      0.93219  0.16248   0.7099     C
C      0.93219   0.2099  0.16248     C
C      0.93219   0.2099  0.83752     C
C      0.93219   0.2901  0.33752     C
C      0.93219   0.2901  0.66248     C
C      0.93219  0.33752   0.2099     C
C      0.93219  0.33752   0.7901     C
C      0.93219  0.66248   0.2099     C
C      0.93219  0.66248   0.7901     C
C      0.93219   0.7099  0.33752     C
C      0.93219   0.7099  0.66248     C
C      0.93219   0.7901  0.16248     C
C      0.93219   0.7901  0.83752     C
C      0.93219  0.83752   0.2901     C
C      0.93219  0.83752   0.7099     C
N      0.93348  0.16644  0.20092     N
N      0.93348  0.16644  0.79908     N
N      0.93348  0.20092  0.33356     N
N      0.93348  0.20092  0.66644     N
N      0.93348  0.29908  0.16644     N
N      0.93348  0.29908  0.83356     N
N      0.93348  0.33356  0.29908     N
N      0.93348  0.33356  0.70092     N
N      0.93348  0.66644  0.29908     N
N      0.93348  0.66644  0.70092     N
N      0.93348  0.70092  0.16644     N
N      0.93348  0.70092  0.83356     N
N      0.93348  0.79908  0.33356     N
N      0.93348  0.79908  0.66644     N
N      0.93348  0.83356  0.20092     N
N      0.93348  0.83356  0.79908     N
N      0.96045  0.18284  0.28591     N
N      0.96045  0.18284  0.71409     N
N      0.96045  0.21409  0.18284     N
N      0.96045  0.21409  0.81716     N
N      0.96045  0.28591  0.31716     N
N      0.96045  0.28591  0.68284     N
N      0.96045  0.31716  0.21409     N
N      0.96045  0.31716  0.78591     N
N      0.96045  0.68284  0.21409     N
N      0.96045  0.68284  0.78591     N
N      0.96045  0.71409  0.31716     N
N      0.96045  0.71409  0.68284     N
N      0.96045  0.78591  0.18284     N
N      0.96045  0.78591  0.81716     N
N      0.96045  0.81716  0.28591     N
N      0.96045  0.81716  0.71409     N
N      0.96079  0.18749  0.20593     N
N      0.96079  0.18749  0.79407     N
N      0.96079  0.20593  0.31251     N
N      0.96079  0.20593  0.68749     N
N      0.96079  0.29407  0.18749     N
N      0.96079  0.29407  0.81251     N
N      0.96079  0.31251  0.29407     N
N      0.96079  0.31251  0.70593     N
N      0.96079  0.68749  0.29407     N
N      0.96079  0.68749  0.70593     N
N      0.96079  0.70593  0.18749     N
N      0.96079  0.70593  0.81251     N
N      0.96079  0.79407  0.31251     N
N      0.96079  0.79407  0.68749     N
N      0.96079  0.81251  0.20593     N
N      0.96079  0.81251  0.79407     N
