data_I
_chemical_name_common  '/home/zhangsd/repos/MofS-CGCNN/ML/data/SSD/clean_cifs/OMITUB_clean'
_cell_length_a 44.61400
_cell_length_b 44.61400
_cell_length_c 44.61400
_cell_angle_alpha 90.00000
_cell_angle_beta  90.00000
_cell_angle_gamma 90.00000
_space_group_name_H-M_alt      'P 1'


loop_
_space_group_symop_operation_xyz
  'x, y, z' 

loop_
_atom_site_label
_atom_site_fract_x
_atom_site_fract_y
_atom_site_fract_z
_atom_site_type_symbol
Cu         0.0  0.12647  0.12647    Cu
Cu         0.0  0.12647  0.87353    Cu
Cu         0.0  0.16838  0.16838    Cu
Cu         0.0  0.16838  0.83162    Cu
Cu         0.0  0.33162  0.33162    Cu
Cu         0.0  0.33162  0.66838    Cu
Cu         0.0  0.37353  0.37353    Cu
Cu         0.0  0.37353  0.62647    Cu
Cu         0.0  0.62647  0.37353    Cu
Cu         0.0  0.62647  0.62647    Cu
Cu         0.0  0.66838  0.33162    Cu
Cu         0.0  0.66838  0.66838    Cu
Cu         0.0  0.83162  0.16838    Cu
Cu         0.0  0.83162  0.83162    Cu
Cu         0.0  0.87353  0.12647    Cu
Cu         0.0  0.87353  0.87353    Cu
O      0.03085  0.10798  0.15137     O
O      0.03085  0.10798  0.84863     O
O      0.03085  0.15137  0.10798     O
O      0.03085  0.15137  0.89202     O
O      0.03085  0.34863  0.39202     O
O      0.03085  0.34863  0.60798     O
O      0.03085  0.39202  0.34863     O
O      0.03085  0.39202  0.65137     O
O      0.03085  0.60798  0.34863     O
O      0.03085  0.60798  0.65137     O
O      0.03085  0.65137  0.39202     O
O      0.03085  0.65137  0.60798     O
O      0.03085  0.84863  0.10798     O
O      0.03085  0.84863  0.89202     O
O      0.03085  0.89202  0.15137     O
O      0.03085  0.89202  0.84863     O
O      0.03088  0.14347  0.18687     O
O      0.03088  0.14347  0.81313     O
O      0.03088  0.18687  0.14347     O
O      0.03088  0.18687  0.85653     O
O      0.03088  0.31313  0.35653     O
O      0.03088  0.31313  0.64347     O
O      0.03088  0.35653  0.31313     O
O      0.03088  0.35653  0.68687     O
O      0.03088  0.64347  0.31313     O
O      0.03088  0.64347  0.68687     O
O      0.03088  0.68687  0.35653     O
O      0.03088  0.68687  0.64347     O
O      0.03088  0.81313  0.14347     O
O      0.03088  0.81313  0.85653     O
O      0.03088  0.85653  0.18687     O
O      0.03088  0.85653  0.81313     O
C      0.04087  0.11995  0.17485     C
C      0.04087  0.11995  0.82515     C
C      0.04087  0.17485  0.11995     C
C      0.04087  0.17485  0.88005     C
C      0.04087  0.32515  0.38005     C
C      0.04087  0.32515  0.61995     C
C      0.04087  0.38005  0.32515     C
C      0.04087  0.38005  0.67485     C
C      0.04087  0.61995  0.32515     C
C      0.04087  0.61995  0.67485     C
C      0.04087  0.67485  0.38005     C
C      0.04087  0.67485  0.61995     C
C      0.04087  0.82515  0.11995     C
C      0.04087  0.82515  0.88005     C
C      0.04087  0.88005  0.17485     C
C      0.04087  0.88005  0.82515     C
C      0.06683  0.10498  0.18976     C
C      0.06683  0.10498  0.81024     C
C      0.06683  0.18976  0.10498     C
C      0.06683  0.18976  0.89502     C
C      0.06683  0.31024  0.39502     C
C      0.06683  0.31024  0.60498     C
C      0.06683  0.39502  0.31024     C
C      0.06683  0.39502  0.68976     C
C      0.06683  0.60498  0.31024     C
C      0.06683  0.60498  0.68976     C
C      0.06683  0.68976  0.39502     C
C      0.06683  0.68976  0.60498     C
C      0.06683  0.81024  0.10498     C
C      0.06683  0.81024  0.89502     C
C      0.06683  0.89502  0.18976     C
C      0.06683  0.89502  0.81024     C
H       0.0694   0.1326   0.2254     H
H       0.0694   0.1326   0.7746     H
H       0.0694   0.2254   0.1326     H
H       0.0694   0.2254   0.8674     H
H       0.0694   0.2746   0.3674     H
H       0.0694   0.2746   0.6326     H
H       0.0694   0.3674   0.2746     H
H       0.0694   0.3674   0.7254     H
H       0.0694   0.6326   0.2746     H
H       0.0694   0.6326   0.7254     H
H       0.0694   0.7254   0.3674     H
H       0.0694   0.7254   0.6326     H
H       0.0694   0.7746   0.1326     H
H       0.0694   0.7746   0.8674     H
H       0.0694   0.8674   0.2254     H
H       0.0694   0.8674   0.7746     H
H        0.072    0.072   0.1595     H
H        0.072    0.072   0.8405     H
H        0.072   0.1595    0.072     H
H        0.072   0.1595    0.928     H
H        0.072   0.3405    0.428     H
H        0.072   0.3405    0.572     H
H        0.072    0.428   0.3405     H
H        0.072    0.428   0.6595     H
H        0.072    0.572   0.3405     H
H        0.072    0.572   0.6595     H
H        0.072   0.6595    0.428     H
H        0.072   0.6595    0.572     H
H        0.072   0.8405    0.072     H
H        0.072   0.8405    0.928     H
H        0.072    0.928   0.1595     H
H        0.072    0.928   0.8405     H
C      0.07867  0.11638  0.21607     C
C      0.07867  0.11638  0.78393     C
C      0.07867  0.21607  0.11638     C
C      0.07867  0.21607  0.88362     C
C      0.07867  0.28393  0.38362     C
C      0.07867  0.28393  0.61638     C
C      0.07867  0.38362  0.28393     C
C      0.07867  0.38362  0.71607     C
C      0.07867  0.61638  0.28393     C
C      0.07867  0.61638  0.71607     C
C      0.07867  0.71607  0.38362     C
C      0.07867  0.71607  0.61638     C
C      0.07867  0.78393  0.11638     C
C      0.07867  0.78393  0.88362     C
C      0.07867  0.88362  0.21607     C
C      0.07867  0.88362  0.78393     C
C      0.08002  0.08002  0.17697     C
C      0.08002  0.08002  0.82303     C
C      0.08002  0.17697  0.08002     C
C      0.08002  0.17697  0.91998     C
C      0.08002  0.32303  0.41998     C
C      0.08002  0.32303  0.58002     C
C      0.08002  0.41998  0.32303     C
C      0.08002  0.41998  0.67697     C
C      0.08002  0.58002  0.32303     C
C      0.08002  0.58002  0.67697     C
C      0.08002  0.67697  0.41998     C
C      0.08002  0.67697  0.58002     C
C      0.08002  0.82303  0.08002     C
C      0.08002  0.82303  0.91998     C
C      0.08002  0.91998  0.17697     C
C      0.08002  0.91998  0.82303     C
C      0.10395  0.10395   0.2284     C
C      0.10395  0.10395   0.7716     C
C      0.10395   0.2284  0.10395     C
C      0.10395   0.2284  0.89605     C
C      0.10395   0.2716  0.39605     C
C      0.10395   0.2716  0.60395     C
C      0.10395  0.39605   0.2716     C
C      0.10395  0.39605   0.7284     C
C      0.10395  0.60395   0.2716     C
C      0.10395  0.60395   0.7284     C
C      0.10395   0.7284  0.39605     C
C      0.10395   0.7284  0.60395     C
C      0.10395   0.7716  0.10395     C
C      0.10395   0.7716  0.89605     C
C      0.10395  0.89605   0.2284     C
C      0.10395  0.89605   0.7716     C
C      0.10498  0.06683  0.18976     C
C      0.10498  0.06683  0.81024     C
C      0.10498  0.18976  0.06683     C
C      0.10498  0.18976  0.93317     C
C      0.10498  0.31024  0.43317     C
C      0.10498  0.31024  0.56683     C
C      0.10498  0.43317  0.31024     C
C      0.10498  0.43317  0.68976     C
C      0.10498  0.56683  0.31024     C
C      0.10498  0.56683  0.68976     C
C      0.10498  0.68976  0.43317     C
C      0.10498  0.68976  0.56683     C
C      0.10498  0.81024  0.06683     C
C      0.10498  0.81024  0.93317     C
C      0.10498  0.93317  0.18976     C
C      0.10498  0.93317  0.81024     C
N      0.10615  0.14086  0.27017     N
N      0.10615  0.14086  0.72983     N
N      0.10615  0.22983  0.35914     N
N      0.10615  0.22983  0.64086     N
N      0.10615  0.27017  0.14086     N
N      0.10615  0.27017  0.85914     N
N      0.10615  0.35914  0.22983     N
N      0.10615  0.35914  0.77017     N
N      0.10615  0.64086  0.22983     N
N      0.10615  0.64086  0.77017     N
N      0.10615  0.72983  0.14086     N
N      0.10615  0.72983  0.85914     N
N      0.10615  0.77017  0.35914     N
N      0.10615  0.77017  0.64086     N
N      0.10615  0.85914  0.27017     N
N      0.10615  0.85914  0.72983     N
O      0.10798  0.03085  0.15137     O
O      0.10798  0.03085  0.84863     O
O      0.10798  0.15137  0.03085     O
O      0.10798  0.15137  0.96915     O
O      0.10798  0.34863  0.46915     O
O      0.10798  0.34863  0.53085     O
O      0.10798  0.46915  0.34863     O
O      0.10798  0.46915  0.65137     O
O      0.10798  0.53085  0.34863     O
O      0.10798  0.53085  0.65137     O
O      0.10798  0.65137  0.46915     O
O      0.10798  0.65137  0.53085     O
O      0.10798  0.84863  0.03085     O
O      0.10798  0.84863  0.96915     O
O      0.10798  0.96915  0.15137     O
O      0.10798  0.96915  0.84863     O
C      0.11638  0.07867  0.21607     C
C      0.11638  0.07867  0.78393     C
C      0.11638  0.21607  0.07867     C
C      0.11638  0.21607  0.92133     C
C      0.11638  0.28393  0.42133     C
C      0.11638  0.28393  0.57867     C
C      0.11638  0.42133  0.28393     C
C      0.11638  0.42133  0.71607     C
C      0.11638  0.57867  0.28393     C
C      0.11638  0.57867  0.71607     C
C      0.11638  0.71607  0.42133     C
C      0.11638  0.71607  0.57867     C
C      0.11638  0.78393  0.07867     C
C      0.11638  0.78393  0.92133     C
C      0.11638  0.92133  0.21607     C
C      0.11638  0.92133  0.78393     C
C      0.11683  0.11683   0.2568     C
C      0.11683  0.11683   0.7432     C
C      0.11683   0.2432  0.38317     C
C      0.11683   0.2432  0.61683     C
C      0.11683   0.2568  0.11683     C
C      0.11683   0.2568  0.88317     C
C      0.11683  0.38317   0.2432     C
C      0.11683  0.38317   0.7568     C
C      0.11683  0.61683   0.2432     C
C      0.11683  0.61683   0.7568     C
C      0.11683   0.7432  0.11683     C
C      0.11683   0.7432  0.88317     C
C      0.11683   0.7568  0.38317     C
C      0.11683   0.7568  0.61683     C
C      0.11683  0.88317   0.2568     C
C      0.11683  0.88317   0.7432     C
C      0.11995  0.04087  0.17485     C
C      0.11995  0.04087  0.82515     C
C      0.11995  0.17485  0.04087     C
C      0.11995  0.17485  0.95913     C
C      0.11995  0.32515  0.45913     C
C      0.11995  0.32515  0.54087     C
C      0.11995  0.45913  0.32515     C
C      0.11995  0.45913  0.67485     C
C      0.11995  0.54087  0.32515     C
C      0.11995  0.54087  0.67485     C
C      0.11995  0.67485  0.45913     C
C      0.11995  0.67485  0.54087     C
C      0.11995  0.82515  0.04087     C
C      0.11995  0.82515  0.95913     C
C      0.11995  0.95913  0.17485     C
C      0.11995  0.95913  0.82515     C
Cu     0.12286  0.17617  0.32383    Cu
Cu     0.12286  0.17617  0.67617    Cu
Cu     0.12286  0.32383  0.17617    Cu
Cu     0.12286  0.32383  0.82383    Cu
Cu     0.12286  0.67617  0.17617    Cu
Cu     0.12286  0.67617  0.82383    Cu
Cu     0.12286  0.82383  0.32383    Cu
Cu     0.12286  0.82383  0.67617    Cu
N      0.12482  0.14507  0.29264     N
N      0.12482  0.14507  0.70736     N
N      0.12482  0.20736  0.35493     N
N      0.12482  0.20736  0.64507     N
N      0.12482  0.29264  0.14507     N
N      0.12482  0.29264  0.85493     N
N      0.12482  0.35493  0.20736     N
N      0.12482  0.35493  0.79264     N
N      0.12482  0.64507  0.20736     N
N      0.12482  0.64507  0.79264     N
N      0.12482  0.70736  0.14507     N
N      0.12482  0.70736  0.85493     N
N      0.12482  0.79264  0.35493     N
N      0.12482  0.79264  0.64507     N
N      0.12482  0.85493  0.29264     N
N      0.12482  0.85493  0.70736     N
Cu     0.12647      0.0  0.12647    Cu
Cu     0.12647      0.0  0.87353    Cu
Cu     0.12647  0.12647      0.0    Cu
Cu     0.12647  0.37353      0.5    Cu
Cu     0.12647      0.5  0.37353    Cu
Cu     0.12647      0.5  0.62647    Cu
Cu     0.12647  0.62647      0.5    Cu
Cu     0.12647  0.87353      0.0    Cu
H       0.1326   0.0694   0.2254     H
H       0.1326   0.0694   0.7746     H
H       0.1326   0.2254   0.0694     H
H       0.1326   0.2254   0.9306     H
H       0.1326   0.2746   0.4306     H
H       0.1326   0.2746   0.5694     H
H       0.1326   0.4306   0.2746     H
H       0.1326   0.4306   0.7254     H
H       0.1326   0.5694   0.2746     H
H       0.1326   0.5694   0.7254     H
H       0.1326   0.7254   0.4306     H
H       0.1326   0.7254   0.5694     H
H       0.1326   0.7746   0.0694     H
H       0.1326   0.7746   0.9306     H
H       0.1326   0.9306   0.2254     H
H       0.1326   0.9306   0.7746     H
N      0.14086  0.10615  0.27017     N
N      0.14086  0.10615  0.72983     N
N      0.14086  0.22983  0.39385     N
N      0.14086  0.22983  0.60615     N
N      0.14086  0.27017  0.10615     N
N      0.14086  0.27017  0.89385     N
N      0.14086  0.39385  0.22983     N
N      0.14086  0.39385  0.77017     N
N      0.14086  0.60615  0.22983     N
N      0.14086  0.60615  0.77017     N
N      0.14086  0.72983  0.10615     N
N      0.14086  0.72983  0.89385     N
N      0.14086  0.77017  0.39385     N
N      0.14086  0.77017  0.60615     N
N      0.14086  0.89385  0.27017     N
N      0.14086  0.89385  0.72983     N
O      0.14347  0.03088  0.18687     O
O      0.14347  0.03088  0.81313     O
O      0.14347  0.18687  0.03088     O
O      0.14347  0.18687  0.96912     O
O      0.14347  0.31313  0.46912     O
O      0.14347  0.31313  0.53088     O
O      0.14347  0.46912  0.31313     O
O      0.14347  0.46912  0.68687     O
O      0.14347  0.53088  0.31313     O
O      0.14347  0.53088  0.68687     O
O      0.14347  0.68687  0.46912     O
O      0.14347  0.68687  0.53088     O
O      0.14347  0.81313  0.03088     O
O      0.14347  0.81313  0.96912     O
O      0.14347  0.96912  0.18687     O
O      0.14347  0.96912  0.81313     O
N      0.14507  0.12482  0.29264     N
N      0.14507  0.12482  0.70736     N
N      0.14507  0.20736  0.37518     N
N      0.14507  0.20736  0.62482     N
N      0.14507  0.29264  0.12482     N
N      0.14507  0.29264  0.87518     N
N      0.14507  0.37518  0.20736     N
N      0.14507  0.37518  0.79264     N
N      0.14507  0.62482  0.20736     N
N      0.14507  0.62482  0.79264     N
N      0.14507  0.70736  0.12482     N
N      0.14507  0.70736  0.87518     N
N      0.14507  0.79264  0.37518     N
N      0.14507  0.79264  0.62482     N
N      0.14507  0.87518  0.29264     N
N      0.14507  0.87518  0.70736     N
O      0.15137  0.03085  0.10798     O
O      0.15137  0.03085  0.89202     O
O      0.15137  0.10798  0.03085     O
O      0.15137  0.10798  0.96915     O
O      0.15137  0.39202  0.46915     O
O      0.15137  0.39202  0.53085     O
O      0.15137  0.46915  0.39202     O
O      0.15137  0.46915  0.60798     O
O      0.15137  0.53085  0.39202     O
O      0.15137  0.53085  0.60798     O
O      0.15137  0.60798  0.46915     O
O      0.15137  0.60798  0.53085     O
O      0.15137  0.89202  0.03085     O
O      0.15137  0.89202  0.96915     O
O      0.15137  0.96915  0.10798     O
O      0.15137  0.96915  0.89202     O
H       0.1595    0.072    0.072     H
H       0.1595    0.072    0.928     H
H       0.1595    0.428    0.428     H
H       0.1595    0.428    0.572     H
H       0.1595    0.572    0.428     H
H       0.1595    0.572    0.572     H
H       0.1595    0.928    0.072     H
H       0.1595    0.928    0.928     H
O      0.16519  0.16519  0.33481     O
O      0.16519  0.16519  0.66519     O
O      0.16519  0.33481  0.16519     O
O      0.16519  0.33481  0.83481     O
O      0.16519  0.66519  0.16519     O
O      0.16519  0.66519  0.83481     O
O      0.16519  0.83481  0.33481     O
O      0.16519  0.83481  0.66519     O
Cu     0.16838      0.0  0.16838    Cu
Cu     0.16838      0.0  0.83162    Cu
Cu     0.16838  0.16838      0.0    Cu
Cu     0.16838  0.33162      0.5    Cu
Cu     0.16838      0.5  0.33162    Cu
Cu     0.16838      0.5  0.66838    Cu
Cu     0.16838  0.66838      0.5    Cu
Cu     0.16838  0.83162      0.0    Cu
C      0.17485  0.04087  0.11995     C
C      0.17485  0.04087  0.88005     C
C      0.17485  0.11995  0.04087     C
C      0.17485  0.11995  0.95913     C
C      0.17485  0.38005  0.45913     C
C      0.17485  0.38005  0.54087     C
C      0.17485  0.45913  0.38005     C
C      0.17485  0.45913  0.61995     C
C      0.17485  0.54087  0.38005     C
C      0.17485  0.54087  0.61995     C
C      0.17485  0.61995  0.45913     C
C      0.17485  0.61995  0.54087     C
C      0.17485  0.88005  0.04087     C
C      0.17485  0.88005  0.95913     C
C      0.17485  0.95913  0.11995     C
C      0.17485  0.95913  0.88005     C
Cu     0.17617  0.12286  0.32383    Cu
Cu     0.17617  0.12286  0.67617    Cu
Cu     0.17617  0.17617  0.37714    Cu
Cu     0.17617  0.17617  0.62286    Cu
Cu     0.17617  0.32383  0.12286    Cu
Cu     0.17617  0.32383  0.87714    Cu
Cu     0.17617  0.37714  0.17617    Cu
Cu     0.17617  0.37714  0.82383    Cu
Cu     0.17617  0.62286  0.17617    Cu
Cu     0.17617  0.62286  0.82383    Cu
Cu     0.17617  0.67617  0.12286    Cu
Cu     0.17617  0.67617  0.87714    Cu
Cu     0.17617  0.82383  0.37714    Cu
Cu     0.17617  0.82383  0.62286    Cu
Cu     0.17617  0.87714  0.32383    Cu
Cu     0.17617  0.87714  0.67617    Cu
C      0.17697  0.08002  0.08002     C
C      0.17697  0.08002  0.91998     C
C      0.17697  0.41998  0.41998     C
C      0.17697  0.41998  0.58002     C
C      0.17697  0.58002  0.41998     C
C      0.17697  0.58002  0.58002     C
C      0.17697  0.91998  0.08002     C
C      0.17697  0.91998  0.91998     C
O      0.18687  0.03088  0.14347     O
O      0.18687  0.03088  0.85653     O
O      0.18687  0.14347  0.03088     O
O      0.18687  0.14347  0.96912     O
O      0.18687  0.35653  0.46912     O
O      0.18687  0.35653  0.53088     O
O      0.18687  0.46912  0.35653     O
O      0.18687  0.46912  0.64347     O
O      0.18687  0.53088  0.35653     O
O      0.18687  0.53088  0.64347     O
O      0.18687  0.64347  0.46912     O
O      0.18687  0.64347  0.53088     O
O      0.18687  0.85653  0.03088     O
O      0.18687  0.85653  0.96912     O
O      0.18687  0.96912  0.14347     O
O      0.18687  0.96912  0.85653     O
C      0.18976  0.06683  0.10498     C
C      0.18976  0.06683  0.89502     C
C      0.18976  0.10498  0.06683     C
C      0.18976  0.10498  0.93317     C
C      0.18976  0.39502  0.43317     C
C      0.18976  0.39502  0.56683     C
C      0.18976  0.43317  0.39502     C
C      0.18976  0.43317  0.60498     C
C      0.18976  0.56683  0.39502     C
C      0.18976  0.56683  0.60498     C
C      0.18976  0.60498  0.43317     C
C      0.18976  0.60498  0.56683     C
C      0.18976  0.89502  0.06683     C
C      0.18976  0.89502  0.93317     C
C      0.18976  0.93317  0.10498     C
C      0.18976  0.93317  0.89502     C
N      0.20736  0.12482  0.35493     N
N      0.20736  0.12482  0.64507     N
N      0.20736  0.14507  0.37518     N
N      0.20736  0.14507  0.62482     N
N      0.20736  0.35493  0.12482     N
N      0.20736  0.35493  0.87518     N
N      0.20736  0.37518  0.14507     N
N      0.20736  0.37518  0.85493     N
N      0.20736  0.62482  0.14507     N
N      0.20736  0.62482  0.85493     N
N      0.20736  0.64507  0.12482     N
N      0.20736  0.64507  0.87518     N
N      0.20736  0.85493  0.37518     N
N      0.20736  0.85493  0.62482     N
N      0.20736  0.87518  0.35493     N
N      0.20736  0.87518  0.64507     N
C      0.21607  0.07867  0.11638     C
C      0.21607  0.07867  0.88362     C
C      0.21607  0.11638  0.07867     C
C      0.21607  0.11638  0.92133     C
C      0.21607  0.38362  0.42133     C
C      0.21607  0.38362  0.57867     C
C      0.21607  0.42133  0.38362     C
C      0.21607  0.42133  0.61638     C
C      0.21607  0.57867  0.38362     C
C      0.21607  0.57867  0.61638     C
C      0.21607  0.61638  0.42133     C
C      0.21607  0.61638  0.57867     C
C      0.21607  0.88362  0.07867     C
C      0.21607  0.88362  0.92133     C
C      0.21607  0.92133  0.11638     C
C      0.21607  0.92133  0.88362     C
H       0.2254   0.0694   0.1326     H
H       0.2254   0.0694   0.8674     H
H       0.2254   0.1326   0.0694     H
H       0.2254   0.1326   0.9306     H
H       0.2254   0.3674   0.4306     H
H       0.2254   0.3674   0.5694     H
H       0.2254   0.4306   0.3674     H
H       0.2254   0.4306   0.6326     H
H       0.2254   0.5694   0.3674     H
H       0.2254   0.5694   0.6326     H
H       0.2254   0.6326   0.4306     H
H       0.2254   0.6326   0.5694     H
H       0.2254   0.8674   0.0694     H
H       0.2254   0.8674   0.9306     H
H       0.2254   0.9306   0.1326     H
H       0.2254   0.9306   0.8674     H
C       0.2284  0.10395  0.10395     C
C       0.2284  0.10395  0.89605     C
C       0.2284  0.39605  0.39605     C
C       0.2284  0.39605  0.60395     C
C       0.2284  0.60395  0.39605     C
C       0.2284  0.60395  0.60395     C
C       0.2284  0.89605  0.10395     C
C       0.2284  0.89605  0.89605     C
N      0.22983  0.10615  0.35914     N
N      0.22983  0.10615  0.64086     N
N      0.22983  0.14086  0.39385     N
N      0.22983  0.14086  0.60615     N
N      0.22983  0.35914  0.10615     N
N      0.22983  0.35914  0.89385     N
N      0.22983  0.39385  0.14086     N
N      0.22983  0.39385  0.85914     N
N      0.22983  0.60615  0.14086     N
N      0.22983  0.60615  0.85914     N
N      0.22983  0.64086  0.10615     N
N      0.22983  0.64086  0.89385     N
N      0.22983  0.85914  0.39385     N
N      0.22983  0.85914  0.60615     N
N      0.22983  0.89385  0.35914     N
N      0.22983  0.89385  0.64086     N
C       0.2432  0.11683  0.38317     C
C       0.2432  0.11683  0.61683     C
C       0.2432  0.38317  0.11683     C
C       0.2432  0.38317  0.88317     C
C       0.2432  0.61683  0.11683     C
C       0.2432  0.61683  0.88317     C
C       0.2432  0.88317  0.38317     C
C       0.2432  0.88317  0.61683     C
C       0.2568  0.11683  0.11683     C
C       0.2568  0.11683  0.88317     C
C       0.2568  0.38317  0.38317     C
C       0.2568  0.38317  0.61683     C
C       0.2568  0.61683  0.38317     C
C       0.2568  0.61683  0.61683     C
C       0.2568  0.88317  0.11683     C
C       0.2568  0.88317  0.88317     C
N      0.27017  0.10615  0.14086     N
N      0.27017  0.10615  0.85914     N
N      0.27017  0.14086  0.10615     N
N      0.27017  0.14086  0.89385     N
N      0.27017  0.35914  0.39385     N
N      0.27017  0.35914  0.60615     N
N      0.27017  0.39385  0.35914     N
N      0.27017  0.39385  0.64086     N
N      0.27017  0.60615  0.35914     N
N      0.27017  0.60615  0.64086     N
N      0.27017  0.64086  0.39385     N
N      0.27017  0.64086  0.60615     N
N      0.27017  0.85914  0.10615     N
N      0.27017  0.85914  0.89385     N
N      0.27017  0.89385  0.14086     N
N      0.27017  0.89385  0.85914     N
C       0.2716  0.10395  0.39605     C
C       0.2716  0.10395  0.60395     C
C       0.2716  0.39605  0.10395     C
C       0.2716  0.39605  0.89605     C
C       0.2716  0.60395  0.10395     C
C       0.2716  0.60395  0.89605     C
C       0.2716  0.89605  0.39605     C
C       0.2716  0.89605  0.60395     C
H       0.2746   0.0694   0.3674     H
H       0.2746   0.0694   0.6326     H
H       0.2746   0.1326   0.4306     H
H       0.2746   0.1326   0.5694     H
H       0.2746   0.3674   0.0694     H
H       0.2746   0.3674   0.9306     H
H       0.2746   0.4306   0.1326     H
H       0.2746   0.4306   0.8674     H
H       0.2746   0.5694   0.1326     H
H       0.2746   0.5694   0.8674     H
H       0.2746   0.6326   0.0694     H
H       0.2746   0.6326   0.9306     H
H       0.2746   0.8674   0.4306     H
H       0.2746   0.8674   0.5694     H
H       0.2746   0.9306   0.3674     H
H       0.2746   0.9306   0.6326     H
C      0.28393  0.07867  0.38362     C
C      0.28393  0.07867  0.61638     C
C      0.28393  0.11638  0.42133     C
C      0.28393  0.11638  0.57867     C
C      0.28393  0.38362  0.07867     C
C      0.28393  0.38362  0.92133     C
C      0.28393  0.42133  0.11638     C
C      0.28393  0.42133  0.88362     C
C      0.28393  0.57867  0.11638     C
C      0.28393  0.57867  0.88362     C
C      0.28393  0.61638  0.07867     C
C      0.28393  0.61638  0.92133     C
C      0.28393  0.88362  0.42133     C
C      0.28393  0.88362  0.57867     C
C      0.28393  0.92133  0.38362     C
C      0.28393  0.92133  0.61638     C
N      0.29264  0.12482  0.14507     N
N      0.29264  0.12482  0.85493     N
N      0.29264  0.14507  0.12482     N
N      0.29264  0.14507  0.87518     N
N      0.29264  0.35493  0.37518     N
N      0.29264  0.35493  0.62482     N
N      0.29264  0.37518  0.35493     N
N      0.29264  0.37518  0.64507     N
N      0.29264  0.62482  0.35493     N
N      0.29264  0.62482  0.64507     N
N      0.29264  0.64507  0.37518     N
N      0.29264  0.64507  0.62482     N
N      0.29264  0.85493  0.12482     N
N      0.29264  0.85493  0.87518     N
N      0.29264  0.87518  0.14507     N
N      0.29264  0.87518  0.85493     N
C      0.31024  0.06683  0.39502     C
C      0.31024  0.06683  0.60498     C
C      0.31024  0.10498  0.43317     C
C      0.31024  0.10498  0.56683     C
C      0.31024  0.39502  0.06683     C
C      0.31024  0.39502  0.93317     C
C      0.31024  0.43317  0.10498     C
C      0.31024  0.43317  0.89502     C
C      0.31024  0.56683  0.10498     C
C      0.31024  0.56683  0.89502     C
C      0.31024  0.60498  0.06683     C
C      0.31024  0.60498  0.93317     C
C      0.31024  0.89502  0.43317     C
C      0.31024  0.89502  0.56683     C
C      0.31024  0.93317  0.39502     C
C      0.31024  0.93317  0.60498     C
O      0.31313  0.03088  0.35653     O
O      0.31313  0.03088  0.64347     O
O      0.31313  0.14347  0.46912     O
O      0.31313  0.14347  0.53088     O
O      0.31313  0.35653  0.03088     O
O      0.31313  0.35653  0.96912     O
O      0.31313  0.46912  0.14347     O
O      0.31313  0.46912  0.85653     O
O      0.31313  0.53088  0.14347     O
O      0.31313  0.53088  0.85653     O
O      0.31313  0.64347  0.03088     O
O      0.31313  0.64347  0.96912     O
O      0.31313  0.85653  0.46912     O
O      0.31313  0.85653  0.53088     O
O      0.31313  0.96912  0.35653     O
O      0.31313  0.96912  0.64347     O
C      0.32303  0.08002  0.41998     C
C      0.32303  0.08002  0.58002     C
C      0.32303  0.41998  0.08002     C
C      0.32303  0.41998  0.91998     C
C      0.32303  0.58002  0.08002     C
C      0.32303  0.58002  0.91998     C
C      0.32303  0.91998  0.41998     C
C      0.32303  0.91998  0.58002     C
Cu     0.32383  0.12286  0.17617    Cu
Cu     0.32383  0.12286  0.82383    Cu
Cu     0.32383  0.17617  0.12286    Cu
Cu     0.32383  0.17617  0.87714    Cu
Cu     0.32383  0.32383  0.37714    Cu
Cu     0.32383  0.32383  0.62286    Cu
Cu     0.32383  0.37714  0.32383    Cu
Cu     0.32383  0.37714  0.67617    Cu
Cu     0.32383  0.62286  0.32383    Cu
Cu     0.32383  0.62286  0.67617    Cu
Cu     0.32383  0.67617  0.37714    Cu
Cu     0.32383  0.67617  0.62286    Cu
Cu     0.32383  0.82383  0.12286    Cu
Cu     0.32383  0.82383  0.87714    Cu
Cu     0.32383  0.87714  0.17617    Cu
Cu     0.32383  0.87714  0.82383    Cu
C      0.32515  0.04087  0.38005     C
C      0.32515  0.04087  0.61995     C
C      0.32515  0.11995  0.45913     C
C      0.32515  0.11995  0.54087     C
C      0.32515  0.38005  0.04087     C
C      0.32515  0.38005  0.95913     C
C      0.32515  0.45913  0.11995     C
C      0.32515  0.45913  0.88005     C
C      0.32515  0.54087  0.11995     C
C      0.32515  0.54087  0.88005     C
C      0.32515  0.61995  0.04087     C
C      0.32515  0.61995  0.95913     C
C      0.32515  0.88005  0.45913     C
C      0.32515  0.88005  0.54087     C
C      0.32515  0.95913  0.38005     C
C      0.32515  0.95913  0.61995     C
Cu     0.33162      0.0  0.33162    Cu
Cu     0.33162      0.0  0.66838    Cu
Cu     0.33162  0.16838      0.5    Cu
Cu     0.33162  0.33162      0.0    Cu
Cu     0.33162      0.5  0.16838    Cu
Cu     0.33162      0.5  0.83162    Cu
Cu     0.33162  0.66838      0.0    Cu
Cu     0.33162  0.83162      0.5    Cu
O      0.33481  0.16519  0.16519     O
O      0.33481  0.16519  0.83481     O
O      0.33481  0.33481  0.33481     O
O      0.33481  0.33481  0.66519     O
O      0.33481  0.66519  0.33481     O
O      0.33481  0.66519  0.66519     O
O      0.33481  0.83481  0.16519     O
O      0.33481  0.83481  0.83481     O
H       0.3405    0.072    0.428     H
H       0.3405    0.072    0.572     H
H       0.3405    0.428    0.072     H
H       0.3405    0.428    0.928     H
H       0.3405    0.572    0.072     H
H       0.3405    0.572    0.928     H
H       0.3405    0.928    0.428     H
H       0.3405    0.928    0.572     H
O      0.34863  0.03085  0.39202     O
O      0.34863  0.03085  0.60798     O
O      0.34863  0.10798  0.46915     O
O      0.34863  0.10798  0.53085     O
O      0.34863  0.39202  0.03085     O
O      0.34863  0.39202  0.96915     O
O      0.34863  0.46915  0.10798     O
O      0.34863  0.46915  0.89202     O
O      0.34863  0.53085  0.10798     O
O      0.34863  0.53085  0.89202     O
O      0.34863  0.60798  0.03085     O
O      0.34863  0.60798  0.96915     O
O      0.34863  0.89202  0.46915     O
O      0.34863  0.89202  0.53085     O
O      0.34863  0.96915  0.39202     O
O      0.34863  0.96915  0.60798     O
N      0.35493  0.12482  0.20736     N
N      0.35493  0.12482  0.79264     N
N      0.35493  0.20736  0.12482     N
N      0.35493  0.20736  0.87518     N
N      0.35493  0.29264  0.37518     N
N      0.35493  0.29264  0.62482     N
N      0.35493  0.37518  0.29264     N
N      0.35493  0.37518  0.70736     N
N      0.35493  0.62482  0.29264     N
N      0.35493  0.62482  0.70736     N
N      0.35493  0.70736  0.37518     N
N      0.35493  0.70736  0.62482     N
N      0.35493  0.79264  0.12482     N
N      0.35493  0.79264  0.87518     N
N      0.35493  0.87518  0.20736     N
N      0.35493  0.87518  0.79264     N
O      0.35653  0.03088  0.31313     O
O      0.35653  0.03088  0.68687     O
O      0.35653  0.18687  0.46912     O
O      0.35653  0.18687  0.53088     O
O      0.35653  0.31313  0.03088     O
O      0.35653  0.31313  0.96912     O
O      0.35653  0.46912  0.18687     O
O      0.35653  0.46912  0.81313     O
O      0.35653  0.53088  0.18687     O
O      0.35653  0.53088  0.81313     O
O      0.35653  0.68687  0.03088     O
O      0.35653  0.68687  0.96912     O
O      0.35653  0.81313  0.46912     O
O      0.35653  0.81313  0.53088     O
O      0.35653  0.96912  0.31313     O
O      0.35653  0.96912  0.68687     O
N      0.35914  0.10615  0.22983     N
N      0.35914  0.10615  0.77017     N
N      0.35914  0.22983  0.10615     N
N      0.35914  0.22983  0.89385     N
N      0.35914  0.27017  0.39385     N
N      0.35914  0.27017  0.60615     N
N      0.35914  0.39385  0.27017     N
N      0.35914  0.39385  0.72983     N
N      0.35914  0.60615  0.27017     N
N      0.35914  0.60615  0.72983     N
N      0.35914  0.72983  0.39385     N
N      0.35914  0.72983  0.60615     N
N      0.35914  0.77017  0.10615     N
N      0.35914  0.77017  0.89385     N
N      0.35914  0.89385  0.22983     N
N      0.35914  0.89385  0.77017     N
H       0.3674   0.0694   0.2746     H
H       0.3674   0.0694   0.7254     H
H       0.3674   0.2254   0.4306     H
H       0.3674   0.2254   0.5694     H
H       0.3674   0.2746   0.0694     H
H       0.3674   0.2746   0.9306     H
H       0.3674   0.4306   0.2254     H
H       0.3674   0.4306   0.7746     H
H       0.3674   0.5694   0.2254     H
H       0.3674   0.5694   0.7746     H
H       0.3674   0.7254   0.0694     H
H       0.3674   0.7254   0.9306     H
H       0.3674   0.7746   0.4306     H
H       0.3674   0.7746   0.5694     H
H       0.3674   0.9306   0.2746     H
H       0.3674   0.9306   0.7254     H
Cu     0.37353      0.0  0.37353    Cu
Cu     0.37353      0.0  0.62647    Cu
Cu     0.37353  0.12647      0.5    Cu
Cu     0.37353  0.37353      0.0    Cu
Cu     0.37353      0.5  0.12647    Cu
Cu     0.37353      0.5  0.87353    Cu
Cu     0.37353  0.62647      0.0    Cu
Cu     0.37353  0.87353      0.5    Cu
N      0.37518  0.14507  0.20736     N
N      0.37518  0.14507  0.79264     N
N      0.37518  0.20736  0.14507     N
N      0.37518  0.20736  0.85493     N
N      0.37518  0.29264  0.35493     N
N      0.37518  0.29264  0.64507     N
N      0.37518  0.35493  0.29264     N
N      0.37518  0.35493  0.70736     N
N      0.37518  0.64507  0.29264     N
N      0.37518  0.64507  0.70736     N
N      0.37518  0.70736  0.35493     N
N      0.37518  0.70736  0.64507     N
N      0.37518  0.79264  0.14507     N
N      0.37518  0.79264  0.85493     N
N      0.37518  0.85493  0.20736     N
N      0.37518  0.85493  0.79264     N
Cu     0.37714  0.17617  0.17617    Cu
Cu     0.37714  0.17617  0.82383    Cu
Cu     0.37714  0.32383  0.32383    Cu
Cu     0.37714  0.32383  0.67617    Cu
Cu     0.37714  0.67617  0.32383    Cu
Cu     0.37714  0.67617  0.67617    Cu
Cu     0.37714  0.82383  0.17617    Cu
Cu     0.37714  0.82383  0.82383    Cu
C      0.38005  0.04087  0.32515     C
C      0.38005  0.04087  0.67485     C
C      0.38005  0.17485  0.45913     C
C      0.38005  0.17485  0.54087     C
C      0.38005  0.32515  0.04087     C
C      0.38005  0.32515  0.95913     C
C      0.38005  0.45913  0.17485     C
C      0.38005  0.45913  0.82515     C
C      0.38005  0.54087  0.17485     C
C      0.38005  0.54087  0.82515     C
C      0.38005  0.67485  0.04087     C
C      0.38005  0.67485  0.95913     C
C      0.38005  0.82515  0.45913     C
C      0.38005  0.82515  0.54087     C
C      0.38005  0.95913  0.32515     C
C      0.38005  0.95913  0.67485     C
C      0.38317  0.11683   0.2432     C
C      0.38317  0.11683   0.7568     C
C      0.38317   0.2432  0.11683     C
C      0.38317   0.2432  0.88317     C
C      0.38317   0.2568  0.38317     C
C      0.38317   0.2568  0.61683     C
C      0.38317  0.38317   0.2568     C
C      0.38317  0.38317   0.7432     C
C      0.38317  0.61683   0.2568     C
C      0.38317  0.61683   0.7432     C
C      0.38317   0.7432  0.38317     C
C      0.38317   0.7432  0.61683     C
C      0.38317   0.7568  0.11683     C
C      0.38317   0.7568  0.88317     C
C      0.38317  0.88317   0.2432     C
C      0.38317  0.88317   0.7568     C
C      0.38362  0.07867  0.28393     C
C      0.38362  0.07867  0.71607     C
C      0.38362  0.21607  0.42133     C
C      0.38362  0.21607  0.57867     C
C      0.38362  0.28393  0.07867     C
C      0.38362  0.28393  0.92133     C
C      0.38362  0.42133  0.21607     C
C      0.38362  0.42133  0.78393     C
C      0.38362  0.57867  0.21607     C
C      0.38362  0.57867  0.78393     C
C      0.38362  0.71607  0.07867     C
C      0.38362  0.71607  0.92133     C
C      0.38362  0.78393  0.42133     C
C      0.38362  0.78393  0.57867     C
C      0.38362  0.92133  0.28393     C
C      0.38362  0.92133  0.71607     C
O      0.39202  0.03085  0.34863     O
O      0.39202  0.03085  0.65137     O
O      0.39202  0.15137  0.46915     O
O      0.39202  0.15137  0.53085     O
O      0.39202  0.34863  0.03085     O
O      0.39202  0.34863  0.96915     O
O      0.39202  0.46915  0.15137     O
O      0.39202  0.46915  0.84863     O
O      0.39202  0.53085  0.15137     O
O      0.39202  0.53085  0.84863     O
O      0.39202  0.65137  0.03085     O
O      0.39202  0.65137  0.96915     O
O      0.39202  0.84863  0.46915     O
O      0.39202  0.84863  0.53085     O
O      0.39202  0.96915  0.34863     O
O      0.39202  0.96915  0.65137     O
N      0.39385  0.14086  0.22983     N
N      0.39385  0.14086  0.77017     N
N      0.39385  0.22983  0.14086     N
N      0.39385  0.22983  0.85914     N
N      0.39385  0.27017  0.35914     N
N      0.39385  0.27017  0.64086     N
N      0.39385  0.35914  0.27017     N
N      0.39385  0.35914  0.72983     N
N      0.39385  0.64086  0.27017     N
N      0.39385  0.64086  0.72983     N
N      0.39385  0.72983  0.35914     N
N      0.39385  0.72983  0.64086     N
N      0.39385  0.77017  0.14086     N
N      0.39385  0.77017  0.85914     N
N      0.39385  0.85914  0.22983     N
N      0.39385  0.85914  0.77017     N
C      0.39502  0.06683  0.31024     C
C      0.39502  0.06683  0.68976     C
C      0.39502  0.18976  0.43317     C
C      0.39502  0.18976  0.56683     C
C      0.39502  0.31024  0.06683     C
C      0.39502  0.31024  0.93317     C
C      0.39502  0.43317  0.18976     C
C      0.39502  0.43317  0.81024     C
C      0.39502  0.56683  0.18976     C
C      0.39502  0.56683  0.81024     C
C      0.39502  0.68976  0.06683     C
C      0.39502  0.68976  0.93317     C
C      0.39502  0.81024  0.43317     C
C      0.39502  0.81024  0.56683     C
C      0.39502  0.93317  0.31024     C
C      0.39502  0.93317  0.68976     C
C      0.39605  0.10395   0.2716     C
C      0.39605  0.10395   0.7284     C
C      0.39605   0.2284  0.39605     C
C      0.39605   0.2284  0.60395     C
C      0.39605   0.2716  0.10395     C
C      0.39605   0.2716  0.89605     C
C      0.39605  0.39605   0.2284     C
C      0.39605  0.39605   0.7716     C
C      0.39605  0.60395   0.2284     C
C      0.39605  0.60395   0.7716     C
C      0.39605   0.7284  0.10395     C
C      0.39605   0.7284  0.89605     C
C      0.39605   0.7716  0.39605     C
C      0.39605   0.7716  0.60395     C
C      0.39605  0.89605   0.2716     C
C      0.39605  0.89605   0.7284     C
C      0.41998  0.08002  0.32303     C
C      0.41998  0.08002  0.67697     C
C      0.41998  0.17697  0.41998     C
C      0.41998  0.17697  0.58002     C
C      0.41998  0.32303  0.08002     C
C      0.41998  0.32303  0.91998     C
C      0.41998  0.41998  0.17697     C
C      0.41998  0.41998  0.82303     C
C      0.41998  0.58002  0.17697     C
C      0.41998  0.58002  0.82303     C
C      0.41998  0.67697  0.08002     C
C      0.41998  0.67697  0.91998     C
C      0.41998  0.82303  0.41998     C
C      0.41998  0.82303  0.58002     C
C      0.41998  0.91998  0.32303     C
C      0.41998  0.91998  0.67697     C
C      0.42133  0.11638  0.28393     C
C      0.42133  0.11638  0.71607     C
C      0.42133  0.21607  0.38362     C
C      0.42133  0.21607  0.61638     C
C      0.42133  0.28393  0.11638     C
C      0.42133  0.28393  0.88362     C
C      0.42133  0.38362  0.21607     C
C      0.42133  0.38362  0.78393     C
C      0.42133  0.61638  0.21607     C
C      0.42133  0.61638  0.78393     C
C      0.42133  0.71607  0.11638     C
C      0.42133  0.71607  0.88362     C
C      0.42133  0.78393  0.38362     C
C      0.42133  0.78393  0.61638     C
C      0.42133  0.88362  0.28393     C
C      0.42133  0.88362  0.71607     C
H        0.428    0.072   0.3405     H
H        0.428    0.072   0.6595     H
H        0.428   0.1595    0.428     H
H        0.428   0.1595    0.572     H
H        0.428   0.3405    0.072     H
H        0.428   0.3405    0.928     H
H        0.428    0.428   0.1595     H
H        0.428    0.428   0.8405     H
H        0.428    0.572   0.1595     H
H        0.428    0.572   0.8405     H
H        0.428   0.6595    0.072     H
H        0.428   0.6595    0.928     H
H        0.428   0.8405    0.428     H
H        0.428   0.8405    0.572     H
H        0.428    0.928   0.3405     H
H        0.428    0.928   0.6595     H
H       0.4306   0.1326   0.2746     H
H       0.4306   0.1326   0.7254     H
H       0.4306   0.2254   0.3674     H
H       0.4306   0.2254   0.6326     H
H       0.4306   0.2746   0.1326     H
H       0.4306   0.2746   0.8674     H
H       0.4306   0.3674   0.2254     H
H       0.4306   0.3674   0.7746     H
H       0.4306   0.6326   0.2254     H
H       0.4306   0.6326   0.7746     H
H       0.4306   0.7254   0.1326     H
H       0.4306   0.7254   0.8674     H
H       0.4306   0.7746   0.3674     H
H       0.4306   0.7746   0.6326     H
H       0.4306   0.8674   0.2746     H
H       0.4306   0.8674   0.7254     H
C      0.43317  0.10498  0.31024     C
C      0.43317  0.10498  0.68976     C
C      0.43317  0.18976  0.39502     C
C      0.43317  0.18976  0.60498     C
C      0.43317  0.31024  0.10498     C
C      0.43317  0.31024  0.89502     C
C      0.43317  0.39502  0.18976     C
C      0.43317  0.39502  0.81024     C
C      0.43317  0.60498  0.18976     C
C      0.43317  0.60498  0.81024     C
C      0.43317  0.68976  0.10498     C
C      0.43317  0.68976  0.89502     C
C      0.43317  0.81024  0.39502     C
C      0.43317  0.81024  0.60498     C
C      0.43317  0.89502  0.31024     C
C      0.43317  0.89502  0.68976     C
C      0.45913  0.11995  0.32515     C
C      0.45913  0.11995  0.67485     C
C      0.45913  0.17485  0.38005     C
C      0.45913  0.17485  0.61995     C
C      0.45913  0.32515  0.11995     C
C      0.45913  0.32515  0.88005     C
C      0.45913  0.38005  0.17485     C
C      0.45913  0.38005  0.82515     C
C      0.45913  0.61995  0.17485     C
C      0.45913  0.61995  0.82515     C
C      0.45913  0.67485  0.11995     C
C      0.45913  0.67485  0.88005     C
C      0.45913  0.82515  0.38005     C
C      0.45913  0.82515  0.61995     C
C      0.45913  0.88005  0.32515     C
C      0.45913  0.88005  0.67485     C
O      0.46912  0.14347  0.31313     O
O      0.46912  0.14347  0.68687     O
O      0.46912  0.18687  0.35653     O
O      0.46912  0.18687  0.64347     O
O      0.46912  0.31313  0.14347     O
O      0.46912  0.31313  0.85653     O
O      0.46912  0.35653  0.18687     O
O      0.46912  0.35653  0.81313     O
O      0.46912  0.64347  0.18687     O
O      0.46912  0.64347  0.81313     O
O      0.46912  0.68687  0.14347     O
O      0.46912  0.68687  0.85653     O
O      0.46912  0.81313  0.35653     O
O      0.46912  0.81313  0.64347     O
O      0.46912  0.85653  0.31313     O
O      0.46912  0.85653  0.68687     O
O      0.46915  0.10798  0.34863     O
O      0.46915  0.10798  0.65137     O
O      0.46915  0.15137  0.39202     O
O      0.46915  0.15137  0.60798     O
O      0.46915  0.34863  0.10798     O
O      0.46915  0.34863  0.89202     O
O      0.46915  0.39202  0.15137     O
O      0.46915  0.39202  0.84863     O
O      0.46915  0.60798  0.15137     O
O      0.46915  0.60798  0.84863     O
O      0.46915  0.65137  0.10798     O
O      0.46915  0.65137  0.89202     O
O      0.46915  0.84863  0.39202     O
O      0.46915  0.84863  0.60798     O
O      0.46915  0.89202  0.34863     O
O      0.46915  0.89202  0.65137     O
Cu         0.5  0.12647  0.37353    Cu
Cu         0.5  0.12647  0.62647    Cu
Cu         0.5  0.16838  0.33162    Cu
Cu         0.5  0.16838  0.66838    Cu
Cu         0.5  0.33162  0.16838    Cu
Cu         0.5  0.33162  0.83162    Cu
Cu         0.5  0.37353  0.12647    Cu
Cu         0.5  0.37353  0.87353    Cu
Cu         0.5  0.62647  0.12647    Cu
Cu         0.5  0.62647  0.87353    Cu
Cu         0.5  0.66838  0.16838    Cu
Cu         0.5  0.66838  0.83162    Cu
Cu         0.5  0.83162  0.33162    Cu
Cu         0.5  0.83162  0.66838    Cu
Cu         0.5  0.87353  0.37353    Cu
Cu         0.5  0.87353  0.62647    Cu
O      0.53085  0.10798  0.34863     O
O      0.53085  0.10798  0.65137     O
O      0.53085  0.15137  0.39202     O
O      0.53085  0.15137  0.60798     O
O      0.53085  0.34863  0.10798     O
O      0.53085  0.34863  0.89202     O
O      0.53085  0.39202  0.15137     O
O      0.53085  0.39202  0.84863     O
O      0.53085  0.60798  0.15137     O
O      0.53085  0.60798  0.84863     O
O      0.53085  0.65137  0.10798     O
O      0.53085  0.65137  0.89202     O
O      0.53085  0.84863  0.39202     O
O      0.53085  0.84863  0.60798     O
O      0.53085  0.89202  0.34863     O
O      0.53085  0.89202  0.65137     O
O      0.53088  0.14347  0.31313     O
O      0.53088  0.14347  0.68687     O
O      0.53088  0.18687  0.35653     O
O      0.53088  0.18687  0.64347     O
O      0.53088  0.31313  0.14347     O
O      0.53088  0.31313  0.85653     O
O      0.53088  0.35653  0.18687     O
O      0.53088  0.35653  0.81313     O
O      0.53088  0.64347  0.18687     O
O      0.53088  0.64347  0.81313     O
O      0.53088  0.68687  0.14347     O
O      0.53088  0.68687  0.85653     O
O      0.53088  0.81313  0.35653     O
O      0.53088  0.81313  0.64347     O
O      0.53088  0.85653  0.31313     O
O      0.53088  0.85653  0.68687     O
C      0.54087  0.11995  0.32515     C
C      0.54087  0.11995  0.67485     C
C      0.54087  0.17485  0.38005     C
C      0.54087  0.17485  0.61995     C
C      0.54087  0.32515  0.11995     C
C      0.54087  0.32515  0.88005     C
C      0.54087  0.38005  0.17485     C
C      0.54087  0.38005  0.82515     C
C      0.54087  0.61995  0.17485     C
C      0.54087  0.61995  0.82515     C
C      0.54087  0.67485  0.11995     C
C      0.54087  0.67485  0.88005     C
C      0.54087  0.82515  0.38005     C
C      0.54087  0.82515  0.61995     C
C      0.54087  0.88005  0.32515     C
C      0.54087  0.88005  0.67485     C
C      0.56683  0.10498  0.31024     C
C      0.56683  0.10498  0.68976     C
C      0.56683  0.18976  0.39502     C
C      0.56683  0.18976  0.60498     C
C      0.56683  0.31024  0.10498     C
C      0.56683  0.31024  0.89502     C
C      0.56683  0.39502  0.18976     C
C      0.56683  0.39502  0.81024     C
C      0.56683  0.60498  0.18976     C
C      0.56683  0.60498  0.81024     C
C      0.56683  0.68976  0.10498     C
C      0.56683  0.68976  0.89502     C
C      0.56683  0.81024  0.39502     C
C      0.56683  0.81024  0.60498     C
C      0.56683  0.89502  0.31024     C
C      0.56683  0.89502  0.68976     C
H       0.5694   0.1326   0.2746     H
H       0.5694   0.1326   0.7254     H
H       0.5694   0.2254   0.3674     H
H       0.5694   0.2254   0.6326     H
H       0.5694   0.2746   0.1326     H
H       0.5694   0.2746   0.8674     H
H       0.5694   0.3674   0.2254     H
H       0.5694   0.3674   0.7746     H
H       0.5694   0.6326   0.2254     H
H       0.5694   0.6326   0.7746     H
H       0.5694   0.7254   0.1326     H
H       0.5694   0.7254   0.8674     H
H       0.5694   0.7746   0.3674     H
H       0.5694   0.7746   0.6326     H
H       0.5694   0.8674   0.2746     H
H       0.5694   0.8674   0.7254     H
H        0.572    0.072   0.3405     H
H        0.572    0.072   0.6595     H
H        0.572   0.1595    0.428     H
H        0.572   0.1595    0.572     H
H        0.572   0.3405    0.072     H
H        0.572   0.3405    0.928     H
H        0.572    0.428   0.1595     H
H        0.572    0.428   0.8405     H
H        0.572    0.572   0.1595     H
H        0.572    0.572   0.8405     H
H        0.572   0.6595    0.072     H
H        0.572   0.6595    0.928     H
H        0.572   0.8405    0.428     H
H        0.572   0.8405    0.572     H
H        0.572    0.928   0.3405     H
H        0.572    0.928   0.6595     H
C      0.57867  0.11638  0.28393     C
C      0.57867  0.11638  0.71607     C
C      0.57867  0.21607  0.38362     C
C      0.57867  0.21607  0.61638     C
C      0.57867  0.28393  0.11638     C
C      0.57867  0.28393  0.88362     C
C      0.57867  0.38362  0.21607     C
C      0.57867  0.38362  0.78393     C
C      0.57867  0.61638  0.21607     C
C      0.57867  0.61638  0.78393     C
C      0.57867  0.71607  0.11638     C
C      0.57867  0.71607  0.88362     C
C      0.57867  0.78393  0.38362     C
C      0.57867  0.78393  0.61638     C
C      0.57867  0.88362  0.28393     C
C      0.57867  0.88362  0.71607     C
C      0.58002  0.08002  0.32303     C
C      0.58002  0.08002  0.67697     C
C      0.58002  0.17697  0.41998     C
C      0.58002  0.17697  0.58002     C
C      0.58002  0.32303  0.08002     C
C      0.58002  0.32303  0.91998     C
C      0.58002  0.41998  0.17697     C
C      0.58002  0.41998  0.82303     C
C      0.58002  0.58002  0.17697     C
C      0.58002  0.58002  0.82303     C
C      0.58002  0.67697  0.08002     C
C      0.58002  0.67697  0.91998     C
C      0.58002  0.82303  0.41998     C
C      0.58002  0.82303  0.58002     C
C      0.58002  0.91998  0.32303     C
C      0.58002  0.91998  0.67697     C
C      0.60395  0.10395   0.2716     C
C      0.60395  0.10395   0.7284     C
C      0.60395   0.2284  0.39605     C
C      0.60395   0.2284  0.60395     C
C      0.60395   0.2716  0.10395     C
C      0.60395   0.2716  0.89605     C
C      0.60395  0.39605   0.2284     C
C      0.60395  0.39605   0.7716     C
C      0.60395  0.60395   0.2284     C
C      0.60395  0.60395   0.7716     C
C      0.60395   0.7284  0.10395     C
C      0.60395   0.7284  0.89605     C
C      0.60395   0.7716  0.39605     C
C      0.60395   0.7716  0.60395     C
C      0.60395  0.89605   0.2716     C
C      0.60395  0.89605   0.7284     C
C      0.60498  0.06683  0.31024     C
C      0.60498  0.06683  0.68976     C
C      0.60498  0.18976  0.43317     C
C      0.60498  0.18976  0.56683     C
C      0.60498  0.31024  0.06683     C
C      0.60498  0.31024  0.93317     C
C      0.60498  0.43317  0.18976     C
C      0.60498  0.43317  0.81024     C
C      0.60498  0.56683  0.18976     C
C      0.60498  0.56683  0.81024     C
C      0.60498  0.68976  0.06683     C
C      0.60498  0.68976  0.93317     C
C      0.60498  0.81024  0.43317     C
C      0.60498  0.81024  0.56683     C
C      0.60498  0.93317  0.31024     C
C      0.60498  0.93317  0.68976     C
N      0.60615  0.14086  0.22983     N
N      0.60615  0.14086  0.77017     N
N      0.60615  0.22983  0.14086     N
N      0.60615  0.22983  0.85914     N
N      0.60615  0.27017  0.35914     N
N      0.60615  0.27017  0.64086     N
N      0.60615  0.35914  0.27017     N
N      0.60615  0.35914  0.72983     N
N      0.60615  0.64086  0.27017     N
N      0.60615  0.64086  0.72983     N
N      0.60615  0.72983  0.35914     N
N      0.60615  0.72983  0.64086     N
N      0.60615  0.77017  0.14086     N
N      0.60615  0.77017  0.85914     N
N      0.60615  0.85914  0.22983     N
N      0.60615  0.85914  0.77017     N
O      0.60798  0.03085  0.34863     O
O      0.60798  0.03085  0.65137     O
O      0.60798  0.15137  0.46915     O
O      0.60798  0.15137  0.53085     O
O      0.60798  0.34863  0.03085     O
O      0.60798  0.34863  0.96915     O
O      0.60798  0.46915  0.15137     O
O      0.60798  0.46915  0.84863     O
O      0.60798  0.53085  0.15137     O
O      0.60798  0.53085  0.84863     O
O      0.60798  0.65137  0.03085     O
O      0.60798  0.65137  0.96915     O
O      0.60798  0.84863  0.46915     O
O      0.60798  0.84863  0.53085     O
O      0.60798  0.96915  0.34863     O
O      0.60798  0.96915  0.65137     O
C      0.61638  0.07867  0.28393     C
C      0.61638  0.07867  0.71607     C
C      0.61638  0.21607  0.42133     C
C      0.61638  0.21607  0.57867     C
C      0.61638  0.28393  0.07867     C
C      0.61638  0.28393  0.92133     C
C      0.61638  0.42133  0.21607     C
C      0.61638  0.42133  0.78393     C
C      0.61638  0.57867  0.21607     C
C      0.61638  0.57867  0.78393     C
C      0.61638  0.71607  0.07867     C
C      0.61638  0.71607  0.92133     C
C      0.61638  0.78393  0.42133     C
C      0.61638  0.78393  0.57867     C
C      0.61638  0.92133  0.28393     C
C      0.61638  0.92133  0.71607     C
C      0.61683  0.11683   0.2432     C
C      0.61683  0.11683   0.7568     C
C      0.61683   0.2432  0.11683     C
C      0.61683   0.2432  0.88317     C
C      0.61683   0.2568  0.38317     C
C      0.61683   0.2568  0.61683     C
C      0.61683  0.38317   0.2568     C
C      0.61683  0.38317   0.7432     C
C      0.61683  0.61683   0.2568     C
C      0.61683  0.61683   0.7432     C
C      0.61683   0.7432  0.38317     C
C      0.61683   0.7432  0.61683     C
C      0.61683   0.7568  0.11683     C
C      0.61683   0.7568  0.88317     C
C      0.61683  0.88317   0.2432     C
C      0.61683  0.88317   0.7568     C
C      0.61995  0.04087  0.32515     C
C      0.61995  0.04087  0.67485     C
C      0.61995  0.17485  0.45913     C
C      0.61995  0.17485  0.54087     C
C      0.61995  0.32515  0.04087     C
C      0.61995  0.32515  0.95913     C
C      0.61995  0.45913  0.17485     C
C      0.61995  0.45913  0.82515     C
C      0.61995  0.54087  0.17485     C
C      0.61995  0.54087  0.82515     C
C      0.61995  0.67485  0.04087     C
C      0.61995  0.67485  0.95913     C
C      0.61995  0.82515  0.45913     C
C      0.61995  0.82515  0.54087     C
C      0.61995  0.95913  0.32515     C
C      0.61995  0.95913  0.67485     C
Cu     0.62286  0.17617  0.17617    Cu
Cu     0.62286  0.17617  0.82383    Cu
Cu     0.62286  0.32383  0.32383    Cu
Cu     0.62286  0.32383  0.67617    Cu
Cu     0.62286  0.67617  0.32383    Cu
Cu     0.62286  0.67617  0.67617    Cu
Cu     0.62286  0.82383  0.17617    Cu
Cu     0.62286  0.82383  0.82383    Cu
N      0.62482  0.14507  0.20736     N
N      0.62482  0.14507  0.79264     N
N      0.62482  0.20736  0.14507     N
N      0.62482  0.20736  0.85493     N
N      0.62482  0.29264  0.35493     N
N      0.62482  0.29264  0.64507     N
N      0.62482  0.35493  0.29264     N
N      0.62482  0.35493  0.70736     N
N      0.62482  0.64507  0.29264     N
N      0.62482  0.64507  0.70736     N
N      0.62482  0.70736  0.35493     N
N      0.62482  0.70736  0.64507     N
N      0.62482  0.79264  0.14507     N
N      0.62482  0.79264  0.85493     N
N      0.62482  0.85493  0.20736     N
N      0.62482  0.85493  0.79264     N
Cu     0.62647      0.0  0.37353    Cu
Cu     0.62647      0.0  0.62647    Cu
Cu     0.62647  0.12647      0.5    Cu
Cu     0.62647  0.37353      0.0    Cu
Cu     0.62647      0.5  0.12647    Cu
Cu     0.62647      0.5  0.87353    Cu
Cu     0.62647  0.62647      0.0    Cu
Cu     0.62647  0.87353      0.5    Cu
H       0.6326   0.0694   0.2746     H
H       0.6326   0.0694   0.7254     H
H       0.6326   0.2254   0.4306     H
H       0.6326   0.2254   0.5694     H
H       0.6326   0.2746   0.0694     H
H       0.6326   0.2746   0.9306     H
H       0.6326   0.4306   0.2254     H
H       0.6326   0.4306   0.7746     H
H       0.6326   0.5694   0.2254     H
H       0.6326   0.5694   0.7746     H
H       0.6326   0.7254   0.0694     H
H       0.6326   0.7254   0.9306     H
H       0.6326   0.7746   0.4306     H
H       0.6326   0.7746   0.5694     H
H       0.6326   0.9306   0.2746     H
H       0.6326   0.9306   0.7254     H
N      0.64086  0.10615  0.22983     N
N      0.64086  0.10615  0.77017     N
N      0.64086  0.22983  0.10615     N
N      0.64086  0.22983  0.89385     N
N      0.64086  0.27017  0.39385     N
N      0.64086  0.27017  0.60615     N
N      0.64086  0.39385  0.27017     N
N      0.64086  0.39385  0.72983     N
N      0.64086  0.60615  0.27017     N
N      0.64086  0.60615  0.72983     N
N      0.64086  0.72983  0.39385     N
N      0.64086  0.72983  0.60615     N
N      0.64086  0.77017  0.10615     N
N      0.64086  0.77017  0.89385     N
N      0.64086  0.89385  0.22983     N
N      0.64086  0.89385  0.77017     N
O      0.64347  0.03088  0.31313     O
O      0.64347  0.03088  0.68687     O
O      0.64347  0.18687  0.46912     O
O      0.64347  0.18687  0.53088     O
O      0.64347  0.31313  0.03088     O
O      0.64347  0.31313  0.96912     O
O      0.64347  0.46912  0.18687     O
O      0.64347  0.46912  0.81313     O
O      0.64347  0.53088  0.18687     O
O      0.64347  0.53088  0.81313     O
O      0.64347  0.68687  0.03088     O
O      0.64347  0.68687  0.96912     O
O      0.64347  0.81313  0.46912     O
O      0.64347  0.81313  0.53088     O
O      0.64347  0.96912  0.31313     O
O      0.64347  0.96912  0.68687     O
N      0.64507  0.12482  0.20736     N
N      0.64507  0.12482  0.79264     N
N      0.64507  0.20736  0.12482     N
N      0.64507  0.20736  0.87518     N
N      0.64507  0.29264  0.37518     N
N      0.64507  0.29264  0.62482     N
N      0.64507  0.37518  0.29264     N
N      0.64507  0.37518  0.70736     N
N      0.64507  0.62482  0.29264     N
N      0.64507  0.62482  0.70736     N
N      0.64507  0.70736  0.37518     N
N      0.64507  0.70736  0.62482     N
N      0.64507  0.79264  0.12482     N
N      0.64507  0.79264  0.87518     N
N      0.64507  0.87518  0.20736     N
N      0.64507  0.87518  0.79264     N
O      0.65137  0.03085  0.39202     O
O      0.65137  0.03085  0.60798     O
O      0.65137  0.10798  0.46915     O
O      0.65137  0.10798  0.53085     O
O      0.65137  0.39202  0.03085     O
O      0.65137  0.39202  0.96915     O
O      0.65137  0.46915  0.10798     O
O      0.65137  0.46915  0.89202     O
O      0.65137  0.53085  0.10798     O
O      0.65137  0.53085  0.89202     O
O      0.65137  0.60798  0.03085     O
O      0.65137  0.60798  0.96915     O
O      0.65137  0.89202  0.46915     O
O      0.65137  0.89202  0.53085     O
O      0.65137  0.96915  0.39202     O
O      0.65137  0.96915  0.60798     O
H       0.6595    0.072    0.428     H
H       0.6595    0.072    0.572     H
H       0.6595    0.428    0.072     H
H       0.6595    0.428    0.928     H
H       0.6595    0.572    0.072     H
H       0.6595    0.572    0.928     H
H       0.6595    0.928    0.428     H
H       0.6595    0.928    0.572     H
O      0.66519  0.16519  0.16519     O
O      0.66519  0.16519  0.83481     O
O      0.66519  0.33481  0.33481     O
O      0.66519  0.33481  0.66519     O
O      0.66519  0.66519  0.33481     O
O      0.66519  0.66519  0.66519     O
O      0.66519  0.83481  0.16519     O
O      0.66519  0.83481  0.83481     O
Cu     0.66838      0.0  0.33162    Cu
Cu     0.66838      0.0  0.66838    Cu
Cu     0.66838  0.16838      0.5    Cu
Cu     0.66838  0.33162      0.0    Cu
Cu     0.66838      0.5  0.16838    Cu
Cu     0.66838      0.5  0.83162    Cu
Cu     0.66838  0.66838      0.0    Cu
Cu     0.66838  0.83162      0.5    Cu
C      0.67485  0.04087  0.38005     C
C      0.67485  0.04087  0.61995     C
C      0.67485  0.11995  0.45913     C
C      0.67485  0.11995  0.54087     C
C      0.67485  0.38005  0.04087     C
C      0.67485  0.38005  0.95913     C
C      0.67485  0.45913  0.11995     C
C      0.67485  0.45913  0.88005     C
C      0.67485  0.54087  0.11995     C
C      0.67485  0.54087  0.88005     C
C      0.67485  0.61995  0.04087     C
C      0.67485  0.61995  0.95913     C
C      0.67485  0.88005  0.45913     C
C      0.67485  0.88005  0.54087     C
C      0.67485  0.95913  0.38005     C
C      0.67485  0.95913  0.61995     C
Cu     0.67617  0.12286  0.17617    Cu
Cu     0.67617  0.12286  0.82383    Cu
Cu     0.67617  0.17617  0.12286    Cu
Cu     0.67617  0.17617  0.87714    Cu
Cu     0.67617  0.32383  0.37714    Cu
Cu     0.67617  0.32383  0.62286    Cu
Cu     0.67617  0.37714  0.32383    Cu
Cu     0.67617  0.37714  0.67617    Cu
Cu     0.67617  0.62286  0.32383    Cu
Cu     0.67617  0.62286  0.67617    Cu
Cu     0.67617  0.67617  0.37714    Cu
Cu     0.67617  0.67617  0.62286    Cu
Cu     0.67617  0.82383  0.12286    Cu
Cu     0.67617  0.82383  0.87714    Cu
Cu     0.67617  0.87714  0.17617    Cu
Cu     0.67617  0.87714  0.82383    Cu
C      0.67697  0.08002  0.41998     C
C      0.67697  0.08002  0.58002     C
C      0.67697  0.41998  0.08002     C
C      0.67697  0.41998  0.91998     C
C      0.67697  0.58002  0.08002     C
C      0.67697  0.58002  0.91998     C
C      0.67697  0.91998  0.41998     C
C      0.67697  0.91998  0.58002     C
O      0.68687  0.03088  0.35653     O
O      0.68687  0.03088  0.64347     O
O      0.68687  0.14347  0.46912     O
O      0.68687  0.14347  0.53088     O
O      0.68687  0.35653  0.03088     O
O      0.68687  0.35653  0.96912     O
O      0.68687  0.46912  0.14347     O
O      0.68687  0.46912  0.85653     O
O      0.68687  0.53088  0.14347     O
O      0.68687  0.53088  0.85653     O
O      0.68687  0.64347  0.03088     O
O      0.68687  0.64347  0.96912     O
O      0.68687  0.85653  0.46912     O
O      0.68687  0.85653  0.53088     O
O      0.68687  0.96912  0.35653     O
O      0.68687  0.96912  0.64347     O
C      0.68976  0.06683  0.39502     C
C      0.68976  0.06683  0.60498     C
C      0.68976  0.10498  0.43317     C
C      0.68976  0.10498  0.56683     C
C      0.68976  0.39502  0.06683     C
C      0.68976  0.39502  0.93317     C
C      0.68976  0.43317  0.10498     C
C      0.68976  0.43317  0.89502     C
C      0.68976  0.56683  0.10498     C
C      0.68976  0.56683  0.89502     C
C      0.68976  0.60498  0.06683     C
C      0.68976  0.60498  0.93317     C
C      0.68976  0.89502  0.43317     C
C      0.68976  0.89502  0.56683     C
C      0.68976  0.93317  0.39502     C
C      0.68976  0.93317  0.60498     C
N      0.70736  0.12482  0.14507     N
N      0.70736  0.12482  0.85493     N
N      0.70736  0.14507  0.12482     N
N      0.70736  0.14507  0.87518     N
N      0.70736  0.35493  0.37518     N
N      0.70736  0.35493  0.62482     N
N      0.70736  0.37518  0.35493     N
N      0.70736  0.37518  0.64507     N
N      0.70736  0.62482  0.35493     N
N      0.70736  0.62482  0.64507     N
N      0.70736  0.64507  0.37518     N
N      0.70736  0.64507  0.62482     N
N      0.70736  0.85493  0.12482     N
N      0.70736  0.85493  0.87518     N
N      0.70736  0.87518  0.14507     N
N      0.70736  0.87518  0.85493     N
C      0.71607  0.07867  0.38362     C
C      0.71607  0.07867  0.61638     C
C      0.71607  0.11638  0.42133     C
C      0.71607  0.11638  0.57867     C
C      0.71607  0.38362  0.07867     C
C      0.71607  0.38362  0.92133     C
C      0.71607  0.42133  0.11638     C
C      0.71607  0.42133  0.88362     C
C      0.71607  0.57867  0.11638     C
C      0.71607  0.57867  0.88362     C
C      0.71607  0.61638  0.07867     C
C      0.71607  0.61638  0.92133     C
C      0.71607  0.88362  0.42133     C
C      0.71607  0.88362  0.57867     C
C      0.71607  0.92133  0.38362     C
C      0.71607  0.92133  0.61638     C
H       0.7254   0.0694   0.3674     H
H       0.7254   0.0694   0.6326     H
H       0.7254   0.1326   0.4306     H
H       0.7254   0.1326   0.5694     H
H       0.7254   0.3674   0.0694     H
H       0.7254   0.3674   0.9306     H
H       0.7254   0.4306   0.1326     H
H       0.7254   0.4306   0.8674     H
H       0.7254   0.5694   0.1326     H
H       0.7254   0.5694   0.8674     H
H       0.7254   0.6326   0.0694     H
H       0.7254   0.6326   0.9306     H
H       0.7254   0.8674   0.4306     H
H       0.7254   0.8674   0.5694     H
H       0.7254   0.9306   0.3674     H
H       0.7254   0.9306   0.6326     H
C       0.7284  0.10395  0.39605     C
C       0.7284  0.10395  0.60395     C
C       0.7284  0.39605  0.10395     C
C       0.7284  0.39605  0.89605     C
C       0.7284  0.60395  0.10395     C
C       0.7284  0.60395  0.89605     C
C       0.7284  0.89605  0.39605     C
C       0.7284  0.89605  0.60395     C
N      0.72983  0.10615  0.14086     N
N      0.72983  0.10615  0.85914     N
N      0.72983  0.14086  0.10615     N
N      0.72983  0.14086  0.89385     N
N      0.72983  0.35914  0.39385     N
N      0.72983  0.35914  0.60615     N
N      0.72983  0.39385  0.35914     N
N      0.72983  0.39385  0.64086     N
N      0.72983  0.60615  0.35914     N
N      0.72983  0.60615  0.64086     N
N      0.72983  0.64086  0.39385     N
N      0.72983  0.64086  0.60615     N
N      0.72983  0.85914  0.10615     N
N      0.72983  0.85914  0.89385     N
N      0.72983  0.89385  0.14086     N
N      0.72983  0.89385  0.85914     N
C       0.7432  0.11683  0.11683     C
C       0.7432  0.11683  0.88317     C
C       0.7432  0.38317  0.38317     C
C       0.7432  0.38317  0.61683     C
C       0.7432  0.61683  0.38317     C
C       0.7432  0.61683  0.61683     C
C       0.7432  0.88317  0.11683     C
C       0.7432  0.88317  0.88317     C
C       0.7568  0.11683  0.38317     C
C       0.7568  0.11683  0.61683     C
C       0.7568  0.38317  0.11683     C
C       0.7568  0.38317  0.88317     C
C       0.7568  0.61683  0.11683     C
C       0.7568  0.61683  0.88317     C
C       0.7568  0.88317  0.38317     C
C       0.7568  0.88317  0.61683     C
N      0.77017  0.10615  0.35914     N
N      0.77017  0.10615  0.64086     N
N      0.77017  0.14086  0.39385     N
N      0.77017  0.14086  0.60615     N
N      0.77017  0.35914  0.10615     N
N      0.77017  0.35914  0.89385     N
N      0.77017  0.39385  0.14086     N
N      0.77017  0.39385  0.85914     N
N      0.77017  0.60615  0.14086     N
N      0.77017  0.60615  0.85914     N
N      0.77017  0.64086  0.10615     N
N      0.77017  0.64086  0.89385     N
N      0.77017  0.85914  0.39385     N
N      0.77017  0.85914  0.60615     N
N      0.77017  0.89385  0.35914     N
N      0.77017  0.89385  0.64086     N
C       0.7716  0.10395  0.10395     C
C       0.7716  0.10395  0.89605     C
C       0.7716  0.39605  0.39605     C
C       0.7716  0.39605  0.60395     C
C       0.7716  0.60395  0.39605     C
C       0.7716  0.60395  0.60395     C
C       0.7716  0.89605  0.10395     C
C       0.7716  0.89605  0.89605     C
H       0.7746   0.0694   0.1326     H
H       0.7746   0.0694   0.8674     H
H       0.7746   0.1326   0.0694     H
H       0.7746   0.1326   0.9306     H
H       0.7746   0.3674   0.4306     H
H       0.7746   0.3674   0.5694     H
H       0.7746   0.4306   0.3674     H
H       0.7746   0.4306   0.6326     H
H       0.7746   0.5694   0.3674     H
H       0.7746   0.5694   0.6326     H
H       0.7746   0.6326   0.4306     H
H       0.7746   0.6326   0.5694     H
H       0.7746   0.8674   0.0694     H
H       0.7746   0.8674   0.9306     H
H       0.7746   0.9306   0.1326     H
H       0.7746   0.9306   0.8674     H
C      0.78393  0.07867  0.11638     C
C      0.78393  0.07867  0.88362     C
C      0.78393  0.11638  0.07867     C
C      0.78393  0.11638  0.92133     C
C      0.78393  0.38362  0.42133     C
C      0.78393  0.38362  0.57867     C
C      0.78393  0.42133  0.38362     C
C      0.78393  0.42133  0.61638     C
C      0.78393  0.57867  0.38362     C
C      0.78393  0.57867  0.61638     C
C      0.78393  0.61638  0.42133     C
C      0.78393  0.61638  0.57867     C
C      0.78393  0.88362  0.07867     C
C      0.78393  0.88362  0.92133     C
C      0.78393  0.92133  0.11638     C
C      0.78393  0.92133  0.88362     C
N      0.79264  0.12482  0.35493     N
N      0.79264  0.12482  0.64507     N
N      0.79264  0.14507  0.37518     N
N      0.79264  0.14507  0.62482     N
N      0.79264  0.35493  0.12482     N
N      0.79264  0.35493  0.87518     N
N      0.79264  0.37518  0.14507     N
N      0.79264  0.37518  0.85493     N
N      0.79264  0.62482  0.14507     N
N      0.79264  0.62482  0.85493     N
N      0.79264  0.64507  0.12482     N
N      0.79264  0.64507  0.87518     N
N      0.79264  0.85493  0.37518     N
N      0.79264  0.85493  0.62482     N
N      0.79264  0.87518  0.35493     N
N      0.79264  0.87518  0.64507     N
C      0.81024  0.06683  0.10498     C
C      0.81024  0.06683  0.89502     C
C      0.81024  0.10498  0.06683     C
C      0.81024  0.10498  0.93317     C
C      0.81024  0.39502  0.43317     C
C      0.81024  0.39502  0.56683     C
C      0.81024  0.43317  0.39502     C
C      0.81024  0.43317  0.60498     C
C      0.81024  0.56683  0.39502     C
C      0.81024  0.56683  0.60498     C
C      0.81024  0.60498  0.43317     C
C      0.81024  0.60498  0.56683     C
C      0.81024  0.89502  0.06683     C
C      0.81024  0.89502  0.93317     C
C      0.81024  0.93317  0.10498     C
C      0.81024  0.93317  0.89502     C
O      0.81313  0.03088  0.14347     O
O      0.81313  0.03088  0.85653     O
O      0.81313  0.14347  0.03088     O
O      0.81313  0.14347  0.96912     O
O      0.81313  0.35653  0.46912     O
O      0.81313  0.35653  0.53088     O
O      0.81313  0.46912  0.35653     O
O      0.81313  0.46912  0.64347     O
O      0.81313  0.53088  0.35653     O
O      0.81313  0.53088  0.64347     O
O      0.81313  0.64347  0.46912     O
O      0.81313  0.64347  0.53088     O
O      0.81313  0.85653  0.03088     O
O      0.81313  0.85653  0.96912     O
O      0.81313  0.96912  0.14347     O
O      0.81313  0.96912  0.85653     O
C      0.82303  0.08002  0.08002     C
C      0.82303  0.08002  0.91998     C
C      0.82303  0.41998  0.41998     C
C      0.82303  0.41998  0.58002     C
C      0.82303  0.58002  0.41998     C
C      0.82303  0.58002  0.58002     C
C      0.82303  0.91998  0.08002     C
C      0.82303  0.91998  0.91998     C
Cu     0.82383  0.12286  0.32383    Cu
Cu     0.82383  0.12286  0.67617    Cu
Cu     0.82383  0.17617  0.37714    Cu
Cu     0.82383  0.17617  0.62286    Cu
Cu     0.82383  0.32383  0.12286    Cu
Cu     0.82383  0.32383  0.87714    Cu
Cu     0.82383  0.37714  0.17617    Cu
Cu     0.82383  0.37714  0.82383    Cu
Cu     0.82383  0.62286  0.17617    Cu
Cu     0.82383  0.62286  0.82383    Cu
Cu     0.82383  0.67617  0.12286    Cu
Cu     0.82383  0.67617  0.87714    Cu
Cu     0.82383  0.82383  0.37714    Cu
Cu     0.82383  0.82383  0.62286    Cu
Cu     0.82383  0.87714  0.32383    Cu
Cu     0.82383  0.87714  0.67617    Cu
C      0.82515  0.04087  0.11995     C
C      0.82515  0.04087  0.88005     C
C      0.82515  0.11995  0.04087     C
C      0.82515  0.11995  0.95913     C
C      0.82515  0.38005  0.45913     C
C      0.82515  0.38005  0.54087     C
C      0.82515  0.45913  0.38005     C
C      0.82515  0.45913  0.61995     C
C      0.82515  0.54087  0.38005     C
C      0.82515  0.54087  0.61995     C
C      0.82515  0.61995  0.45913     C
C      0.82515  0.61995  0.54087     C
C      0.82515  0.88005  0.04087     C
C      0.82515  0.88005  0.95913     C
C      0.82515  0.95913  0.11995     C
C      0.82515  0.95913  0.88005     C
Cu     0.83162      0.0  0.16838    Cu
Cu     0.83162      0.0  0.83162    Cu
Cu     0.83162  0.16838      0.0    Cu
Cu     0.83162  0.33162      0.5    Cu
Cu     0.83162      0.5  0.33162    Cu
Cu     0.83162      0.5  0.66838    Cu
Cu     0.83162  0.66838      0.5    Cu
Cu     0.83162  0.83162      0.0    Cu
O      0.83481  0.16519  0.33481     O
O      0.83481  0.16519  0.66519     O
O      0.83481  0.33481  0.16519     O
O      0.83481  0.33481  0.83481     O
O      0.83481  0.66519  0.16519     O
O      0.83481  0.66519  0.83481     O
O      0.83481  0.83481  0.33481     O
O      0.83481  0.83481  0.66519     O
H       0.8405    0.072    0.072     H
H       0.8405    0.072    0.928     H
H       0.8405    0.428    0.428     H
H       0.8405    0.428    0.572     H
H       0.8405    0.572    0.428     H
H       0.8405    0.572    0.572     H
H       0.8405    0.928    0.072     H
H       0.8405    0.928    0.928     H
O      0.84863  0.03085  0.10798     O
O      0.84863  0.03085  0.89202     O
O      0.84863  0.10798  0.03085     O
O      0.84863  0.10798  0.96915     O
O      0.84863  0.39202  0.46915     O
O      0.84863  0.39202  0.53085     O
O      0.84863  0.46915  0.39202     O
O      0.84863  0.46915  0.60798     O
O      0.84863  0.53085  0.39202     O
O      0.84863  0.53085  0.60798     O
O      0.84863  0.60798  0.46915     O
O      0.84863  0.60798  0.53085     O
O      0.84863  0.89202  0.03085     O
O      0.84863  0.89202  0.96915     O
O      0.84863  0.96915  0.10798     O
O      0.84863  0.96915  0.89202     O
N      0.85493  0.12482  0.29264     N
N      0.85493  0.12482  0.70736     N
N      0.85493  0.20736  0.37518     N
N      0.85493  0.20736  0.62482     N
N      0.85493  0.29264  0.12482     N
N      0.85493  0.29264  0.87518     N
N      0.85493  0.37518  0.20736     N
N      0.85493  0.37518  0.79264     N
N      0.85493  0.62482  0.20736     N
N      0.85493  0.62482  0.79264     N
N      0.85493  0.70736  0.12482     N
N      0.85493  0.70736  0.87518     N
N      0.85493  0.79264  0.37518     N
N      0.85493  0.79264  0.62482     N
N      0.85493  0.87518  0.29264     N
N      0.85493  0.87518  0.70736     N
O      0.85653  0.03088  0.18687     O
O      0.85653  0.03088  0.81313     O
O      0.85653  0.18687  0.03088     O
O      0.85653  0.18687  0.96912     O
O      0.85653  0.31313  0.46912     O
O      0.85653  0.31313  0.53088     O
O      0.85653  0.46912  0.31313     O
O      0.85653  0.46912  0.68687     O
O      0.85653  0.53088  0.31313     O
O      0.85653  0.53088  0.68687     O
O      0.85653  0.68687  0.46912     O
O      0.85653  0.68687  0.53088     O
O      0.85653  0.81313  0.03088     O
O      0.85653  0.81313  0.96912     O
O      0.85653  0.96912  0.18687     O
O      0.85653  0.96912  0.81313     O
N      0.85914  0.10615  0.27017     N
N      0.85914  0.10615  0.72983     N
N      0.85914  0.22983  0.39385     N
N      0.85914  0.22983  0.60615     N
N      0.85914  0.27017  0.10615     N
N      0.85914  0.27017  0.89385     N
N      0.85914  0.39385  0.22983     N
N      0.85914  0.39385  0.77017     N
N      0.85914  0.60615  0.22983     N
N      0.85914  0.60615  0.77017     N
N      0.85914  0.72983  0.10615     N
N      0.85914  0.72983  0.89385     N
N      0.85914  0.77017  0.39385     N
N      0.85914  0.77017  0.60615     N
N      0.85914  0.89385  0.27017     N
N      0.85914  0.89385  0.72983     N
H       0.8674   0.0694   0.2254     H
H       0.8674   0.0694   0.7746     H
H       0.8674   0.2254   0.0694     H
H       0.8674   0.2254   0.9306     H
H       0.8674   0.2746   0.4306     H
H       0.8674   0.2746   0.5694     H
H       0.8674   0.4306   0.2746     H
H       0.8674   0.4306   0.7254     H
H       0.8674   0.5694   0.2746     H
H       0.8674   0.5694   0.7254     H
H       0.8674   0.7254   0.4306     H
H       0.8674   0.7254   0.5694     H
H       0.8674   0.7746   0.0694     H
H       0.8674   0.7746   0.9306     H
H       0.8674   0.9306   0.2254     H
H       0.8674   0.9306   0.7746     H
Cu     0.87353      0.0  0.12647    Cu
Cu     0.87353      0.0  0.87353    Cu
Cu     0.87353  0.12647      0.0    Cu
Cu     0.87353  0.37353      0.5    Cu
Cu     0.87353      0.5  0.37353    Cu
Cu     0.87353      0.5  0.62647    Cu
Cu     0.87353  0.62647      0.5    Cu
Cu     0.87353  0.87353      0.0    Cu
N      0.87518  0.14507  0.29264     N
N      0.87518  0.14507  0.70736     N
N      0.87518  0.20736  0.35493     N
N      0.87518  0.20736  0.64507     N
N      0.87518  0.29264  0.14507     N
N      0.87518  0.29264  0.85493     N
N      0.87518  0.35493  0.20736     N
N      0.87518  0.35493  0.79264     N
N      0.87518  0.64507  0.20736     N
N      0.87518  0.64507  0.79264     N
N      0.87518  0.70736  0.14507     N
N      0.87518  0.70736  0.85493     N
N      0.87518  0.79264  0.35493     N
N      0.87518  0.79264  0.64507     N
N      0.87518  0.85493  0.29264     N
N      0.87518  0.85493  0.70736     N
Cu     0.87714  0.17617  0.32383    Cu
Cu     0.87714  0.17617  0.67617    Cu
Cu     0.87714  0.32383  0.17617    Cu
Cu     0.87714  0.32383  0.82383    Cu
Cu     0.87714  0.67617  0.17617    Cu
Cu     0.87714  0.67617  0.82383    Cu
Cu     0.87714  0.82383  0.32383    Cu
Cu     0.87714  0.82383  0.67617    Cu
C      0.88005  0.04087  0.17485     C
C      0.88005  0.04087  0.82515     C
C      0.88005  0.17485  0.04087     C
C      0.88005  0.17485  0.95913     C
C      0.88005  0.32515  0.45913     C
C      0.88005  0.32515  0.54087     C
C      0.88005  0.45913  0.32515     C
C      0.88005  0.45913  0.67485     C
C      0.88005  0.54087  0.32515     C
C      0.88005  0.54087  0.67485     C
C      0.88005  0.67485  0.45913     C
C      0.88005  0.67485  0.54087     C
C      0.88005  0.82515  0.04087     C
C      0.88005  0.82515  0.95913     C
C      0.88005  0.95913  0.17485     C
C      0.88005  0.95913  0.82515     C
C      0.88317  0.11683   0.2568     C
C      0.88317  0.11683   0.7432     C
C      0.88317   0.2432  0.38317     C
C      0.88317   0.2432  0.61683     C
C      0.88317   0.2568  0.11683     C
C      0.88317   0.2568  0.88317     C
C      0.88317  0.38317   0.2432     C
C      0.88317  0.38317   0.7568     C
C      0.88317  0.61683   0.2432     C
C      0.88317  0.61683   0.7568     C
C      0.88317   0.7432  0.11683     C
C      0.88317   0.7432  0.88317     C
C      0.88317   0.7568  0.38317     C
C      0.88317   0.7568  0.61683     C
C      0.88317  0.88317   0.2568     C
C      0.88317  0.88317   0.7432     C
C      0.88362  0.07867  0.21607     C
C      0.88362  0.07867  0.78393     C
C      0.88362  0.21607  0.07867     C
C      0.88362  0.21607  0.92133     C
C      0.88362  0.28393  0.42133     C
C      0.88362  0.28393  0.57867     C
C      0.88362  0.42133  0.28393     C
C      0.88362  0.42133  0.71607     C
C      0.88362  0.57867  0.28393     C
C      0.88362  0.57867  0.71607     C
C      0.88362  0.71607  0.42133     C
C      0.88362  0.71607  0.57867     C
C      0.88362  0.78393  0.07867     C
C      0.88362  0.78393  0.92133     C
C      0.88362  0.92133  0.21607     C
C      0.88362  0.92133  0.78393     C
O      0.89202  0.03085  0.15137     O
O      0.89202  0.03085  0.84863     O
O      0.89202  0.15137  0.03085     O
O      0.89202  0.15137  0.96915     O
O      0.89202  0.34863  0.46915     O
O      0.89202  0.34863  0.53085     O
O      0.89202  0.46915  0.34863     O
O      0.89202  0.46915  0.65137     O
O      0.89202  0.53085  0.34863     O
O      0.89202  0.53085  0.65137     O
O      0.89202  0.65137  0.46915     O
O      0.89202  0.65137  0.53085     O
O      0.89202  0.84863  0.03085     O
O      0.89202  0.84863  0.96915     O
O      0.89202  0.96915  0.15137     O
O      0.89202  0.96915  0.84863     O
N      0.89385  0.14086  0.27017     N
N      0.89385  0.14086  0.72983     N
N      0.89385  0.22983  0.35914     N
N      0.89385  0.22983  0.64086     N
N      0.89385  0.27017  0.14086     N
N      0.89385  0.27017  0.85914     N
N      0.89385  0.35914  0.22983     N
N      0.89385  0.35914  0.77017     N
N      0.89385  0.64086  0.22983     N
N      0.89385  0.64086  0.77017     N
N      0.89385  0.72983  0.14086     N
N      0.89385  0.72983  0.85914     N
N      0.89385  0.77017  0.35914     N
N      0.89385  0.77017  0.64086     N
N      0.89385  0.85914  0.27017     N
N      0.89385  0.85914  0.72983     N
C      0.89502  0.06683  0.18976     C
C      0.89502  0.06683  0.81024     C
C      0.89502  0.18976  0.06683     C
C      0.89502  0.18976  0.93317     C
C      0.89502  0.31024  0.43317     C
C      0.89502  0.31024  0.56683     C
C      0.89502  0.43317  0.31024     C
C      0.89502  0.43317  0.68976     C
C      0.89502  0.56683  0.31024     C
C      0.89502  0.56683  0.68976     C
C      0.89502  0.68976  0.43317     C
C      0.89502  0.68976  0.56683     C
C      0.89502  0.81024  0.06683     C
C      0.89502  0.81024  0.93317     C
C      0.89502  0.93317  0.18976     C
C      0.89502  0.93317  0.81024     C
C      0.89605  0.10395   0.2284     C
C      0.89605  0.10395   0.7716     C
C      0.89605   0.2284  0.10395     C
C      0.89605   0.2284  0.89605     C
C      0.89605   0.2716  0.39605     C
C      0.89605   0.2716  0.60395     C
C      0.89605  0.39605   0.2716     C
C      0.89605  0.39605   0.7284     C
C      0.89605  0.60395   0.2716     C
C      0.89605  0.60395   0.7284     C
C      0.89605   0.7284  0.39605     C
C      0.89605   0.7284  0.60395     C
C      0.89605   0.7716  0.10395     C
C      0.89605   0.7716  0.89605     C
C      0.89605  0.89605   0.2284     C
C      0.89605  0.89605   0.7716     C
C      0.91998  0.08002  0.17697     C
C      0.91998  0.08002  0.82303     C
C      0.91998  0.17697  0.08002     C
C      0.91998  0.17697  0.91998     C
C      0.91998  0.32303  0.41998     C
C      0.91998  0.32303  0.58002     C
C      0.91998  0.41998  0.32303     C
C      0.91998  0.41998  0.67697     C
C      0.91998  0.58002  0.32303     C
C      0.91998  0.58002  0.67697     C
C      0.91998  0.67697  0.41998     C
C      0.91998  0.67697  0.58002     C
C      0.91998  0.82303  0.08002     C
C      0.91998  0.82303  0.91998     C
C      0.91998  0.91998  0.17697     C
C      0.91998  0.91998  0.82303     C
C      0.92133  0.11638  0.21607     C
C      0.92133  0.11638  0.78393     C
C      0.92133  0.21607  0.11638     C
C      0.92133  0.21607  0.88362     C
C      0.92133  0.28393  0.38362     C
C      0.92133  0.28393  0.61638     C
C      0.92133  0.38362  0.28393     C
C      0.92133  0.38362  0.71607     C
C      0.92133  0.61638  0.28393     C
C      0.92133  0.61638  0.71607     C
C      0.92133  0.71607  0.38362     C
C      0.92133  0.71607  0.61638     C
C      0.92133  0.78393  0.11638     C
C      0.92133  0.78393  0.88362     C
C      0.92133  0.88362  0.21607     C
C      0.92133  0.88362  0.78393     C
H        0.928    0.072   0.1595     H
H        0.928    0.072   0.8405     H
H        0.928   0.1595    0.072     H
H        0.928   0.1595    0.928     H
H        0.928   0.3405    0.428     H
H        0.928   0.3405    0.572     H
H        0.928    0.428   0.3405     H
H        0.928    0.428   0.6595     H
H        0.928    0.572   0.3405     H
H        0.928    0.572   0.6595     H
H        0.928   0.6595    0.428     H
H        0.928   0.6595    0.572     H
H        0.928   0.8405    0.072     H
H        0.928   0.8405    0.928     H
H        0.928    0.928   0.1595     H
H        0.928    0.928   0.8405     H
H       0.9306   0.1326   0.2254     H
H       0.9306   0.1326   0.7746     H
H       0.9306   0.2254   0.1326     H
H       0.9306   0.2254   0.8674     H
H       0.9306   0.2746   0.3674     H
H       0.9306   0.2746   0.6326     H
H       0.9306   0.3674   0.2746     H
H       0.9306   0.3674   0.7254     H
H       0.9306   0.6326   0.2746     H
H       0.9306   0.6326   0.7254     H
H       0.9306   0.7254   0.3674     H
H       0.9306   0.7254   0.6326     H
H       0.9306   0.7746   0.1326     H
H       0.9306   0.7746   0.8674     H
H       0.9306   0.8674   0.2254     H
H       0.9306   0.8674   0.7746     H
C      0.93317  0.10498  0.18976     C
C      0.93317  0.10498  0.81024     C
C      0.93317  0.18976  0.10498     C
C      0.93317  0.18976  0.89502     C
C      0.93317  0.31024  0.39502     C
C      0.93317  0.31024  0.60498     C
C      0.93317  0.39502  0.31024     C
C      0.93317  0.39502  0.68976     C
C      0.93317  0.60498  0.31024     C
C      0.93317  0.60498  0.68976     C
C      0.93317  0.68976  0.39502     C
C      0.93317  0.68976  0.60498     C
C      0.93317  0.81024  0.10498     C
C      0.93317  0.81024  0.89502     C
C      0.93317  0.89502  0.18976     C
C      0.93317  0.89502  0.81024     C
C      0.95913  0.11995  0.17485     C
C      0.95913  0.11995  0.82515     C
C      0.95913  0.17485  0.11995     C
C      0.95913  0.17485  0.88005     C
C      0.95913  0.32515  0.38005     C
C      0.95913  0.32515  0.61995     C
C      0.95913  0.38005  0.32515     C
C      0.95913  0.38005  0.67485     C
C      0.95913  0.61995  0.32515     C
C      0.95913  0.61995  0.67485     C
C      0.95913  0.67485  0.38005     C
C      0.95913  0.67485  0.61995     C
C      0.95913  0.82515  0.11995     C
C      0.95913  0.82515  0.88005     C
C      0.95913  0.88005  0.17485     C
C      0.95913  0.88005  0.82515     C
O      0.96912  0.14347  0.18687     O
O      0.96912  0.14347  0.81313     O
O      0.96912  0.18687  0.14347     O
O      0.96912  0.18687  0.85653     O
O      0.96912  0.31313  0.35653     O
O      0.96912  0.31313  0.64347     O
O      0.96912  0.35653  0.31313     O
O      0.96912  0.35653  0.68687     O
O      0.96912  0.64347  0.31313     O
O      0.96912  0.64347  0.68687     O
O      0.96912  0.68687  0.35653     O
O      0.96912  0.68687  0.64347     O
O      0.96912  0.81313  0.14347     O
O      0.96912  0.81313  0.85653     O
O      0.96912  0.85653  0.18687     O
O      0.96912  0.85653  0.81313     O
O      0.96915  0.10798  0.15137     O
O      0.96915  0.10798  0.84863     O
O      0.96915  0.15137  0.10798     O
O      0.96915  0.15137  0.89202     O
O      0.96915  0.34863  0.39202     O
O      0.96915  0.34863  0.60798     O
O      0.96915  0.39202  0.34863     O
O      0.96915  0.39202  0.65137     O
O      0.96915  0.60798  0.34863     O
O      0.96915  0.60798  0.65137     O
O      0.96915  0.65137  0.39202     O
O      0.96915  0.65137  0.60798     O
O      0.96915  0.84863  0.10798     O
O      0.96915  0.84863  0.89202     O
O      0.96915  0.89202  0.15137     O
O      0.96915  0.89202  0.84863     O
