data_I
_chemical_name_common  '/home/zhangsd/repos/MofS-CGCNN/ML/data/SSD/clean_cifs/OPIFUQ_clean'
_cell_length_a 41.00510
_cell_length_b 41.00510
_cell_length_c 41.00510
_cell_angle_alpha 90.00000
_cell_angle_beta  90.00000
_cell_angle_gamma 90.00000
_space_group_name_H-M_alt      'P 1'


loop_
_space_group_symop_operation_xyz
  'x, y, z' 

loop_
_atom_site_label
_atom_site_fract_x
_atom_site_fract_y
_atom_site_fract_z
_atom_site_type_symbol
Sr         0.0  0.18796  0.26812    Sr
Sr         0.0  0.18796  0.73188    Sr
Sr         0.0  0.23188  0.18796    Sr
Sr         0.0  0.23188  0.81204    Sr
O          0.0     0.25     0.25     O
O          0.0     0.25     0.75     O
Sr         0.0  0.26812  0.31204    Sr
Sr         0.0  0.26812  0.68796    Sr
Sr         0.0  0.31204  0.23188    Sr
Sr         0.0  0.31204  0.76812    Sr
Sr         0.0  0.68796  0.23188    Sr
Sr         0.0  0.68796  0.76812    Sr
Sr         0.0  0.73188  0.31204    Sr
Sr         0.0  0.73188  0.68796    Sr
O          0.0     0.75     0.25     O
O          0.0     0.75     0.75     O
Sr         0.0  0.76812  0.18796    Sr
Sr         0.0  0.76812  0.81204    Sr
Sr         0.0  0.81204  0.26812    Sr
Sr         0.0  0.81204  0.73188    Sr
O      0.03787  0.19521  0.21654     O
O      0.03787  0.19521  0.78346     O
O      0.03787  0.21654  0.30479     O
O      0.03787  0.21654  0.69521     O
O      0.03787  0.28346  0.19521     O
O      0.03787  0.28346  0.80479     O
O      0.03787  0.30479  0.28346     O
O      0.03787  0.30479  0.71654     O
O      0.03787  0.69521  0.28346     O
O      0.03787  0.69521  0.71654     O
O      0.03787  0.71654  0.19521     O
O      0.03787  0.71654  0.80479     O
O      0.03787  0.78346  0.30479     O
O      0.03787  0.78346  0.69521     O
O      0.03787  0.80479  0.21654     O
O      0.03787  0.80479  0.78346     O
O       0.0501  0.15253  0.24707     O
O       0.0501  0.15253  0.75293     O
O       0.0501  0.24707  0.34747     O
O       0.0501  0.24707  0.65253     O
O       0.0501  0.25293  0.15253     O
O       0.0501  0.25293  0.84747     O
O       0.0501  0.34747  0.25293     O
O       0.0501  0.34747  0.74707     O
O       0.0501  0.65253  0.25293     O
O       0.0501  0.65253  0.74707     O
O       0.0501  0.74707  0.15253     O
O       0.0501  0.74707  0.84747     O
O       0.0501  0.75293  0.34747     O
O       0.0501  0.75293  0.65253     O
O       0.0501  0.84747  0.24707     O
O       0.0501  0.84747  0.75293     O
C      0.05514  0.17077  0.22306     C
C      0.05514  0.17077  0.77694     C
C      0.05514  0.22306  0.32923     C
C      0.05514  0.22306  0.67077     C
C      0.05514  0.27694  0.17077     C
C      0.05514  0.27694  0.82923     C
C      0.05514  0.32923  0.27694     C
C      0.05514  0.32923  0.72306     C
C      0.05514  0.67077  0.27694     C
C      0.05514  0.67077  0.72306     C
C      0.05514  0.72306  0.17077     C
C      0.05514  0.72306  0.82923     C
C      0.05514  0.77694  0.32923     C
C      0.05514  0.77694  0.67077     C
C      0.05514  0.82923  0.22306     C
C      0.05514  0.82923  0.77694     C
H       0.0819   0.1659   0.3001     H
H       0.0819   0.1659   0.6999     H
H       0.0819   0.1999   0.1659     H
H       0.0819   0.1999   0.8341     H
H       0.0819   0.3001   0.3341     H
H       0.0819   0.3001   0.6659     H
H       0.0819   0.3341   0.1999     H
H       0.0819   0.3341   0.8001     H
H       0.0819   0.6659   0.1999     H
H       0.0819   0.6659   0.8001     H
H       0.0819   0.6999   0.3341     H
H       0.0819   0.6999   0.6659     H
H       0.0819   0.8001   0.1659     H
H       0.0819   0.8001   0.8341     H
H       0.0819   0.8341   0.3001     H
H       0.0819   0.8341   0.6999     H
C      0.08284  0.16351  0.20127     C
C      0.08284  0.16351  0.79873     C
C      0.08284  0.20127  0.33649     C
C      0.08284  0.20127  0.66351     C
C      0.08284  0.29873  0.16351     C
C      0.08284  0.29873  0.83649     C
C      0.08284  0.33649  0.29873     C
C      0.08284  0.33649  0.70127     C
C      0.08284  0.66351  0.29873     C
C      0.08284  0.66351  0.70127     C
C      0.08284  0.70127  0.16351     C
C      0.08284  0.70127  0.83649     C
C      0.08284  0.79873  0.33649     C
C      0.08284  0.79873  0.66351     C
C      0.08284  0.83649  0.20127     C
C      0.08284  0.83649  0.79873     C
C      0.09242  0.17387   0.3185     C
C      0.09242  0.17387   0.6815     C
C      0.09242   0.1815  0.17387     C
C      0.09242   0.1815  0.82613     C
C      0.09242   0.3185  0.32613     C
C      0.09242   0.3185  0.67387     C
C      0.09242  0.32613   0.1815     C
C      0.09242  0.32613   0.8185     C
C      0.09242  0.67387   0.1815     C
C      0.09242  0.67387   0.8185     C
C      0.09242   0.6815  0.32613     C
C      0.09242   0.6815  0.67387     C
C      0.09242   0.8185  0.17387     C
C      0.09242   0.8185  0.82613     C
C      0.09242  0.82613   0.3185     C
C      0.09242  0.82613   0.6815     C
S      0.10739  0.13026  0.20964     S
S      0.10739  0.13026  0.79036     S
S      0.10739  0.20964  0.36974     S
S      0.10739  0.20964  0.63026     S
S      0.10739  0.29036  0.13026     S
S      0.10739  0.29036  0.86974     S
S      0.10739  0.36974  0.29036     S
S      0.10739  0.36974  0.70964     S
S      0.10739  0.63026  0.29036     S
S      0.10739  0.63026  0.70964     S
S      0.10739  0.70964  0.13026     S
S      0.10739  0.70964  0.86974     S
S      0.10739  0.79036  0.36974     S
S      0.10739  0.79036  0.63026     S
S      0.10739  0.86974  0.20964     S
S      0.10739  0.86974  0.79036     S
C       0.1212   0.1599   0.3331     C
C       0.1212   0.1599   0.6669     C
C       0.1212   0.1669   0.1599     C
C       0.1212   0.1669   0.8401     C
C       0.1212   0.3331   0.3401     C
C       0.1212   0.3331   0.6599     C
C       0.1212   0.3401   0.1669     C
C       0.1212   0.3401   0.8331     C
C       0.1212   0.6599   0.1669     C
C       0.1212   0.6599   0.8331     C
C       0.1212   0.6669   0.3401     C
C       0.1212   0.6669   0.6599     C
C       0.1212   0.8331   0.1599     C
C       0.1212   0.8331   0.8401     C
C       0.1212   0.8401   0.3331     C
C       0.1212   0.8401   0.6669     C
S      0.13026  0.10739  0.29036     S
S      0.13026  0.10739  0.70964     S
S      0.13026  0.20964  0.10739     S
S      0.13026  0.20964  0.89261     S
S      0.13026  0.29036  0.39261     S
S      0.13026  0.29036  0.60739     S
S      0.13026  0.39261  0.20964     S
S      0.13026  0.39261  0.79036     S
S      0.13026  0.60739  0.20964     S
S      0.13026  0.60739  0.79036     S
S      0.13026  0.70964  0.39261     S
S      0.13026  0.70964  0.60739     S
S      0.13026  0.79036  0.10739     S
S      0.13026  0.79036  0.89261     S
S      0.13026  0.89261  0.29036     S
S      0.13026  0.89261  0.70964     S
C        0.132   0.1392  0.17679     C
C        0.132   0.1392  0.82321     C
C        0.132  0.17679   0.3608     C
C        0.132  0.17679   0.6392     C
C        0.132  0.32321   0.1392     C
C        0.132  0.32321   0.8608     C
C        0.132   0.3608  0.32321     C
C        0.132   0.3608  0.67679     C
C        0.132   0.6392  0.32321     C
C        0.132   0.6392  0.67679     C
C        0.132  0.67679   0.1392     C
C        0.132  0.67679   0.8608     C
C        0.132  0.82321   0.3608     C
C        0.132  0.82321   0.6392     C
C        0.132   0.8608  0.17679     C
C        0.132   0.8608  0.82321     C
C       0.1392    0.132  0.32321     C
C       0.1392    0.132  0.67679     C
C       0.1392  0.17679    0.132     C
C       0.1392  0.17679    0.868     C
C       0.1392  0.32321    0.368     C
C       0.1392  0.32321    0.632     C
C       0.1392    0.368  0.17679     C
C       0.1392    0.368  0.82321     C
C       0.1392    0.632  0.17679     C
C       0.1392    0.632  0.82321     C
C       0.1392  0.67679    0.368     C
C       0.1392  0.67679    0.632     C
C       0.1392  0.82321    0.132     C
C       0.1392  0.82321    0.868     C
C       0.1392    0.868  0.32321     C
C       0.1392    0.868  0.67679     C
O      0.15253   0.0501  0.25293     O
O      0.15253   0.0501  0.74707     O
O      0.15253  0.24707   0.0501     O
O      0.15253  0.24707   0.9499     O
O      0.15253  0.25293   0.4499     O
O      0.15253  0.25293   0.5501     O
O      0.15253   0.4499  0.24707     O
O      0.15253   0.4499  0.75293     O
O      0.15253   0.5501  0.24707     O
O      0.15253   0.5501  0.75293     O
O      0.15253  0.74707   0.4499     O
O      0.15253  0.74707   0.5501     O
O      0.15253  0.75293   0.0501     O
O      0.15253  0.75293   0.9499     O
O      0.15253   0.9499  0.25293     O
O      0.15253   0.9499  0.74707     O
C       0.1599   0.1212   0.1669     C
C       0.1599   0.1212   0.8331     C
C       0.1599   0.1669   0.3788     C
C       0.1599   0.1669   0.6212     C
C       0.1599   0.3331   0.1212     C
C       0.1599   0.3331   0.8788     C
C       0.1599   0.3788   0.3331     C
C       0.1599   0.3788   0.6669     C
C       0.1599   0.6212   0.3331     C
C       0.1599   0.6212   0.6669     C
C       0.1599   0.6669   0.1212     C
C       0.1599   0.6669   0.8788     C
C       0.1599   0.8331   0.3788     C
C       0.1599   0.8331   0.6212     C
C       0.1599   0.8788   0.1669     C
C       0.1599   0.8788   0.8331     C
C      0.16351  0.08284  0.29873     C
C      0.16351  0.08284  0.70127     C
C      0.16351  0.20127  0.08284     C
C      0.16351  0.20127  0.91716     C
C      0.16351  0.29873  0.41716     C
C      0.16351  0.29873  0.58284     C
C      0.16351  0.41716  0.20127     C
C      0.16351  0.41716  0.79873     C
C      0.16351  0.58284  0.20127     C
C      0.16351  0.58284  0.79873     C
C      0.16351  0.70127  0.41716     C
C      0.16351  0.70127  0.58284     C
C      0.16351  0.79873  0.08284     C
C      0.16351  0.79873  0.91716     C
C      0.16351  0.91716  0.29873     C
C      0.16351  0.91716  0.70127     C
H       0.1659   0.0819   0.1999     H
H       0.1659   0.0819   0.8001     H
H       0.1659   0.1999   0.4181     H
H       0.1659   0.1999   0.5819     H
H       0.1659   0.3001   0.0819     H
H       0.1659   0.3001   0.9181     H
H       0.1659   0.4181   0.3001     H
H       0.1659   0.4181   0.6999     H
H       0.1659   0.5819   0.3001     H
H       0.1659   0.5819   0.6999     H
H       0.1659   0.6999   0.0819     H
H       0.1659   0.6999   0.9181     H
H       0.1659   0.8001   0.4181     H
H       0.1659   0.8001   0.5819     H
H       0.1659   0.9181   0.1999     H
H       0.1659   0.9181   0.8001     H
C       0.1669   0.1212   0.3401     C
C       0.1669   0.1212   0.6599     C
C       0.1669   0.1599   0.1212     C
C       0.1669   0.1599   0.8788     C
C       0.1669   0.3401   0.3788     C
C       0.1669   0.3401   0.6212     C
C       0.1669   0.3788   0.1599     C
C       0.1669   0.3788   0.8401     C
C       0.1669   0.6212   0.1599     C
C       0.1669   0.6212   0.8401     C
C       0.1669   0.6599   0.3788     C
C       0.1669   0.6599   0.6212     C
C       0.1669   0.8401   0.1212     C
C       0.1669   0.8401   0.8788     C
C       0.1669   0.8788   0.3401     C
C       0.1669   0.8788   0.6599     C
C      0.17077  0.05514  0.27694     C
C      0.17077  0.05514  0.72306     C
C      0.17077  0.22306  0.05514     C
C      0.17077  0.22306  0.94486     C
C      0.17077  0.27694  0.44486     C
C      0.17077  0.27694  0.55514     C
C      0.17077  0.44486  0.22306     C
C      0.17077  0.44486  0.77694     C
C      0.17077  0.55514  0.22306     C
C      0.17077  0.55514  0.77694     C
C      0.17077  0.72306  0.44486     C
C      0.17077  0.72306  0.55514     C
C      0.17077  0.77694  0.05514     C
C      0.17077  0.77694  0.94486     C
C      0.17077  0.94486  0.27694     C
C      0.17077  0.94486  0.72306     C
C      0.17387  0.09242   0.1815     C
C      0.17387  0.09242   0.8185     C
C      0.17387   0.1815  0.40758     C
C      0.17387   0.1815  0.59242     C
C      0.17387   0.3185  0.09242     C
C      0.17387   0.3185  0.90758     C
C      0.17387  0.40758   0.3185     C
C      0.17387  0.40758   0.6815     C
C      0.17387  0.59242   0.3185     C
C      0.17387  0.59242   0.6815     C
C      0.17387   0.6815  0.09242     C
C      0.17387   0.6815  0.90758     C
C      0.17387   0.8185  0.40758     C
C      0.17387   0.8185  0.59242     C
C      0.17387  0.90758   0.1815     C
C      0.17387  0.90758   0.8185     C
C      0.17679    0.132   0.1392     C
C      0.17679    0.132   0.8608     C
C      0.17679   0.1392    0.368     C
C      0.17679   0.1392    0.632     C
C      0.17679   0.3608    0.132     C
C      0.17679   0.3608    0.868     C
C      0.17679    0.368   0.3608     C
C      0.17679    0.368   0.6392     C
C      0.17679    0.632   0.3608     C
C      0.17679    0.632   0.6392     C
C      0.17679   0.6392    0.132     C
C      0.17679   0.6392    0.868     C
C      0.17679   0.8608    0.368     C
C      0.17679   0.8608    0.632     C
C      0.17679    0.868   0.1392     C
C      0.17679    0.868   0.8608     C
C       0.1815  0.09242  0.32613     C
C       0.1815  0.09242  0.67387     C
C       0.1815  0.17387  0.09242     C
C       0.1815  0.17387  0.90758     C
C       0.1815  0.32613  0.40758     C
C       0.1815  0.32613  0.59242     C
C       0.1815  0.40758  0.17387     C
C       0.1815  0.40758  0.82613     C
C       0.1815  0.59242  0.17387     C
C       0.1815  0.59242  0.82613     C
C       0.1815  0.67387  0.40758     C
C       0.1815  0.67387  0.59242     C
C       0.1815  0.82613  0.09242     C
C       0.1815  0.82613  0.90758     C
C       0.1815  0.90758  0.32613     C
C       0.1815  0.90758  0.67387     C
Sr     0.18796      0.0  0.23188    Sr
Sr     0.18796      0.0  0.76812    Sr
Sr     0.18796  0.23188      0.5    Sr
Sr     0.18796  0.26812      0.0    Sr
Sr     0.18796      0.5  0.26812    Sr
Sr     0.18796      0.5  0.73188    Sr
Sr     0.18796  0.73188      0.0    Sr
Sr     0.18796  0.76812      0.5    Sr
O      0.19521  0.03787  0.28346     O
O      0.19521  0.03787  0.71654     O
O      0.19521  0.21654  0.03787     O
O      0.19521  0.21654  0.96213     O
O      0.19521  0.28346  0.46213     O
O      0.19521  0.28346  0.53787     O
O      0.19521  0.46213  0.21654     O
O      0.19521  0.46213  0.78346     O
O      0.19521  0.53787  0.21654     O
O      0.19521  0.53787  0.78346     O
O      0.19521  0.71654  0.46213     O
O      0.19521  0.71654  0.53787     O
O      0.19521  0.78346  0.03787     O
O      0.19521  0.78346  0.96213     O
O      0.19521  0.96213  0.28346     O
O      0.19521  0.96213  0.71654     O
H       0.1999   0.0819   0.3341     H
H       0.1999   0.0819   0.6659     H
H       0.1999   0.1659   0.0819     H
H       0.1999   0.1659   0.9181     H
H       0.1999   0.3341   0.4181     H
H       0.1999   0.3341   0.5819     H
H       0.1999   0.4181   0.1659     H
H       0.1999   0.4181   0.8341     H
H       0.1999   0.5819   0.1659     H
H       0.1999   0.5819   0.8341     H
H       0.1999   0.6659   0.4181     H
H       0.1999   0.6659   0.5819     H
H       0.1999   0.8341   0.0819     H
H       0.1999   0.8341   0.9181     H
H       0.1999   0.9181   0.3341     H
H       0.1999   0.9181   0.6659     H
C      0.20127  0.08284  0.16351     C
C      0.20127  0.08284  0.83649     C
C      0.20127  0.16351  0.41716     C
C      0.20127  0.16351  0.58284     C
C      0.20127  0.33649  0.08284     C
C      0.20127  0.33649  0.91716     C
C      0.20127  0.41716  0.33649     C
C      0.20127  0.41716  0.66351     C
C      0.20127  0.58284  0.33649     C
C      0.20127  0.58284  0.66351     C
C      0.20127  0.66351  0.08284     C
C      0.20127  0.66351  0.91716     C
C      0.20127  0.83649  0.41716     C
C      0.20127  0.83649  0.58284     C
C      0.20127  0.91716  0.16351     C
C      0.20127  0.91716  0.83649     C
S      0.20964  0.10739  0.13026     S
S      0.20964  0.10739  0.86974     S
S      0.20964  0.13026  0.39261     S
S      0.20964  0.13026  0.60739     S
S      0.20964  0.36974  0.10739     S
S      0.20964  0.36974  0.89261     S
S      0.20964  0.39261  0.36974     S
S      0.20964  0.39261  0.63026     S
S      0.20964  0.60739  0.36974     S
S      0.20964  0.60739  0.63026     S
S      0.20964  0.63026  0.10739     S
S      0.20964  0.63026  0.89261     S
S      0.20964  0.86974  0.39261     S
S      0.20964  0.86974  0.60739     S
S      0.20964  0.89261  0.13026     S
S      0.20964  0.89261  0.86974     S
O      0.21654  0.03787  0.19521     O
O      0.21654  0.03787  0.80479     O
O      0.21654  0.19521  0.46213     O
O      0.21654  0.19521  0.53787     O
O      0.21654  0.30479  0.03787     O
O      0.21654  0.30479  0.96213     O
O      0.21654  0.46213  0.30479     O
O      0.21654  0.46213  0.69521     O
O      0.21654  0.53787  0.30479     O
O      0.21654  0.53787  0.69521     O
O      0.21654  0.69521  0.03787     O
O      0.21654  0.69521  0.96213     O
O      0.21654  0.80479  0.46213     O
O      0.21654  0.80479  0.53787     O
O      0.21654  0.96213  0.19521     O
O      0.21654  0.96213  0.80479     O
C      0.22306  0.05514  0.17077     C
C      0.22306  0.05514  0.82923     C
C      0.22306  0.17077  0.44486     C
C      0.22306  0.17077  0.55514     C
C      0.22306  0.32923  0.05514     C
C      0.22306  0.32923  0.94486     C
C      0.22306  0.44486  0.32923     C
C      0.22306  0.44486  0.67077     C
C      0.22306  0.55514  0.32923     C
C      0.22306  0.55514  0.67077     C
C      0.22306  0.67077  0.05514     C
C      0.22306  0.67077  0.94486     C
C      0.22306  0.82923  0.44486     C
C      0.22306  0.82923  0.55514     C
C      0.22306  0.94486  0.17077     C
C      0.22306  0.94486  0.82923     C
Sr     0.23188      0.0  0.31204    Sr
Sr     0.23188      0.0  0.68796    Sr
Sr     0.23188  0.18796      0.0    Sr
Sr     0.23188  0.31204      0.5    Sr
Sr     0.23188      0.5  0.18796    Sr
Sr     0.23188      0.5  0.81204    Sr
Sr     0.23188  0.68796      0.5    Sr
Sr     0.23188  0.81204      0.0    Sr
O      0.24707   0.0501  0.15253     O
O      0.24707   0.0501  0.84747     O
O      0.24707  0.15253   0.4499     O
O      0.24707  0.15253   0.5501     O
O      0.24707  0.34747   0.0501     O
O      0.24707  0.34747   0.9499     O
O      0.24707   0.4499  0.34747     O
O      0.24707   0.4499  0.65253     O
O      0.24707   0.5501  0.34747     O
O      0.24707   0.5501  0.65253     O
O      0.24707  0.65253   0.0501     O
O      0.24707  0.65253   0.9499     O
O      0.24707  0.84747   0.4499     O
O      0.24707  0.84747   0.5501     O
O      0.24707   0.9499  0.15253     O
O      0.24707   0.9499  0.84747     O
O         0.25      0.0     0.25     O
O         0.25      0.0     0.75     O
O         0.25     0.25      0.0     O
O         0.25     0.25      0.5     O
O         0.25      0.5     0.25     O
O         0.25      0.5     0.75     O
O         0.25     0.75      0.0     O
O         0.25     0.75      0.5     O
O      0.25293   0.0501  0.34747     O
O      0.25293   0.0501  0.65253     O
O      0.25293  0.15253   0.0501     O
O      0.25293  0.15253   0.9499     O
O      0.25293  0.34747   0.4499     O
O      0.25293  0.34747   0.5501     O
O      0.25293   0.4499  0.15253     O
O      0.25293   0.4499  0.84747     O
O      0.25293   0.5501  0.15253     O
O      0.25293   0.5501  0.84747     O
O      0.25293  0.65253   0.4499     O
O      0.25293  0.65253   0.5501     O
O      0.25293  0.84747   0.0501     O
O      0.25293  0.84747   0.9499     O
O      0.25293   0.9499  0.34747     O
O      0.25293   0.9499  0.65253     O
Sr     0.26812      0.0  0.18796    Sr
Sr     0.26812      0.0  0.81204    Sr
Sr     0.26812  0.18796      0.5    Sr
Sr     0.26812  0.31204      0.0    Sr
Sr     0.26812      0.5  0.31204    Sr
Sr     0.26812      0.5  0.68796    Sr
Sr     0.26812  0.68796      0.0    Sr
Sr     0.26812  0.81204      0.5    Sr
C      0.27694  0.05514  0.32923     C
C      0.27694  0.05514  0.67077     C
C      0.27694  0.17077  0.05514     C
C      0.27694  0.17077  0.94486     C
C      0.27694  0.32923  0.44486     C
C      0.27694  0.32923  0.55514     C
C      0.27694  0.44486  0.17077     C
C      0.27694  0.44486  0.82923     C
C      0.27694  0.55514  0.17077     C
C      0.27694  0.55514  0.82923     C
C      0.27694  0.67077  0.44486     C
C      0.27694  0.67077  0.55514     C
C      0.27694  0.82923  0.05514     C
C      0.27694  0.82923  0.94486     C
C      0.27694  0.94486  0.32923     C
C      0.27694  0.94486  0.67077     C
O      0.28346  0.03787  0.30479     O
O      0.28346  0.03787  0.69521     O
O      0.28346  0.19521  0.03787     O
O      0.28346  0.19521  0.96213     O
O      0.28346  0.30479  0.46213     O
O      0.28346  0.30479  0.53787     O
O      0.28346  0.46213  0.19521     O
O      0.28346  0.46213  0.80479     O
O      0.28346  0.53787  0.19521     O
O      0.28346  0.53787  0.80479     O
O      0.28346  0.69521  0.46213     O
O      0.28346  0.69521  0.53787     O
O      0.28346  0.80479  0.03787     O
O      0.28346  0.80479  0.96213     O
O      0.28346  0.96213  0.30479     O
O      0.28346  0.96213  0.69521     O
S      0.29036  0.10739  0.36974     S
S      0.29036  0.10739  0.63026     S
S      0.29036  0.13026  0.10739     S
S      0.29036  0.13026  0.89261     S
S      0.29036  0.36974  0.39261     S
S      0.29036  0.36974  0.60739     S
S      0.29036  0.39261  0.13026     S
S      0.29036  0.39261  0.86974     S
S      0.29036  0.60739  0.13026     S
S      0.29036  0.60739  0.86974     S
S      0.29036  0.63026  0.39261     S
S      0.29036  0.63026  0.60739     S
S      0.29036  0.86974  0.10739     S
S      0.29036  0.86974  0.89261     S
S      0.29036  0.89261  0.36974     S
S      0.29036  0.89261  0.63026     S
C      0.29873  0.08284  0.33649     C
C      0.29873  0.08284  0.66351     C
C      0.29873  0.16351  0.08284     C
C      0.29873  0.16351  0.91716     C
C      0.29873  0.33649  0.41716     C
C      0.29873  0.33649  0.58284     C
C      0.29873  0.41716  0.16351     C
C      0.29873  0.41716  0.83649     C
C      0.29873  0.58284  0.16351     C
C      0.29873  0.58284  0.83649     C
C      0.29873  0.66351  0.41716     C
C      0.29873  0.66351  0.58284     C
C      0.29873  0.83649  0.08284     C
C      0.29873  0.83649  0.91716     C
C      0.29873  0.91716  0.33649     C
C      0.29873  0.91716  0.66351     C
H       0.3001   0.0819   0.1659     H
H       0.3001   0.0819   0.8341     H
H       0.3001   0.1659   0.4181     H
H       0.3001   0.1659   0.5819     H
H       0.3001   0.3341   0.0819     H
H       0.3001   0.3341   0.9181     H
H       0.3001   0.4181   0.3341     H
H       0.3001   0.4181   0.6659     H
H       0.3001   0.5819   0.3341     H
H       0.3001   0.5819   0.6659     H
H       0.3001   0.6659   0.0819     H
H       0.3001   0.6659   0.9181     H
H       0.3001   0.8341   0.4181     H
H       0.3001   0.8341   0.5819     H
H       0.3001   0.9181   0.1659     H
H       0.3001   0.9181   0.8341     H
O      0.30479  0.03787  0.21654     O
O      0.30479  0.03787  0.78346     O
O      0.30479  0.21654  0.46213     O
O      0.30479  0.21654  0.53787     O
O      0.30479  0.28346  0.03787     O
O      0.30479  0.28346  0.96213     O
O      0.30479  0.46213  0.28346     O
O      0.30479  0.46213  0.71654     O
O      0.30479  0.53787  0.28346     O
O      0.30479  0.53787  0.71654     O
O      0.30479  0.71654  0.03787     O
O      0.30479  0.71654  0.96213     O
O      0.30479  0.78346  0.46213     O
O      0.30479  0.78346  0.53787     O
O      0.30479  0.96213  0.21654     O
O      0.30479  0.96213  0.78346     O
Sr     0.31204      0.0  0.26812    Sr
Sr     0.31204      0.0  0.73188    Sr
Sr     0.31204  0.23188      0.0    Sr
Sr     0.31204  0.26812      0.5    Sr
Sr     0.31204      0.5  0.23188    Sr
Sr     0.31204      0.5  0.76812    Sr
Sr     0.31204  0.73188      0.5    Sr
Sr     0.31204  0.76812      0.0    Sr
C       0.3185  0.09242  0.17387     C
C       0.3185  0.09242  0.82613     C
C       0.3185  0.17387  0.40758     C
C       0.3185  0.17387  0.59242     C
C       0.3185  0.32613  0.09242     C
C       0.3185  0.32613  0.90758     C
C       0.3185  0.40758  0.32613     C
C       0.3185  0.40758  0.67387     C
C       0.3185  0.59242  0.32613     C
C       0.3185  0.59242  0.67387     C
C       0.3185  0.67387  0.09242     C
C       0.3185  0.67387  0.90758     C
C       0.3185  0.82613  0.40758     C
C       0.3185  0.82613  0.59242     C
C       0.3185  0.90758  0.17387     C
C       0.3185  0.90758  0.82613     C
C      0.32321    0.132   0.3608     C
C      0.32321    0.132   0.6392     C
C      0.32321   0.1392    0.132     C
C      0.32321   0.1392    0.868     C
C      0.32321   0.3608    0.368     C
C      0.32321   0.3608    0.632     C
C      0.32321    0.368   0.1392     C
C      0.32321    0.368   0.8608     C
C      0.32321    0.632   0.1392     C
C      0.32321    0.632   0.8608     C
C      0.32321   0.6392    0.368     C
C      0.32321   0.6392    0.632     C
C      0.32321   0.8608    0.132     C
C      0.32321   0.8608    0.868     C
C      0.32321    0.868   0.3608     C
C      0.32321    0.868   0.6392     C
C      0.32613  0.09242   0.3185     C
C      0.32613  0.09242   0.6815     C
C      0.32613   0.1815  0.09242     C
C      0.32613   0.1815  0.90758     C
C      0.32613   0.3185  0.40758     C
C      0.32613   0.3185  0.59242     C
C      0.32613  0.40758   0.1815     C
C      0.32613  0.40758   0.8185     C
C      0.32613  0.59242   0.1815     C
C      0.32613  0.59242   0.8185     C
C      0.32613   0.6815  0.40758     C
C      0.32613   0.6815  0.59242     C
C      0.32613   0.8185  0.09242     C
C      0.32613   0.8185  0.90758     C
C      0.32613  0.90758   0.3185     C
C      0.32613  0.90758   0.6815     C
C      0.32923  0.05514  0.22306     C
C      0.32923  0.05514  0.77694     C
C      0.32923  0.22306  0.44486     C
C      0.32923  0.22306  0.55514     C
C      0.32923  0.27694  0.05514     C
C      0.32923  0.27694  0.94486     C
C      0.32923  0.44486  0.27694     C
C      0.32923  0.44486  0.72306     C
C      0.32923  0.55514  0.27694     C
C      0.32923  0.55514  0.72306     C
C      0.32923  0.72306  0.05514     C
C      0.32923  0.72306  0.94486     C
C      0.32923  0.77694  0.44486     C
C      0.32923  0.77694  0.55514     C
C      0.32923  0.94486  0.22306     C
C      0.32923  0.94486  0.77694     C
C       0.3331   0.1212   0.1599     C
C       0.3331   0.1212   0.8401     C
C       0.3331   0.1599   0.3788     C
C       0.3331   0.1599   0.6212     C
C       0.3331   0.3401   0.1212     C
C       0.3331   0.3401   0.8788     C
C       0.3331   0.3788   0.3401     C
C       0.3331   0.3788   0.6599     C
C       0.3331   0.6212   0.3401     C
C       0.3331   0.6212   0.6599     C
C       0.3331   0.6599   0.1212     C
C       0.3331   0.6599   0.8788     C
C       0.3331   0.8401   0.3788     C
C       0.3331   0.8401   0.6212     C
C       0.3331   0.8788   0.1599     C
C       0.3331   0.8788   0.8401     C
H       0.3341   0.0819   0.3001     H
H       0.3341   0.0819   0.6999     H
H       0.3341   0.1999   0.0819     H
H       0.3341   0.1999   0.9181     H
H       0.3341   0.3001   0.4181     H
H       0.3341   0.3001   0.5819     H
H       0.3341   0.4181   0.1999     H
H       0.3341   0.4181   0.8001     H
H       0.3341   0.5819   0.1999     H
H       0.3341   0.5819   0.8001     H
H       0.3341   0.6999   0.4181     H
H       0.3341   0.6999   0.5819     H
H       0.3341   0.8001   0.0819     H
H       0.3341   0.8001   0.9181     H
H       0.3341   0.9181   0.3001     H
H       0.3341   0.9181   0.6999     H
C      0.33649  0.08284  0.20127     C
C      0.33649  0.08284  0.79873     C
C      0.33649  0.20127  0.41716     C
C      0.33649  0.20127  0.58284     C
C      0.33649  0.29873  0.08284     C
C      0.33649  0.29873  0.91716     C
C      0.33649  0.41716  0.29873     C
C      0.33649  0.41716  0.70127     C
C      0.33649  0.58284  0.29873     C
C      0.33649  0.58284  0.70127     C
C      0.33649  0.70127  0.08284     C
C      0.33649  0.70127  0.91716     C
C      0.33649  0.79873  0.41716     C
C      0.33649  0.79873  0.58284     C
C      0.33649  0.91716  0.20127     C
C      0.33649  0.91716  0.79873     C
C       0.3401   0.1212   0.3331     C
C       0.3401   0.1212   0.6669     C
C       0.3401   0.1669   0.1212     C
C       0.3401   0.1669   0.8788     C
C       0.3401   0.3331   0.3788     C
C       0.3401   0.3331   0.6212     C
C       0.3401   0.3788   0.1669     C
C       0.3401   0.3788   0.8331     C
C       0.3401   0.6212   0.1669     C
C       0.3401   0.6212   0.8331     C
C       0.3401   0.6669   0.3788     C
C       0.3401   0.6669   0.6212     C
C       0.3401   0.8331   0.1212     C
C       0.3401   0.8331   0.8788     C
C       0.3401   0.8788   0.3331     C
C       0.3401   0.8788   0.6669     C
O      0.34747   0.0501  0.24707     O
O      0.34747   0.0501  0.75293     O
O      0.34747  0.24707   0.4499     O
O      0.34747  0.24707   0.5501     O
O      0.34747  0.25293   0.0501     O
O      0.34747  0.25293   0.9499     O
O      0.34747   0.4499  0.25293     O
O      0.34747   0.4499  0.74707     O
O      0.34747   0.5501  0.25293     O
O      0.34747   0.5501  0.74707     O
O      0.34747  0.74707   0.0501     O
O      0.34747  0.74707   0.9499     O
O      0.34747  0.75293   0.4499     O
O      0.34747  0.75293   0.5501     O
O      0.34747   0.9499  0.24707     O
O      0.34747   0.9499  0.75293     O
C       0.3608    0.132  0.17679     C
C       0.3608    0.132  0.82321     C
C       0.3608  0.17679    0.368     C
C       0.3608  0.17679    0.632     C
C       0.3608  0.32321    0.132     C
C       0.3608  0.32321    0.868     C
C       0.3608    0.368  0.32321     C
C       0.3608    0.368  0.67679     C
C       0.3608    0.632  0.32321     C
C       0.3608    0.632  0.67679     C
C       0.3608  0.67679    0.132     C
C       0.3608  0.67679    0.868     C
C       0.3608  0.82321    0.368     C
C       0.3608  0.82321    0.632     C
C       0.3608    0.868  0.17679     C
C       0.3608    0.868  0.82321     C
C        0.368   0.1392  0.32321     C
C        0.368   0.1392  0.67679     C
C        0.368  0.17679   0.1392     C
C        0.368  0.17679   0.8608     C
C        0.368  0.32321   0.3608     C
C        0.368  0.32321   0.6392     C
C        0.368   0.3608  0.17679     C
C        0.368   0.3608  0.82321     C
C        0.368   0.6392  0.17679     C
C        0.368   0.6392  0.82321     C
C        0.368  0.67679   0.3608     C
C        0.368  0.67679   0.6392     C
C        0.368  0.82321   0.1392     C
C        0.368  0.82321   0.8608     C
C        0.368   0.8608  0.32321     C
C        0.368   0.8608  0.67679     C
S      0.36974  0.10739  0.20964     S
S      0.36974  0.10739  0.79036     S
S      0.36974  0.20964  0.39261     S
S      0.36974  0.20964  0.60739     S
S      0.36974  0.29036  0.10739     S
S      0.36974  0.29036  0.89261     S
S      0.36974  0.39261  0.29036     S
S      0.36974  0.39261  0.70964     S
S      0.36974  0.60739  0.29036     S
S      0.36974  0.60739  0.70964     S
S      0.36974  0.70964  0.10739     S
S      0.36974  0.70964  0.89261     S
S      0.36974  0.79036  0.39261     S
S      0.36974  0.79036  0.60739     S
S      0.36974  0.89261  0.20964     S
S      0.36974  0.89261  0.79036     S
C       0.3788   0.1599   0.1669     C
C       0.3788   0.1599   0.8331     C
C       0.3788   0.1669   0.3401     C
C       0.3788   0.1669   0.6599     C
C       0.3788   0.3331   0.1599     C
C       0.3788   0.3331   0.8401     C
C       0.3788   0.3401   0.3331     C
C       0.3788   0.3401   0.6669     C
C       0.3788   0.6599   0.3331     C
C       0.3788   0.6599   0.6669     C
C       0.3788   0.6669   0.1599     C
C       0.3788   0.6669   0.8401     C
C       0.3788   0.8331   0.3401     C
C       0.3788   0.8331   0.6599     C
C       0.3788   0.8401   0.1669     C
C       0.3788   0.8401   0.8331     C
S      0.39261  0.13026  0.29036     S
S      0.39261  0.13026  0.70964     S
S      0.39261  0.20964  0.13026     S
S      0.39261  0.20964  0.86974     S
S      0.39261  0.29036  0.36974     S
S      0.39261  0.29036  0.63026     S
S      0.39261  0.36974  0.20964     S
S      0.39261  0.36974  0.79036     S
S      0.39261  0.63026  0.20964     S
S      0.39261  0.63026  0.79036     S
S      0.39261  0.70964  0.36974     S
S      0.39261  0.70964  0.63026     S
S      0.39261  0.79036  0.13026     S
S      0.39261  0.79036  0.86974     S
S      0.39261  0.86974  0.29036     S
S      0.39261  0.86974  0.70964     S
C      0.40758  0.17387   0.1815     C
C      0.40758  0.17387   0.8185     C
C      0.40758   0.1815  0.32613     C
C      0.40758   0.1815  0.67387     C
C      0.40758   0.3185  0.17387     C
C      0.40758   0.3185  0.82613     C
C      0.40758  0.32613   0.3185     C
C      0.40758  0.32613   0.6815     C
C      0.40758  0.67387   0.3185     C
C      0.40758  0.67387   0.6815     C
C      0.40758   0.6815  0.17387     C
C      0.40758   0.6815  0.82613     C
C      0.40758   0.8185  0.32613     C
C      0.40758   0.8185  0.67387     C
C      0.40758  0.82613   0.1815     C
C      0.40758  0.82613   0.8185     C
C      0.41716  0.16351  0.29873     C
C      0.41716  0.16351  0.70127     C
C      0.41716  0.20127  0.16351     C
C      0.41716  0.20127  0.83649     C
C      0.41716  0.29873  0.33649     C
C      0.41716  0.29873  0.66351     C
C      0.41716  0.33649  0.20127     C
C      0.41716  0.33649  0.79873     C
C      0.41716  0.66351  0.20127     C
C      0.41716  0.66351  0.79873     C
C      0.41716  0.70127  0.33649     C
C      0.41716  0.70127  0.66351     C
C      0.41716  0.79873  0.16351     C
C      0.41716  0.79873  0.83649     C
C      0.41716  0.83649  0.29873     C
C      0.41716  0.83649  0.70127     C
H       0.4181   0.1659   0.1999     H
H       0.4181   0.1659   0.8001     H
H       0.4181   0.1999   0.3341     H
H       0.4181   0.1999   0.6659     H
H       0.4181   0.3001   0.1659     H
H       0.4181   0.3001   0.8341     H
H       0.4181   0.3341   0.3001     H
H       0.4181   0.3341   0.6999     H
H       0.4181   0.6659   0.3001     H
H       0.4181   0.6659   0.6999     H
H       0.4181   0.6999   0.1659     H
H       0.4181   0.6999   0.8341     H
H       0.4181   0.8001   0.3341     H
H       0.4181   0.8001   0.6659     H
H       0.4181   0.8341   0.1999     H
H       0.4181   0.8341   0.8001     H
C      0.44486  0.17077  0.27694     C
C      0.44486  0.17077  0.72306     C
C      0.44486  0.22306  0.17077     C
C      0.44486  0.22306  0.82923     C
C      0.44486  0.27694  0.32923     C
C      0.44486  0.27694  0.67077     C
C      0.44486  0.32923  0.22306     C
C      0.44486  0.32923  0.77694     C
C      0.44486  0.67077  0.22306     C
C      0.44486  0.67077  0.77694     C
C      0.44486  0.72306  0.32923     C
C      0.44486  0.72306  0.67077     C
C      0.44486  0.77694  0.17077     C
C      0.44486  0.77694  0.82923     C
C      0.44486  0.82923  0.27694     C
C      0.44486  0.82923  0.72306     C
O       0.4499  0.15253  0.25293     O
O       0.4499  0.15253  0.74707     O
O       0.4499  0.24707  0.15253     O
O       0.4499  0.24707  0.84747     O
O       0.4499  0.25293  0.34747     O
O       0.4499  0.25293  0.65253     O
O       0.4499  0.34747  0.24707     O
O       0.4499  0.34747  0.75293     O
O       0.4499  0.65253  0.24707     O
O       0.4499  0.65253  0.75293     O
O       0.4499  0.74707  0.34747     O
O       0.4499  0.74707  0.65253     O
O       0.4499  0.75293  0.15253     O
O       0.4499  0.75293  0.84747     O
O       0.4499  0.84747  0.25293     O
O       0.4499  0.84747  0.74707     O
O      0.46213  0.19521  0.28346     O
O      0.46213  0.19521  0.71654     O
O      0.46213  0.21654  0.19521     O
O      0.46213  0.21654  0.80479     O
O      0.46213  0.28346  0.30479     O
O      0.46213  0.28346  0.69521     O
O      0.46213  0.30479  0.21654     O
O      0.46213  0.30479  0.78346     O
O      0.46213  0.69521  0.21654     O
O      0.46213  0.69521  0.78346     O
O      0.46213  0.71654  0.30479     O
O      0.46213  0.71654  0.69521     O
O      0.46213  0.78346  0.19521     O
O      0.46213  0.78346  0.80479     O
O      0.46213  0.80479  0.28346     O
O      0.46213  0.80479  0.71654     O
Sr         0.5  0.18796  0.23188    Sr
Sr         0.5  0.18796  0.76812    Sr
Sr         0.5  0.23188  0.31204    Sr
Sr         0.5  0.23188  0.68796    Sr
O          0.5     0.25     0.25     O
O          0.5     0.25     0.75     O
Sr         0.5  0.26812  0.18796    Sr
Sr         0.5  0.26812  0.81204    Sr
Sr         0.5  0.31204  0.26812    Sr
Sr         0.5  0.31204  0.73188    Sr
Sr         0.5  0.68796  0.26812    Sr
Sr         0.5  0.68796  0.73188    Sr
Sr         0.5  0.73188  0.18796    Sr
Sr         0.5  0.73188  0.81204    Sr
O          0.5     0.75     0.25     O
O          0.5     0.75     0.75     O
Sr         0.5  0.76812  0.31204    Sr
Sr         0.5  0.76812  0.68796    Sr
Sr         0.5  0.81204  0.23188    Sr
Sr         0.5  0.81204  0.76812    Sr
O      0.53787  0.19521  0.28346     O
O      0.53787  0.19521  0.71654     O
O      0.53787  0.21654  0.19521     O
O      0.53787  0.21654  0.80479     O
O      0.53787  0.28346  0.30479     O
O      0.53787  0.28346  0.69521     O
O      0.53787  0.30479  0.21654     O
O      0.53787  0.30479  0.78346     O
O      0.53787  0.69521  0.21654     O
O      0.53787  0.69521  0.78346     O
O      0.53787  0.71654  0.30479     O
O      0.53787  0.71654  0.69521     O
O      0.53787  0.78346  0.19521     O
O      0.53787  0.78346  0.80479     O
O      0.53787  0.80479  0.28346     O
O      0.53787  0.80479  0.71654     O
O       0.5501  0.15253  0.25293     O
O       0.5501  0.15253  0.74707     O
O       0.5501  0.24707  0.15253     O
O       0.5501  0.24707  0.84747     O
O       0.5501  0.25293  0.34747     O
O       0.5501  0.25293  0.65253     O
O       0.5501  0.34747  0.24707     O
O       0.5501  0.34747  0.75293     O
O       0.5501  0.65253  0.24707     O
O       0.5501  0.65253  0.75293     O
O       0.5501  0.74707  0.34747     O
O       0.5501  0.74707  0.65253     O
O       0.5501  0.75293  0.15253     O
O       0.5501  0.75293  0.84747     O
O       0.5501  0.84747  0.25293     O
O       0.5501  0.84747  0.74707     O
C      0.55514  0.17077  0.27694     C
C      0.55514  0.17077  0.72306     C
C      0.55514  0.22306  0.17077     C
C      0.55514  0.22306  0.82923     C
C      0.55514  0.27694  0.32923     C
C      0.55514  0.27694  0.67077     C
C      0.55514  0.32923  0.22306     C
C      0.55514  0.32923  0.77694     C
C      0.55514  0.67077  0.22306     C
C      0.55514  0.67077  0.77694     C
C      0.55514  0.72306  0.32923     C
C      0.55514  0.72306  0.67077     C
C      0.55514  0.77694  0.17077     C
C      0.55514  0.77694  0.82923     C
C      0.55514  0.82923  0.27694     C
C      0.55514  0.82923  0.72306     C
H       0.5819   0.1659   0.1999     H
H       0.5819   0.1659   0.8001     H
H       0.5819   0.1999   0.3341     H
H       0.5819   0.1999   0.6659     H
H       0.5819   0.3001   0.1659     H
H       0.5819   0.3001   0.8341     H
H       0.5819   0.3341   0.3001     H
H       0.5819   0.3341   0.6999     H
H       0.5819   0.6659   0.3001     H
H       0.5819   0.6659   0.6999     H
H       0.5819   0.6999   0.1659     H
H       0.5819   0.6999   0.8341     H
H       0.5819   0.8001   0.3341     H
H       0.5819   0.8001   0.6659     H
H       0.5819   0.8341   0.1999     H
H       0.5819   0.8341   0.8001     H
C      0.58284  0.16351  0.29873     C
C      0.58284  0.16351  0.70127     C
C      0.58284  0.20127  0.16351     C
C      0.58284  0.20127  0.83649     C
C      0.58284  0.29873  0.33649     C
C      0.58284  0.29873  0.66351     C
C      0.58284  0.33649  0.20127     C
C      0.58284  0.33649  0.79873     C
C      0.58284  0.66351  0.20127     C
C      0.58284  0.66351  0.79873     C
C      0.58284  0.70127  0.33649     C
C      0.58284  0.70127  0.66351     C
C      0.58284  0.79873  0.16351     C
C      0.58284  0.79873  0.83649     C
C      0.58284  0.83649  0.29873     C
C      0.58284  0.83649  0.70127     C
C      0.59242  0.17387   0.1815     C
C      0.59242  0.17387   0.8185     C
C      0.59242   0.1815  0.32613     C
C      0.59242   0.1815  0.67387     C
C      0.59242   0.3185  0.17387     C
C      0.59242   0.3185  0.82613     C
C      0.59242  0.32613   0.3185     C
C      0.59242  0.32613   0.6815     C
C      0.59242  0.67387   0.3185     C
C      0.59242  0.67387   0.6815     C
C      0.59242   0.6815  0.17387     C
C      0.59242   0.6815  0.82613     C
C      0.59242   0.8185  0.32613     C
C      0.59242   0.8185  0.67387     C
C      0.59242  0.82613   0.1815     C
C      0.59242  0.82613   0.8185     C
S      0.60739  0.13026  0.29036     S
S      0.60739  0.13026  0.70964     S
S      0.60739  0.20964  0.13026     S
S      0.60739  0.20964  0.86974     S
S      0.60739  0.29036  0.36974     S
S      0.60739  0.29036  0.63026     S
S      0.60739  0.36974  0.20964     S
S      0.60739  0.36974  0.79036     S
S      0.60739  0.63026  0.20964     S
S      0.60739  0.63026  0.79036     S
S      0.60739  0.70964  0.36974     S
S      0.60739  0.70964  0.63026     S
S      0.60739  0.79036  0.13026     S
S      0.60739  0.79036  0.86974     S
S      0.60739  0.86974  0.29036     S
S      0.60739  0.86974  0.70964     S
C       0.6212   0.1599   0.1669     C
C       0.6212   0.1599   0.8331     C
C       0.6212   0.1669   0.3401     C
C       0.6212   0.1669   0.6599     C
C       0.6212   0.3331   0.1599     C
C       0.6212   0.3331   0.8401     C
C       0.6212   0.3401   0.3331     C
C       0.6212   0.3401   0.6669     C
C       0.6212   0.6599   0.3331     C
C       0.6212   0.6599   0.6669     C
C       0.6212   0.6669   0.1599     C
C       0.6212   0.6669   0.8401     C
C       0.6212   0.8331   0.3401     C
C       0.6212   0.8331   0.6599     C
C       0.6212   0.8401   0.1669     C
C       0.6212   0.8401   0.8331     C
S      0.63026  0.10739  0.20964     S
S      0.63026  0.10739  0.79036     S
S      0.63026  0.20964  0.39261     S
S      0.63026  0.20964  0.60739     S
S      0.63026  0.29036  0.10739     S
S      0.63026  0.29036  0.89261     S
S      0.63026  0.39261  0.29036     S
S      0.63026  0.39261  0.70964     S
S      0.63026  0.60739  0.29036     S
S      0.63026  0.60739  0.70964     S
S      0.63026  0.70964  0.10739     S
S      0.63026  0.70964  0.89261     S
S      0.63026  0.79036  0.39261     S
S      0.63026  0.79036  0.60739     S
S      0.63026  0.89261  0.20964     S
S      0.63026  0.89261  0.79036     S
C        0.632   0.1392  0.32321     C
C        0.632   0.1392  0.67679     C
C        0.632  0.17679   0.1392     C
C        0.632  0.17679   0.8608     C
C        0.632  0.32321   0.3608     C
C        0.632  0.32321   0.6392     C
C        0.632   0.3608  0.17679     C
C        0.632   0.3608  0.82321     C
C        0.632   0.6392  0.17679     C
C        0.632   0.6392  0.82321     C
C        0.632  0.67679   0.3608     C
C        0.632  0.67679   0.6392     C
C        0.632  0.82321   0.1392     C
C        0.632  0.82321   0.8608     C
C        0.632   0.8608  0.32321     C
C        0.632   0.8608  0.67679     C
C       0.6392    0.132  0.17679     C
C       0.6392    0.132  0.82321     C
C       0.6392  0.17679    0.368     C
C       0.6392  0.17679    0.632     C
C       0.6392  0.32321    0.132     C
C       0.6392  0.32321    0.868     C
C       0.6392    0.368  0.32321     C
C       0.6392    0.368  0.67679     C
C       0.6392    0.632  0.32321     C
C       0.6392    0.632  0.67679     C
C       0.6392  0.67679    0.132     C
C       0.6392  0.67679    0.868     C
C       0.6392  0.82321    0.368     C
C       0.6392  0.82321    0.632     C
C       0.6392    0.868  0.17679     C
C       0.6392    0.868  0.82321     C
O      0.65253   0.0501  0.24707     O
O      0.65253   0.0501  0.75293     O
O      0.65253  0.24707   0.4499     O
O      0.65253  0.24707   0.5501     O
O      0.65253  0.25293   0.0501     O
O      0.65253  0.25293   0.9499     O
O      0.65253   0.4499  0.25293     O
O      0.65253   0.4499  0.74707     O
O      0.65253   0.5501  0.25293     O
O      0.65253   0.5501  0.74707     O
O      0.65253  0.74707   0.0501     O
O      0.65253  0.74707   0.9499     O
O      0.65253  0.75293   0.4499     O
O      0.65253  0.75293   0.5501     O
O      0.65253   0.9499  0.24707     O
O      0.65253   0.9499  0.75293     O
C       0.6599   0.1212   0.3331     C
C       0.6599   0.1212   0.6669     C
C       0.6599   0.1669   0.1212     C
C       0.6599   0.1669   0.8788     C
C       0.6599   0.3331   0.3788     C
C       0.6599   0.3331   0.6212     C
C       0.6599   0.3788   0.1669     C
C       0.6599   0.3788   0.8331     C
C       0.6599   0.6212   0.1669     C
C       0.6599   0.6212   0.8331     C
C       0.6599   0.6669   0.3788     C
C       0.6599   0.6669   0.6212     C
C       0.6599   0.8331   0.1212     C
C       0.6599   0.8331   0.8788     C
C       0.6599   0.8788   0.3331     C
C       0.6599   0.8788   0.6669     C
C      0.66351  0.08284  0.20127     C
C      0.66351  0.08284  0.79873     C
C      0.66351  0.20127  0.41716     C
C      0.66351  0.20127  0.58284     C
C      0.66351  0.29873  0.08284     C
C      0.66351  0.29873  0.91716     C
C      0.66351  0.41716  0.29873     C
C      0.66351  0.41716  0.70127     C
C      0.66351  0.58284  0.29873     C
C      0.66351  0.58284  0.70127     C
C      0.66351  0.70127  0.08284     C
C      0.66351  0.70127  0.91716     C
C      0.66351  0.79873  0.41716     C
C      0.66351  0.79873  0.58284     C
C      0.66351  0.91716  0.20127     C
C      0.66351  0.91716  0.79873     C
H       0.6659   0.0819   0.3001     H
H       0.6659   0.0819   0.6999     H
H       0.6659   0.1999   0.0819     H
H       0.6659   0.1999   0.9181     H
H       0.6659   0.3001   0.4181     H
H       0.6659   0.3001   0.5819     H
H       0.6659   0.4181   0.1999     H
H       0.6659   0.4181   0.8001     H
H       0.6659   0.5819   0.1999     H
H       0.6659   0.5819   0.8001     H
H       0.6659   0.6999   0.4181     H
H       0.6659   0.6999   0.5819     H
H       0.6659   0.8001   0.0819     H
H       0.6659   0.8001   0.9181     H
H       0.6659   0.9181   0.3001     H
H       0.6659   0.9181   0.6999     H
C       0.6669   0.1212   0.1599     C
C       0.6669   0.1212   0.8401     C
C       0.6669   0.1599   0.3788     C
C       0.6669   0.1599   0.6212     C
C       0.6669   0.3401   0.1212     C
C       0.6669   0.3401   0.8788     C
C       0.6669   0.3788   0.3401     C
C       0.6669   0.3788   0.6599     C
C       0.6669   0.6212   0.3401     C
C       0.6669   0.6212   0.6599     C
C       0.6669   0.6599   0.1212     C
C       0.6669   0.6599   0.8788     C
C       0.6669   0.8401   0.3788     C
C       0.6669   0.8401   0.6212     C
C       0.6669   0.8788   0.1599     C
C       0.6669   0.8788   0.8401     C
C      0.67077  0.05514  0.22306     C
C      0.67077  0.05514  0.77694     C
C      0.67077  0.22306  0.44486     C
C      0.67077  0.22306  0.55514     C
C      0.67077  0.27694  0.05514     C
C      0.67077  0.27694  0.94486     C
C      0.67077  0.44486  0.27694     C
C      0.67077  0.44486  0.72306     C
C      0.67077  0.55514  0.27694     C
C      0.67077  0.55514  0.72306     C
C      0.67077  0.72306  0.05514     C
C      0.67077  0.72306  0.94486     C
C      0.67077  0.77694  0.44486     C
C      0.67077  0.77694  0.55514     C
C      0.67077  0.94486  0.22306     C
C      0.67077  0.94486  0.77694     C
C      0.67387  0.09242   0.3185     C
C      0.67387  0.09242   0.6815     C
C      0.67387   0.1815  0.09242     C
C      0.67387   0.1815  0.90758     C
C      0.67387   0.3185  0.40758     C
C      0.67387   0.3185  0.59242     C
C      0.67387  0.40758   0.1815     C
C      0.67387  0.40758   0.8185     C
C      0.67387  0.59242   0.1815     C
C      0.67387  0.59242   0.8185     C
C      0.67387   0.6815  0.40758     C
C      0.67387   0.6815  0.59242     C
C      0.67387   0.8185  0.09242     C
C      0.67387   0.8185  0.90758     C
C      0.67387  0.90758   0.3185     C
C      0.67387  0.90758   0.6815     C
C      0.67679    0.132   0.3608     C
C      0.67679    0.132   0.6392     C
C      0.67679   0.1392    0.132     C
C      0.67679   0.1392    0.868     C
C      0.67679   0.3608    0.368     C
C      0.67679   0.3608    0.632     C
C      0.67679    0.368   0.1392     C
C      0.67679    0.368   0.8608     C
C      0.67679    0.632   0.1392     C
C      0.67679    0.632   0.8608     C
C      0.67679   0.6392    0.368     C
C      0.67679   0.6392    0.632     C
C      0.67679   0.8608    0.132     C
C      0.67679   0.8608    0.868     C
C      0.67679    0.868   0.3608     C
C      0.67679    0.868   0.6392     C
C       0.6815  0.09242  0.17387     C
C       0.6815  0.09242  0.82613     C
C       0.6815  0.17387  0.40758     C
C       0.6815  0.17387  0.59242     C
C       0.6815  0.32613  0.09242     C
C       0.6815  0.32613  0.90758     C
C       0.6815  0.40758  0.32613     C
C       0.6815  0.40758  0.67387     C
C       0.6815  0.59242  0.32613     C
C       0.6815  0.59242  0.67387     C
C       0.6815  0.67387  0.09242     C
C       0.6815  0.67387  0.90758     C
C       0.6815  0.82613  0.40758     C
C       0.6815  0.82613  0.59242     C
C       0.6815  0.90758  0.17387     C
C       0.6815  0.90758  0.82613     C
Sr     0.68796      0.0  0.26812    Sr
Sr     0.68796      0.0  0.73188    Sr
Sr     0.68796  0.23188      0.0    Sr
Sr     0.68796  0.26812      0.5    Sr
Sr     0.68796      0.5  0.23188    Sr
Sr     0.68796      0.5  0.76812    Sr
Sr     0.68796  0.73188      0.5    Sr
Sr     0.68796  0.76812      0.0    Sr
O      0.69521  0.03787  0.21654     O
O      0.69521  0.03787  0.78346     O
O      0.69521  0.21654  0.46213     O
O      0.69521  0.21654  0.53787     O
O      0.69521  0.28346  0.03787     O
O      0.69521  0.28346  0.96213     O
O      0.69521  0.46213  0.28346     O
O      0.69521  0.46213  0.71654     O
O      0.69521  0.53787  0.28346     O
O      0.69521  0.53787  0.71654     O
O      0.69521  0.71654  0.03787     O
O      0.69521  0.71654  0.96213     O
O      0.69521  0.78346  0.46213     O
O      0.69521  0.78346  0.53787     O
O      0.69521  0.96213  0.21654     O
O      0.69521  0.96213  0.78346     O
H       0.6999   0.0819   0.1659     H
H       0.6999   0.0819   0.8341     H
H       0.6999   0.1659   0.4181     H
H       0.6999   0.1659   0.5819     H
H       0.6999   0.3341   0.0819     H
H       0.6999   0.3341   0.9181     H
H       0.6999   0.4181   0.3341     H
H       0.6999   0.4181   0.6659     H
H       0.6999   0.5819   0.3341     H
H       0.6999   0.5819   0.6659     H
H       0.6999   0.6659   0.0819     H
H       0.6999   0.6659   0.9181     H
H       0.6999   0.8341   0.4181     H
H       0.6999   0.8341   0.5819     H
H       0.6999   0.9181   0.1659     H
H       0.6999   0.9181   0.8341     H
C      0.70127  0.08284  0.33649     C
C      0.70127  0.08284  0.66351     C
C      0.70127  0.16351  0.08284     C
C      0.70127  0.16351  0.91716     C
C      0.70127  0.33649  0.41716     C
C      0.70127  0.33649  0.58284     C
C      0.70127  0.41716  0.16351     C
C      0.70127  0.41716  0.83649     C
C      0.70127  0.58284  0.16351     C
C      0.70127  0.58284  0.83649     C
C      0.70127  0.66351  0.41716     C
C      0.70127  0.66351  0.58284     C
C      0.70127  0.83649  0.08284     C
C      0.70127  0.83649  0.91716     C
C      0.70127  0.91716  0.33649     C
C      0.70127  0.91716  0.66351     C
S      0.70964  0.10739  0.36974     S
S      0.70964  0.10739  0.63026     S
S      0.70964  0.13026  0.10739     S
S      0.70964  0.13026  0.89261     S
S      0.70964  0.36974  0.39261     S
S      0.70964  0.36974  0.60739     S
S      0.70964  0.39261  0.13026     S
S      0.70964  0.39261  0.86974     S
S      0.70964  0.60739  0.13026     S
S      0.70964  0.60739  0.86974     S
S      0.70964  0.63026  0.39261     S
S      0.70964  0.63026  0.60739     S
S      0.70964  0.86974  0.10739     S
S      0.70964  0.86974  0.89261     S
S      0.70964  0.89261  0.36974     S
S      0.70964  0.89261  0.63026     S
O      0.71654  0.03787  0.30479     O
O      0.71654  0.03787  0.69521     O
O      0.71654  0.19521  0.03787     O
O      0.71654  0.19521  0.96213     O
O      0.71654  0.30479  0.46213     O
O      0.71654  0.30479  0.53787     O
O      0.71654  0.46213  0.19521     O
O      0.71654  0.46213  0.80479     O
O      0.71654  0.53787  0.19521     O
O      0.71654  0.53787  0.80479     O
O      0.71654  0.69521  0.46213     O
O      0.71654  0.69521  0.53787     O
O      0.71654  0.80479  0.03787     O
O      0.71654  0.80479  0.96213     O
O      0.71654  0.96213  0.30479     O
O      0.71654  0.96213  0.69521     O
C      0.72306  0.05514  0.32923     C
C      0.72306  0.05514  0.67077     C
C      0.72306  0.17077  0.05514     C
C      0.72306  0.17077  0.94486     C
C      0.72306  0.32923  0.44486     C
C      0.72306  0.32923  0.55514     C
C      0.72306  0.44486  0.17077     C
C      0.72306  0.44486  0.82923     C
C      0.72306  0.55514  0.17077     C
C      0.72306  0.55514  0.82923     C
C      0.72306  0.67077  0.44486     C
C      0.72306  0.67077  0.55514     C
C      0.72306  0.82923  0.05514     C
C      0.72306  0.82923  0.94486     C
C      0.72306  0.94486  0.32923     C
C      0.72306  0.94486  0.67077     C
Sr     0.73188      0.0  0.18796    Sr
Sr     0.73188      0.0  0.81204    Sr
Sr     0.73188  0.18796      0.5    Sr
Sr     0.73188  0.31204      0.0    Sr
Sr     0.73188      0.5  0.31204    Sr
Sr     0.73188      0.5  0.68796    Sr
Sr     0.73188  0.68796      0.0    Sr
Sr     0.73188  0.81204      0.5    Sr
O      0.74707   0.0501  0.34747     O
O      0.74707   0.0501  0.65253     O
O      0.74707  0.15253   0.0501     O
O      0.74707  0.15253   0.9499     O
O      0.74707  0.34747   0.4499     O
O      0.74707  0.34747   0.5501     O
O      0.74707   0.4499  0.15253     O
O      0.74707   0.4499  0.84747     O
O      0.74707   0.5501  0.15253     O
O      0.74707   0.5501  0.84747     O
O      0.74707  0.65253   0.4499     O
O      0.74707  0.65253   0.5501     O
O      0.74707  0.84747   0.0501     O
O      0.74707  0.84747   0.9499     O
O      0.74707   0.9499  0.34747     O
O      0.74707   0.9499  0.65253     O
O         0.75      0.0     0.25     O
O         0.75      0.0     0.75     O
O         0.75     0.25      0.0     O
O         0.75     0.25      0.5     O
O         0.75      0.5     0.25     O
O         0.75      0.5     0.75     O
O         0.75     0.75      0.0     O
O         0.75     0.75      0.5     O
O      0.75293   0.0501  0.15253     O
O      0.75293   0.0501  0.84747     O
O      0.75293  0.15253   0.4499     O
O      0.75293  0.15253   0.5501     O
O      0.75293  0.34747   0.0501     O
O      0.75293  0.34747   0.9499     O
O      0.75293   0.4499  0.34747     O
O      0.75293   0.4499  0.65253     O
O      0.75293   0.5501  0.34747     O
O      0.75293   0.5501  0.65253     O
O      0.75293  0.65253   0.0501     O
O      0.75293  0.65253   0.9499     O
O      0.75293  0.84747   0.4499     O
O      0.75293  0.84747   0.5501     O
O      0.75293   0.9499  0.15253     O
O      0.75293   0.9499  0.84747     O
Sr     0.76812      0.0  0.31204    Sr
Sr     0.76812      0.0  0.68796    Sr
Sr     0.76812  0.18796      0.0    Sr
Sr     0.76812  0.31204      0.5    Sr
Sr     0.76812      0.5  0.18796    Sr
Sr     0.76812      0.5  0.81204    Sr
Sr     0.76812  0.68796      0.5    Sr
Sr     0.76812  0.81204      0.0    Sr
C      0.77694  0.05514  0.17077     C
C      0.77694  0.05514  0.82923     C
C      0.77694  0.17077  0.44486     C
C      0.77694  0.17077  0.55514     C
C      0.77694  0.32923  0.05514     C
C      0.77694  0.32923  0.94486     C
C      0.77694  0.44486  0.32923     C
C      0.77694  0.44486  0.67077     C
C      0.77694  0.55514  0.32923     C
C      0.77694  0.55514  0.67077     C
C      0.77694  0.67077  0.05514     C
C      0.77694  0.67077  0.94486     C
C      0.77694  0.82923  0.44486     C
C      0.77694  0.82923  0.55514     C
C      0.77694  0.94486  0.17077     C
C      0.77694  0.94486  0.82923     C
O      0.78346  0.03787  0.19521     O
O      0.78346  0.03787  0.80479     O
O      0.78346  0.19521  0.46213     O
O      0.78346  0.19521  0.53787     O
O      0.78346  0.30479  0.03787     O
O      0.78346  0.30479  0.96213     O
O      0.78346  0.46213  0.30479     O
O      0.78346  0.46213  0.69521     O
O      0.78346  0.53787  0.30479     O
O      0.78346  0.53787  0.69521     O
O      0.78346  0.69521  0.03787     O
O      0.78346  0.69521  0.96213     O
O      0.78346  0.80479  0.46213     O
O      0.78346  0.80479  0.53787     O
O      0.78346  0.96213  0.19521     O
O      0.78346  0.96213  0.80479     O
S      0.79036  0.10739  0.13026     S
S      0.79036  0.10739  0.86974     S
S      0.79036  0.13026  0.39261     S
S      0.79036  0.13026  0.60739     S
S      0.79036  0.36974  0.10739     S
S      0.79036  0.36974  0.89261     S
S      0.79036  0.39261  0.36974     S
S      0.79036  0.39261  0.63026     S
S      0.79036  0.60739  0.36974     S
S      0.79036  0.60739  0.63026     S
S      0.79036  0.63026  0.10739     S
S      0.79036  0.63026  0.89261     S
S      0.79036  0.86974  0.39261     S
S      0.79036  0.86974  0.60739     S
S      0.79036  0.89261  0.13026     S
S      0.79036  0.89261  0.86974     S
C      0.79873  0.08284  0.16351     C
C      0.79873  0.08284  0.83649     C
C      0.79873  0.16351  0.41716     C
C      0.79873  0.16351  0.58284     C
C      0.79873  0.33649  0.08284     C
C      0.79873  0.33649  0.91716     C
C      0.79873  0.41716  0.33649     C
C      0.79873  0.41716  0.66351     C
C      0.79873  0.58284  0.33649     C
C      0.79873  0.58284  0.66351     C
C      0.79873  0.66351  0.08284     C
C      0.79873  0.66351  0.91716     C
C      0.79873  0.83649  0.41716     C
C      0.79873  0.83649  0.58284     C
C      0.79873  0.91716  0.16351     C
C      0.79873  0.91716  0.83649     C
H       0.8001   0.0819   0.3341     H
H       0.8001   0.0819   0.6659     H
H       0.8001   0.1659   0.0819     H
H       0.8001   0.1659   0.9181     H
H       0.8001   0.3341   0.4181     H
H       0.8001   0.3341   0.5819     H
H       0.8001   0.4181   0.1659     H
H       0.8001   0.4181   0.8341     H
H       0.8001   0.5819   0.1659     H
H       0.8001   0.5819   0.8341     H
H       0.8001   0.6659   0.4181     H
H       0.8001   0.6659   0.5819     H
H       0.8001   0.8341   0.0819     H
H       0.8001   0.8341   0.9181     H
H       0.8001   0.9181   0.3341     H
H       0.8001   0.9181   0.6659     H
O      0.80479  0.03787  0.28346     O
O      0.80479  0.03787  0.71654     O
O      0.80479  0.21654  0.03787     O
O      0.80479  0.21654  0.96213     O
O      0.80479  0.28346  0.46213     O
O      0.80479  0.28346  0.53787     O
O      0.80479  0.46213  0.21654     O
O      0.80479  0.46213  0.78346     O
O      0.80479  0.53787  0.21654     O
O      0.80479  0.53787  0.78346     O
O      0.80479  0.71654  0.46213     O
O      0.80479  0.71654  0.53787     O
O      0.80479  0.78346  0.03787     O
O      0.80479  0.78346  0.96213     O
O      0.80479  0.96213  0.28346     O
O      0.80479  0.96213  0.71654     O
Sr     0.81204      0.0  0.23188    Sr
Sr     0.81204      0.0  0.76812    Sr
Sr     0.81204  0.23188      0.5    Sr
Sr     0.81204  0.26812      0.0    Sr
Sr     0.81204      0.5  0.26812    Sr
Sr     0.81204      0.5  0.73188    Sr
Sr     0.81204  0.73188      0.0    Sr
Sr     0.81204  0.76812      0.5    Sr
C       0.8185  0.09242  0.32613     C
C       0.8185  0.09242  0.67387     C
C       0.8185  0.17387  0.09242     C
C       0.8185  0.17387  0.90758     C
C       0.8185  0.32613  0.40758     C
C       0.8185  0.32613  0.59242     C
C       0.8185  0.40758  0.17387     C
C       0.8185  0.40758  0.82613     C
C       0.8185  0.59242  0.17387     C
C       0.8185  0.59242  0.82613     C
C       0.8185  0.67387  0.40758     C
C       0.8185  0.67387  0.59242     C
C       0.8185  0.82613  0.09242     C
C       0.8185  0.82613  0.90758     C
C       0.8185  0.90758  0.32613     C
C       0.8185  0.90758  0.67387     C
C      0.82321    0.132   0.1392     C
C      0.82321    0.132   0.8608     C
C      0.82321   0.1392    0.368     C
C      0.82321   0.1392    0.632     C
C      0.82321   0.3608    0.132     C
C      0.82321   0.3608    0.868     C
C      0.82321    0.368   0.3608     C
C      0.82321    0.368   0.6392     C
C      0.82321    0.632   0.3608     C
C      0.82321    0.632   0.6392     C
C      0.82321   0.6392    0.132     C
C      0.82321   0.6392    0.868     C
C      0.82321   0.8608    0.368     C
C      0.82321   0.8608    0.632     C
C      0.82321    0.868   0.1392     C
C      0.82321    0.868   0.8608     C
C      0.82613  0.09242   0.1815     C
C      0.82613  0.09242   0.8185     C
C      0.82613   0.1815  0.40758     C
C      0.82613   0.1815  0.59242     C
C      0.82613   0.3185  0.09242     C
C      0.82613   0.3185  0.90758     C
C      0.82613  0.40758   0.3185     C
C      0.82613  0.40758   0.6815     C
C      0.82613  0.59242   0.3185     C
C      0.82613  0.59242   0.6815     C
C      0.82613   0.6815  0.09242     C
C      0.82613   0.6815  0.90758     C
C      0.82613   0.8185  0.40758     C
C      0.82613   0.8185  0.59242     C
C      0.82613  0.90758   0.1815     C
C      0.82613  0.90758   0.8185     C
C      0.82923  0.05514  0.27694     C
C      0.82923  0.05514  0.72306     C
C      0.82923  0.22306  0.05514     C
C      0.82923  0.22306  0.94486     C
C      0.82923  0.27694  0.44486     C
C      0.82923  0.27694  0.55514     C
C      0.82923  0.44486  0.22306     C
C      0.82923  0.44486  0.77694     C
C      0.82923  0.55514  0.22306     C
C      0.82923  0.55514  0.77694     C
C      0.82923  0.72306  0.44486     C
C      0.82923  0.72306  0.55514     C
C      0.82923  0.77694  0.05514     C
C      0.82923  0.77694  0.94486     C
C      0.82923  0.94486  0.27694     C
C      0.82923  0.94486  0.72306     C
C       0.8331   0.1212   0.3401     C
C       0.8331   0.1212   0.6599     C
C       0.8331   0.1599   0.1212     C
C       0.8331   0.1599   0.8788     C
C       0.8331   0.3401   0.3788     C
C       0.8331   0.3401   0.6212     C
C       0.8331   0.3788   0.1599     C
C       0.8331   0.3788   0.8401     C
C       0.8331   0.6212   0.1599     C
C       0.8331   0.6212   0.8401     C
C       0.8331   0.6599   0.3788     C
C       0.8331   0.6599   0.6212     C
C       0.8331   0.8401   0.1212     C
C       0.8331   0.8401   0.8788     C
C       0.8331   0.8788   0.3401     C
C       0.8331   0.8788   0.6599     C
H       0.8341   0.0819   0.1999     H
H       0.8341   0.0819   0.8001     H
H       0.8341   0.1999   0.4181     H
H       0.8341   0.1999   0.5819     H
H       0.8341   0.3001   0.0819     H
H       0.8341   0.3001   0.9181     H
H       0.8341   0.4181   0.3001     H
H       0.8341   0.4181   0.6999     H
H       0.8341   0.5819   0.3001     H
H       0.8341   0.5819   0.6999     H
H       0.8341   0.6999   0.0819     H
H       0.8341   0.6999   0.9181     H
H       0.8341   0.8001   0.4181     H
H       0.8341   0.8001   0.5819     H
H       0.8341   0.9181   0.1999     H
H       0.8341   0.9181   0.8001     H
C      0.83649  0.08284  0.29873     C
C      0.83649  0.08284  0.70127     C
C      0.83649  0.20127  0.08284     C
C      0.83649  0.20127  0.91716     C
C      0.83649  0.29873  0.41716     C
C      0.83649  0.29873  0.58284     C
C      0.83649  0.41716  0.20127     C
C      0.83649  0.41716  0.79873     C
C      0.83649  0.58284  0.20127     C
C      0.83649  0.58284  0.79873     C
C      0.83649  0.70127  0.41716     C
C      0.83649  0.70127  0.58284     C
C      0.83649  0.79873  0.08284     C
C      0.83649  0.79873  0.91716     C
C      0.83649  0.91716  0.29873     C
C      0.83649  0.91716  0.70127     C
C       0.8401   0.1212   0.1669     C
C       0.8401   0.1212   0.8331     C
C       0.8401   0.1669   0.3788     C
C       0.8401   0.1669   0.6212     C
C       0.8401   0.3331   0.1212     C
C       0.8401   0.3331   0.8788     C
C       0.8401   0.3788   0.3331     C
C       0.8401   0.3788   0.6669     C
C       0.8401   0.6212   0.3331     C
C       0.8401   0.6212   0.6669     C
C       0.8401   0.6669   0.1212     C
C       0.8401   0.6669   0.8788     C
C       0.8401   0.8331   0.3788     C
C       0.8401   0.8331   0.6212     C
C       0.8401   0.8788   0.1669     C
C       0.8401   0.8788   0.8331     C
O      0.84747   0.0501  0.25293     O
O      0.84747   0.0501  0.74707     O
O      0.84747  0.24707   0.0501     O
O      0.84747  0.24707   0.9499     O
O      0.84747  0.25293   0.4499     O
O      0.84747  0.25293   0.5501     O
O      0.84747   0.4499  0.24707     O
O      0.84747   0.4499  0.75293     O
O      0.84747   0.5501  0.24707     O
O      0.84747   0.5501  0.75293     O
O      0.84747  0.74707   0.4499     O
O      0.84747  0.74707   0.5501     O
O      0.84747  0.75293   0.0501     O
O      0.84747  0.75293   0.9499     O
O      0.84747   0.9499  0.25293     O
O      0.84747   0.9499  0.74707     O
C       0.8608    0.132  0.32321     C
C       0.8608    0.132  0.67679     C
C       0.8608  0.17679    0.132     C
C       0.8608  0.17679    0.868     C
C       0.8608  0.32321    0.368     C
C       0.8608  0.32321    0.632     C
C       0.8608    0.368  0.17679     C
C       0.8608    0.368  0.82321     C
C       0.8608    0.632  0.17679     C
C       0.8608    0.632  0.82321     C
C       0.8608  0.67679    0.368     C
C       0.8608  0.67679    0.632     C
C       0.8608  0.82321    0.132     C
C       0.8608  0.82321    0.868     C
C       0.8608    0.868  0.32321     C
C       0.8608    0.868  0.67679     C
C        0.868   0.1392  0.17679     C
C        0.868   0.1392  0.82321     C
C        0.868  0.17679   0.3608     C
C        0.868  0.17679   0.6392     C
C        0.868  0.32321   0.1392     C
C        0.868  0.32321   0.8608     C
C        0.868   0.3608  0.32321     C
C        0.868   0.3608  0.67679     C
C        0.868   0.6392  0.32321     C
C        0.868   0.6392  0.67679     C
C        0.868  0.67679   0.1392     C
C        0.868  0.67679   0.8608     C
C        0.868  0.82321   0.3608     C
C        0.868  0.82321   0.6392     C
C        0.868   0.8608  0.17679     C
C        0.868   0.8608  0.82321     C
S      0.86974  0.10739  0.29036     S
S      0.86974  0.10739  0.70964     S
S      0.86974  0.20964  0.10739     S
S      0.86974  0.20964  0.89261     S
S      0.86974  0.29036  0.39261     S
S      0.86974  0.29036  0.60739     S
S      0.86974  0.39261  0.20964     S
S      0.86974  0.39261  0.79036     S
S      0.86974  0.60739  0.20964     S
S      0.86974  0.60739  0.79036     S
S      0.86974  0.70964  0.39261     S
S      0.86974  0.70964  0.60739     S
S      0.86974  0.79036  0.10739     S
S      0.86974  0.79036  0.89261     S
S      0.86974  0.89261  0.29036     S
S      0.86974  0.89261  0.70964     S
C       0.8788   0.1599   0.3331     C
C       0.8788   0.1599   0.6669     C
C       0.8788   0.1669   0.1599     C
C       0.8788   0.1669   0.8401     C
C       0.8788   0.3331   0.3401     C
C       0.8788   0.3331   0.6599     C
C       0.8788   0.3401   0.1669     C
C       0.8788   0.3401   0.8331     C
C       0.8788   0.6599   0.1669     C
C       0.8788   0.6599   0.8331     C
C       0.8788   0.6669   0.3401     C
C       0.8788   0.6669   0.6599     C
C       0.8788   0.8331   0.1599     C
C       0.8788   0.8331   0.8401     C
C       0.8788   0.8401   0.3331     C
C       0.8788   0.8401   0.6669     C
S      0.89261  0.13026  0.20964     S
S      0.89261  0.13026  0.79036     S
S      0.89261  0.20964  0.36974     S
S      0.89261  0.20964  0.63026     S
S      0.89261  0.29036  0.13026     S
S      0.89261  0.29036  0.86974     S
S      0.89261  0.36974  0.29036     S
S      0.89261  0.36974  0.70964     S
S      0.89261  0.63026  0.29036     S
S      0.89261  0.63026  0.70964     S
S      0.89261  0.70964  0.13026     S
S      0.89261  0.70964  0.86974     S
S      0.89261  0.79036  0.36974     S
S      0.89261  0.79036  0.63026     S
S      0.89261  0.86974  0.20964     S
S      0.89261  0.86974  0.79036     S
C      0.90758  0.17387   0.3185     C
C      0.90758  0.17387   0.6815     C
C      0.90758   0.1815  0.17387     C
C      0.90758   0.1815  0.82613     C
C      0.90758   0.3185  0.32613     C
C      0.90758   0.3185  0.67387     C
C      0.90758  0.32613   0.1815     C
C      0.90758  0.32613   0.8185     C
C      0.90758  0.67387   0.1815     C
C      0.90758  0.67387   0.8185     C
C      0.90758   0.6815  0.32613     C
C      0.90758   0.6815  0.67387     C
C      0.90758   0.8185  0.17387     C
C      0.90758   0.8185  0.82613     C
C      0.90758  0.82613   0.3185     C
C      0.90758  0.82613   0.6815     C
C      0.91716  0.16351  0.20127     C
C      0.91716  0.16351  0.79873     C
C      0.91716  0.20127  0.33649     C
C      0.91716  0.20127  0.66351     C
C      0.91716  0.29873  0.16351     C
C      0.91716  0.29873  0.83649     C
C      0.91716  0.33649  0.29873     C
C      0.91716  0.33649  0.70127     C
C      0.91716  0.66351  0.29873     C
C      0.91716  0.66351  0.70127     C
C      0.91716  0.70127  0.16351     C
C      0.91716  0.70127  0.83649     C
C      0.91716  0.79873  0.33649     C
C      0.91716  0.79873  0.66351     C
C      0.91716  0.83649  0.20127     C
C      0.91716  0.83649  0.79873     C
H       0.9181   0.1659   0.3001     H
H       0.9181   0.1659   0.6999     H
H       0.9181   0.1999   0.1659     H
H       0.9181   0.1999   0.8341     H
H       0.9181   0.3001   0.3341     H
H       0.9181   0.3001   0.6659     H
H       0.9181   0.3341   0.1999     H
H       0.9181   0.3341   0.8001     H
H       0.9181   0.6659   0.1999     H
H       0.9181   0.6659   0.8001     H
H       0.9181   0.6999   0.3341     H
H       0.9181   0.6999   0.6659     H
H       0.9181   0.8001   0.1659     H
H       0.9181   0.8001   0.8341     H
H       0.9181   0.8341   0.3001     H
H       0.9181   0.8341   0.6999     H
C      0.94486  0.17077  0.22306     C
C      0.94486  0.17077  0.77694     C
C      0.94486  0.22306  0.32923     C
C      0.94486  0.22306  0.67077     C
C      0.94486  0.27694  0.17077     C
C      0.94486  0.27694  0.82923     C
C      0.94486  0.32923  0.27694     C
C      0.94486  0.32923  0.72306     C
C      0.94486  0.67077  0.27694     C
C      0.94486  0.67077  0.72306     C
C      0.94486  0.72306  0.17077     C
C      0.94486  0.72306  0.82923     C
C      0.94486  0.77694  0.32923     C
C      0.94486  0.77694  0.67077     C
C      0.94486  0.82923  0.22306     C
C      0.94486  0.82923  0.77694     C
O       0.9499  0.15253  0.24707     O
O       0.9499  0.15253  0.75293     O
O       0.9499  0.24707  0.34747     O
O       0.9499  0.24707  0.65253     O
O       0.9499  0.25293  0.15253     O
O       0.9499  0.25293  0.84747     O
O       0.9499  0.34747  0.25293     O
O       0.9499  0.34747  0.74707     O
O       0.9499  0.65253  0.25293     O
O       0.9499  0.65253  0.74707     O
O       0.9499  0.74707  0.15253     O
O       0.9499  0.74707  0.84747     O
O       0.9499  0.75293  0.34747     O
O       0.9499  0.75293  0.65253     O
O       0.9499  0.84747  0.24707     O
O       0.9499  0.84747  0.75293     O
O      0.96213  0.19521  0.21654     O
O      0.96213  0.19521  0.78346     O
O      0.96213  0.21654  0.30479     O
O      0.96213  0.21654  0.69521     O
O      0.96213  0.28346  0.19521     O
O      0.96213  0.28346  0.80479     O
O      0.96213  0.30479  0.28346     O
O      0.96213  0.30479  0.71654     O
O      0.96213  0.69521  0.28346     O
O      0.96213  0.69521  0.71654     O
O      0.96213  0.71654  0.19521     O
O      0.96213  0.71654  0.80479     O
O      0.96213  0.78346  0.30479     O
O      0.96213  0.78346  0.69521     O
O      0.96213  0.80479  0.21654     O
O      0.96213  0.80479  0.78346     O
