data_I
_chemical_name_common  '/home/zhangsd/repos/MofS-CGCNN/ML/data/SSD/clean_cifs/OPURIB_clean'
_cell_length_a  4.87300
_cell_length_b 13.13300
_cell_length_c 13.29970
_cell_angle_alpha 90.00000
_cell_angle_beta  100.55200
_cell_angle_gamma 90.00000
_space_group_name_H-M_alt      'P 1'


loop_
_space_group_symop_operation_xyz
  'x, y, z' 

loop_
_atom_site_label
_atom_site_fract_x
_atom_site_fract_y
_atom_site_fract_z
_atom_site_type_symbol
C       0.0143   0.3252   0.9246     C
O        0.015   0.0255    0.648     O
O        0.025   0.3121   0.1087     O
C        0.027    0.907   0.2517     C
C       0.0534   0.4424   0.6674     C
H        0.086   0.3872   0.6225     H
C       0.1217     0.39   0.8506     C
H       0.1525   0.6564    0.499     H
C       0.1632   0.3429   0.0348     C
O       0.1815    0.787   0.6449     O
C       0.1841   0.0107   0.3851     C
H       0.1897    0.102   0.2735     H
C        0.196   0.7545   0.1028     C
H       0.2247   0.4812   0.6861     H
C       0.2449   0.8085   0.2778     C
H       0.2477   0.7134   0.0525     H
C        0.263    0.502   0.3739     C
Ce     0.26424  0.89626  0.78802    Ce
H        0.284   0.9333   0.5128     H
C       0.2851   0.0862   0.3388     C
H       0.2938   0.4215   0.8709     H
C       0.3153   0.6219   0.5268     C
H       0.3157   0.7948   0.3462     H
O       0.3256   0.1831   0.6781     O
C       0.3314   0.7433   0.2028     C
C       0.3426   0.9885   0.4784     C
O       0.3725    0.449   0.3193     O
O       0.3895   0.3928   0.0541     O
C       0.4004   0.7314   0.6841     C
O       0.4131   0.0989   0.8223     O
C       0.4333   0.5355    0.475     C
H       0.4428   0.1566   0.6457     H
C       0.4656   0.1734    0.769     C
O       0.4755   0.2528   0.2278     O
C       0.4827   0.6451   0.6245     C
C       0.5173   0.1451   0.3755     C
O       0.5245   0.7528   0.7722     O
C       0.5344   0.6734    0.231     C
H       0.5572   0.6566   0.3543     H
C       0.5667   0.0355    0.525     C
O       0.5869   0.5989   0.1777     O
C       0.5996   0.2314   0.3159     C
O       0.6105   0.8928   0.9459     O
O       0.6275    0.949   0.6807     O
C       0.6574   0.4885   0.5216     C
C       0.6686   0.2433   0.7972     C
O       0.6744   0.6831   0.3219     O
H       0.6843   0.2948   0.6538     H
C       0.6847   0.1219   0.4732     C
H       0.7062   0.9215   0.1291     H
C       0.7149   0.5862   0.6612     C
H        0.716   0.4333   0.4872     H
Ce     0.73576  0.39626  0.21198    Ce
C        0.737    0.002   0.6261     C
H       0.7523   0.2134   0.9475     H
C       0.7551   0.3085   0.7222     C
H       0.7753   0.9812   0.3139     H
C        0.804   0.2545   0.8972     C
H       0.8103    0.602   0.7265     H
C       0.8159   0.5107   0.6149     C
O       0.8185    0.287   0.3551     O
C       0.8368   0.8429   0.9652     C
H       0.8475   0.1564    0.501     H
C       0.8783     0.89   0.1494     C
H        0.914   0.8872   0.3775     H
C       0.9466   0.9424   0.3326     C
C        0.973    0.407   0.7483     C
O        0.975   0.8121   0.8913     O
O        0.985   0.5255    0.352     O
C       0.9857   0.8252   0.0754     C
