data_I
_chemical_name_common  '/home/zhangsd/repos/MofS-CGCNN/ML/data/SSD/clean_cifs/ORAGOF_clean'
_cell_length_a 15.87690
_cell_length_b 23.51030
_cell_length_c 23.15770
_cell_angle_alpha 90.00000
_cell_angle_beta  101.22600
_cell_angle_gamma 90.00000
_space_group_name_H-M_alt      'P 1'


loop_
_space_group_symop_operation_xyz
  'x, y, z' 

loop_
_atom_site_label
_atom_site_fract_x
_atom_site_fract_y
_atom_site_fract_z
_atom_site_type_symbol
C       0.0026   0.9451   0.2033     C
H       0.0118   0.6155   0.1807     H
C       0.0145   0.4358   0.9552     C
H       0.0156   0.5063   0.0083     H
C       0.0157   0.8736   0.3995     C
C       0.0168   0.4163   0.4953     C
C       0.0235   0.7265    0.201     C
H       0.0244   0.0697   0.6964     H
C       0.0266   0.3524   0.8916     C
O       0.0266   0.3967    0.783     O
C       0.0267   0.5438   0.8348     C
C       0.0271   0.8538   0.3412     C
O       0.0303   0.3217   0.6865     O
H       0.0333   0.0505   0.1763     H
O       0.0372   0.4373   0.4445     O
P       0.0381  0.50268  0.42667     P
H       0.0434     0.68   0.3878     H
H       0.0442   0.9386   0.0632     H
N       0.0479   0.5428   0.4814     N
O       0.0483   0.7764   0.2205     O
C       0.0491   0.4764   0.9968     C
O       0.0518   0.8543   0.1292     O
O       0.0545   0.2129   0.8031     O
H       0.0551   0.6231    0.869     H
O       0.0559   0.0069   0.6097     O
C       0.0582   0.9334   0.4844     C
C       0.0584   0.4903   0.8228     C
C       0.0589   0.3578   0.5805     C
C       0.0618   0.3922   0.9402     C
C       0.0644   0.6296   0.1727     C
C        0.065    0.087   0.6767     C
H       0.0675   0.5341   0.6331     H
C       0.0735   0.9118   0.4326     C
C       0.0745   0.3788     0.53     C
C       0.0783   0.5871   0.8619     C
O        0.079     0.32   0.8725     O
H        0.082   0.1598   0.7241     H
O        0.082   0.9546   0.2121     O
C        0.083    0.688   0.1811     C
C        0.091   0.0616   0.6293     C
O        0.094   0.8695   0.3228     O
H       0.0973   0.9595   0.5066     H
H       0.0984    0.332   0.6028     H
C       0.0985   0.6962   0.4012     C
H       0.0996   0.4573   0.6985     H
C        0.102   0.1396   0.6939     C
H        0.104   0.5536   0.1468     H
N       0.1055    0.508    0.383     N
Ho     0.10629   0.3076  0.78027    Ho
H       0.1066   0.7402   0.3246     H
O       0.1082   0.6476   0.4942     O
C       0.1189   0.5925   0.1535     C
C       0.1206   0.5145   0.6363     C
H       0.1237   0.9228   0.4189     H
H       0.1257   0.3683   0.5173     H
Ho     0.12824   0.8594  0.23009    Ho
P       0.1318  0.58184   0.4997     P
C       0.1353   0.4703   0.0201     C
C       0.1355    0.733   0.3638     C
C       0.1391   0.4684   0.6746     C
C       0.1427   0.6846   0.4557     C
C       0.1444   0.4807   0.8396     C
C        0.149    0.387   0.9665     C
C       0.1569   0.0839   0.6063     C
O       0.1619   0.5816   0.5685     O
C       0.1622   0.7067   0.1728     C
C       0.1651   0.1637   0.6699     C
C       0.1663   0.5758   0.8783     C
H       0.1677   0.4447   0.8329     H
O       0.1686    0.511   0.0648     O
H       0.1749   0.7449   0.9924     H
O       0.1754   0.2475   0.7273     O
H       0.1769   0.8081   0.0717     H
H       0.1776   0.7455   0.1797     H
H       0.1789   0.0631   0.5772     H
C       0.1794   0.5318   0.6031     C
C       0.1827   0.4259   0.0079     C
H       0.1833   0.3572   0.9557     H
O       0.1885   0.3788   0.7544     O
C        0.192   0.1362   0.6246     C
P      0.19343  0.53897  0.40562     P
C       0.1979    0.524   0.8668     C
C        0.198   0.6136    0.144     C
O       0.2031   0.5834   0.3551     O
C       0.2057   0.2203   0.6898     C
C       0.2086    0.998   0.3202     C
N       0.2097   0.5675   0.4678     N
C       0.2117   0.7573    0.385     C
H       0.2145   0.4078   0.4426     H
O       0.2148   0.6208   0.9039     O
C        0.215   0.4389   0.6777     C
N        0.215   0.6001   0.0111     N
C       0.2179   0.7114   0.4785     C
C       0.2205   0.6689   0.1543     C
O       0.2224   0.8465   0.1704     O
O        0.223   0.7975   0.2913     O
H       0.2245   0.6437   0.2733     H
C       0.2251   0.7493   0.0219     C
C       0.2265   0.7864   0.0692     C
H       0.2343   0.1528   0.6061     H
C       0.2353   0.3886   0.7161     C
H       0.2402   0.4219   0.0285     H
H       0.2446    0.706   0.5186     H
P      0.24604  0.55293   0.0614     P
O       0.2503   0.9123   0.2738     O
C       0.2531   0.5024   0.6059     C
C       0.2546   0.7952   0.3463     C
C       0.2554   0.7472   0.4422     C
H       0.2579   0.5172   0.8776     H
O       0.2579   0.5783   0.1251     O
O       0.2699   0.2358   0.6696     O
C       0.2699   0.4181   0.4637     C
C       0.2699   0.4562   0.6415     C
C        0.272   0.6478    0.305     C
C       0.2723   0.9524   0.3139     C
O       0.2724   0.4997   0.4005     O
P       0.2733   0.6178  0.96725     P
C       0.2745   0.6175   0.3548     C
H       0.2751   0.6821   0.1491     H
H       0.2802   0.3545   0.5223     H
H       0.2934   0.5141   0.5828     H
C       0.2944   0.8234   0.1656     C
O       0.2976   0.3587   0.7108     O
O        0.298   0.6833   0.9695     O
C       0.2986   0.7916    0.112     C
C       0.2988   0.7192   0.0194     C
C       0.3092   0.3866   0.5107     C
H       0.3098   0.7642   0.4563     H
C       0.3121   0.4658   0.4467     C
H        0.321   0.4352   0.6415     H
O       0.3223   0.8208   0.3709     O
N       0.3303   0.5181   0.0572     N
H       0.3358   0.3914   0.9079     H
H       0.3368   0.7063   0.2647     H
C       0.3383   0.6849   0.2997     C
C       0.3432   0.6214   0.4027     C
H       0.3442   0.6003   0.4378     H
O       0.3455     0.95   0.3446     O
N        0.358   0.5801   0.9658     N
O       0.3589   0.8256   0.2071     O
C       0.3717   0.7253   0.0584     C
C       0.3739   0.7603    0.108     C
O       0.3767   0.2556   0.8023     O
C       0.3795    0.412   0.8941     C
H       0.3799   0.1966    0.904     H
O       0.3831   0.3342   0.6144     O
P      0.38485  0.53005  0.00882     P
O       0.3849    0.471   0.9757     O
H       0.3871   0.3595   0.8267     H
Ho     0.38981  0.86371  0.30106    Ho
Ho     0.39013   0.2876  0.70028    Ho
C       0.3909   0.4003   0.5425     C
C       0.3947   0.4806   0.4755     C
C       0.4072   0.6899   0.3474     C
C       0.4079    0.394   0.8456     C
C       0.4092   0.6575   0.3964     C
C        0.414    0.166   0.8948     C
C       0.4142   0.4603   0.9234     C
C       0.4166   0.2106   0.7964     C
H       0.4221   0.7061   0.0528     H
H       0.4227   0.5133   0.4642     H
H       0.4241    0.763   0.1379     H
H       0.4253   0.1268   0.9736     H
C       0.4299   0.3703   0.5953     C
C       0.4347    0.446   0.5214     C
C       0.4371   0.1638   0.8401     C
O       0.4391   0.9373   0.2452     O
O         0.44   0.2036   0.7474     O
C       0.4402   0.1243   0.9359     C
O       0.4466   0.2201   0.6339     O
H       0.4542   0.9958   0.1591     H
H       0.4579   0.6598   0.4274     H
H       0.4598   0.5439   0.1421     H
O       0.4611   0.7757   0.3112     O
C       0.4685    0.427   0.8238     C
C       0.4756   0.4915   0.9041     C
O       0.4774   0.3627    0.745     O
C       0.4797   0.7296   0.3431     C
O       0.4828   0.5352   0.0359     O
C       0.4844   0.1179   0.8269     C
C       0.4891   0.0776   0.9224     C
C       0.4912   0.5755    0.132     C
H       0.4929   0.4533   0.5392     H
O       0.4946    0.883   0.3814     O
C       0.4962   0.9092   0.2295     C
C       0.4974   0.9745   0.1454     C
H       0.4992   0.5245   0.9249     H
H       0.4998   0.6156   0.2105     H
H       0.5002   0.1156   0.7895     H
H       0.5008   0.0245   0.0751     H
C       0.5026   0.4745   0.8546     C
C       0.5038   0.4092   0.7705     C
O       0.5054    0.383   0.6186     O
H       0.5071   0.9533   0.4608     H
C       0.5088   0.0755    0.868     C
C       0.5109   0.5776   0.0776     C
C       0.5156   0.6179   0.1731     C
O       0.5172   0.0352   0.9641     O
C       0.5203   0.2296   0.6569     C
O       0.5226   0.8627    0.255     O
C       0.5244   0.9915   0.0959     C
C       0.5315    0.927   0.1762     C
O       0.5389   0.2757   0.6888     O
H       0.5402   0.0439   0.8579     H
H       0.5421   0.1598   0.5726     H
H       0.5458   0.4958   0.8409     H
O       0.5534   0.7201   0.3661     O
C       0.5598   0.6243   0.0641     C
O         0.56   0.7036   0.2526     O
O       0.5609   0.4373   0.7548     O
C       0.5629   0.6638   0.1599     C
C       0.5653    0.946   0.4786     C
C       0.5701   0.8703   0.4047     C
H       0.5747   0.6268   0.0264     H
H       0.5759    0.263   0.8621     H
H       0.5773   0.0133   0.5358     H
H       0.5779   0.2061   0.9472     H
C       0.5834   0.7106   0.2036     C
C       0.5858   0.9603   0.0766     C
C        0.586    0.666   0.1052     C
C       0.5908   0.1575   0.6036     C
C       0.5921    0.894   0.1544     C
C       0.5928   0.1899   0.6526     C
C       0.6053   0.9806   0.5245     C
C       0.6091   0.9003   0.4575     C
Ho     0.60987   0.7876  0.29972    Ho
Ho     0.61019  0.36371  0.69894    Ho
H       0.6129   0.8595   0.1733     H
O       0.6151    0.971   0.0243     O
P      0.61515  0.03005  0.99118     P
O       0.6169   0.8342   0.3856     O
H       0.6201   0.6966    0.096     H
C       0.6205    0.912   0.1059     C
O       0.6233   0.7556   0.1977     O
C       0.6261   0.2603    0.892     C
C       0.6283   0.2253   0.9416     C
O       0.6411   0.3256   0.7929     O
N        0.642   0.0801   0.0342     N
O       0.6545     0.45   0.6554     O
H       0.6558   0.1003   0.5622     H
C       0.6568   0.1214   0.5973     C
C       0.6617   0.1849   0.7003     C
H       0.6632   0.2063   0.7353     H
H       0.6642   0.8914   0.0921     H
N       0.6697   0.0181   0.9428     N
O       0.6777   0.3208   0.6291     O
H        0.679   0.9352   0.3585     H
C       0.6879   0.9658   0.5533     C
H       0.6902   0.2642   0.5437     H
C       0.6908   0.8866   0.4893     C
C       0.7012   0.2192   0.9806     C
C       0.7014   0.2916    0.888     C
O        0.702   0.1833   0.0305     O
O       0.7024   0.8587   0.2892     O
C       0.7056   0.3234   0.8344     C
H       0.7066   0.0141   0.4172     H
H       0.7198   0.8545   0.4777     H
H       0.7249   0.1821   0.8509     H
C       0.7255   0.1175   0.6452     C
P       0.7267   0.1178  0.03275     P
O       0.7276   0.9997   0.5995     O
C       0.7277   0.4524   0.6861     C
C        0.728   0.1478    0.695     C
O       0.7301   0.7358   0.3304     O
C       0.7301   0.9181   0.5363     C
C       0.7301   0.9562   0.3585     C
H       0.7421   0.0172   0.1224     H
O       0.7421   0.0783   0.8749     O
C       0.7446   0.2472   0.5578     C
C       0.7454   0.2952   0.6537     C
C       0.7469   0.0024   0.3941     C
O       0.7497   0.4123   0.7262     O
P      0.75396  0.05293   0.9386     P
H       0.7554    0.206   0.4814     H
H       0.7598   0.9219   0.9715     H
C       0.7647   0.8886   0.2839     C
H       0.7657   0.6528   0.3939     H
C       0.7735   0.2864   0.9308     C
C       0.7749   0.2493   0.9781     C
H       0.7755   0.1437   0.7267     H
O        0.777   0.2975   0.7087     O
O       0.7776   0.3465   0.8296     O
C       0.7795   0.1689   0.8457     C
C       0.7821   0.2114   0.5215     C
N        0.785   0.1001   0.9889     N
C        0.785   0.9389   0.3223     C
O       0.7852   0.1208   0.0961     O
H       0.7855   0.9078   0.5574     H
C       0.7883   0.2573    0.615     C
N       0.7903   0.0675   0.5322     N
C       0.7914    0.498   0.6798     C
C       0.7943   0.7203   0.3102     C
O       0.7969   0.0834   0.6449     O
C        0.802   0.1136    0.856     C
C       0.8021    0.024   0.1332     C
P      0.80657  0.03897  0.59438     P
C        0.808   0.6362   0.3754     C
O       0.8115   0.8788   0.2456     O
H       0.8167   0.8572   0.0443     H
C       0.8173   0.9259   0.9921     C
C       0.8206   0.0318   0.3969     C
H       0.8211   0.5631   0.4228     H
H       0.8224   0.2455   0.8203     H
H       0.8231   0.3081   0.9283     H
O       0.8246   0.7475   0.2727     O
H       0.8251   0.2449   0.0076     H
O       0.8314    0.011   0.9352     O
H       0.8323   0.9447   0.1671     H
C       0.8337   0.0758   0.1217     C
C       0.8349   0.6637   0.3301     C
C       0.8378   0.2067   0.8272     C
O       0.8381   0.0816   0.4315     O
C       0.8431   0.5839   0.3937     C
C        0.851    0.887   0.0335     C
C       0.8556   0.9807   0.1604     C
C       0.8573   0.1846   0.5443     C
C       0.8609   0.9684   0.3254     C
C       0.8645    0.233   0.6362     C
C       0.8647   0.9703   0.9799     C
P       0.8682  0.08184   0.5003     P
Ho     0.87176   0.3594  0.76991    Ho
H       0.8743   0.8683   0.4827     H
H       0.8763   0.4228   0.5811     H
C       0.8794   0.0145   0.3637     C
C       0.8811   0.0925   0.8465     C
O       0.8918   0.1476   0.5058     O
H       0.8934   0.2402   0.6754     H
Ho     0.89371   0.8076  0.21973    Ho
N       0.8945    0.008    0.617     N
H        0.896   0.0536   0.8532     H
C        0.898   0.6396   0.3061     C
H       0.9004   0.9573   0.3015     H
C       0.9015   0.1962   0.5988     C
H       0.9016    0.832   0.3972     H
H       0.9027   0.4595   0.4934     H
O        0.906   0.3695   0.6772     O
C        0.909   0.5616   0.3707     C
C        0.917    0.188   0.8189     C
O        0.918   0.4546   0.7879     O
H        0.918   0.6598   0.2759     H
O        0.921     0.82   0.1275     O
C       0.9217   0.0871   0.1381     C
C       0.9255   0.8788     0.47     C
C       0.9265   0.4118   0.5674     C
H       0.9325   0.0341   0.3669     H
C        0.935    0.587   0.3233     C
C       0.9356   0.1296   0.8273     C
C       0.9382   0.8922   0.0598     C
C       0.9411   0.8578   0.4195     C
C       0.9416   0.9903   0.1772     C
C       0.9418   0.4334   0.5156     C
O       0.9441   0.5069   0.3903     O
H       0.9449   0.1231    0.131     H
O       0.9455   0.7129   0.1969     O
O       0.9482   0.3543   0.8708     O
C       0.9509   0.9764   0.0032     C
O       0.9517   0.2764   0.7795     O
N       0.9521   0.0428   0.5186     N
H       0.9558   0.4386   0.9368     H
H       0.9566     0.18   0.6122     H
P       0.9619  0.00268  0.57333     P
O       0.9628   0.9373   0.5555     O
H       0.9667   0.5505   0.8237     H
O       0.9697   0.8217   0.3135     O
C       0.9729   0.3538   0.6588     C
C       0.9733   0.0438   0.1652     C
C       0.9734   0.8524   0.1084     C
O       0.9734   0.8967    0.217     O
H       0.9756   0.5697   0.3036     H
C       0.9765   0.2265    0.799     C
C       0.9832   0.9163   0.5047     C
C       0.9843   0.3736   0.6005     C
H       0.9844   0.0063   0.9917     H
C       0.9855   0.9358   0.0448     C
H       0.9882   0.1155   0.8193     H
C       0.9974   0.4451   0.7967     C
