data_I
_chemical_name_common  '/home/zhangsd/repos/MofS-CGCNN/ML/data/SSD/clean_cifs/ORIBAU_clean'
_cell_length_a 33.27370
_cell_length_b  9.85310
_cell_length_c 18.21800
_cell_angle_alpha 90.00000
_cell_angle_beta  90.00000
_cell_angle_gamma 90.00000
_space_group_name_H-M_alt      'P 1'


loop_
_space_group_symop_operation_xyz
  'x, y, z' 

loop_
_atom_site_label
_atom_site_fract_x
_atom_site_fract_y
_atom_site_fract_z
_atom_site_type_symbol
Zn         0.0      0.0      0.5    Zn
H          0.0   0.1602   0.7156     H
H          0.0   0.3398   0.2156     H
Zn         0.0      0.5      0.0    Zn
H          0.0   0.6602   0.7844     H
H          0.0   0.8398   0.2844     H
C      0.00161   0.6092   0.4521     C
C      0.00161   0.8908   0.9521     C
H       0.0026   0.6823   0.4199     H
H       0.0026   0.8177   0.9199     H
H       0.0028   0.2264   0.3257     H
H       0.0028   0.2736   0.8257     H
C      0.01956   0.5065   0.5667     C
C      0.01956   0.9935   0.0667     C
C      0.02136   0.6161   0.5191     C
C      0.02136   0.8839   0.0191     C
O      0.02308   0.0652   0.5978     O
O      0.02308   0.4348   0.0978     O
C      0.02461   0.1904   0.7335     C
C      0.02461   0.3096   0.2335     C
C      0.02628   0.2409   0.2991     C
C      0.02628   0.2591   0.7991     C
H       0.0327   0.5107   0.6117     H
H       0.0327   0.9893   0.1117     H
O      0.03485   0.1294  0.43921     O
O      0.03485   0.3706  0.93921     O
O       0.0465   0.6622  0.99259     O
O       0.0465   0.8378  0.49259     O
C       0.0467   0.7366   0.5389     C
C       0.0467   0.7634   0.0389     C
C      0.05704   0.0913  0.62187     C
C      0.05704   0.4087  0.12187     C
C      0.05955   0.1659   0.6938     C
C      0.05955   0.3341   0.1938     C
C      0.06275   0.1927  0.32609     C
C      0.06275   0.3073  0.82609     C
C      0.06399   0.1186  0.39724     C
C      0.06399   0.3814  0.89724     C
O      0.06736   0.7365  0.59416     O
O      0.06736   0.7635  0.09416     O
O       0.0903   0.0619  0.59219     O
O       0.0903   0.4381  0.09219     O
O      0.09542   0.0498  0.41035     O
O      0.09542   0.4502  0.91035     O
C      0.09604   0.2129   0.7204     C
C      0.09604   0.2871   0.2204     C
Zn      0.0965  0.55071  0.00487    Zn
Zn      0.0965  0.94929  0.50487    Zn
C      0.09751   0.2174   0.2859     C
C      0.09751   0.2826   0.7859     C
H       0.1195   0.1972   0.6941     H
H       0.1195   0.3028   0.1941     H
H       0.1221   0.1863   0.3034     H
H       0.1221   0.3137   0.8034     H
O      0.14277   0.6736  0.99709     O
O      0.14277   0.8264  0.49709     O
O      0.17347   0.0131   0.5212     O
O      0.17347   0.4869   0.0212     O
C      0.17388   0.6086   0.0075     C
C      0.17388   0.8914   0.5075     C
H       0.1909   0.6293   0.5041     H
H       0.1909   0.8707   0.0041     H
C      0.21329   0.6827   0.0038     C
C      0.21329   0.8173   0.5038     C
C      0.21467   0.6791   0.5039     C
C      0.21467   0.8209   0.0039     C
H       0.2486   0.5188   0.0036     H
H       0.2486   0.9812   0.5036     H
C        0.249   0.6132   0.0037     C
C        0.249   0.8868   0.5037     C
C        0.251   0.6132   0.5037     C
C        0.251   0.8868   0.0037     C
H       0.2514   0.5188   0.5036     H
H       0.2514   0.9812   0.0036     H
C      0.28533   0.6791   0.0039     C
C      0.28533   0.8209   0.5039     C
C      0.28671   0.6827   0.5038     C
C      0.28671   0.8173   0.0038     C
H       0.3091   0.6293   0.0041     H
H       0.3091   0.8707   0.5041     H
C      0.32612   0.6086   0.5075     C
C      0.32612   0.8914   0.0075     C
O      0.32653   0.0131   0.0212     O
O      0.32653   0.4869   0.5212     O
O      0.35723   0.6736  0.49709     O
O      0.35723   0.8264  0.99709     O
H       0.3779   0.1863   0.8034     H
H       0.3779   0.3137   0.3034     H
H       0.3805   0.1972   0.1941     H
H       0.3805   0.3028   0.6941     H
C      0.40249   0.2174   0.7859     C
C      0.40249   0.2826   0.2859     C
Zn      0.4035  0.55071  0.50487    Zn
Zn      0.4035  0.94929  0.00487    Zn
C      0.40396   0.2129   0.2204     C
C      0.40396   0.2871   0.7204     C
O      0.40458   0.0498  0.91035     O
O      0.40458   0.4502  0.41035     O
O       0.4097   0.0619  0.09219     O
O       0.4097   0.4381  0.59219     O
O      0.43264   0.7365  0.09416     O
O      0.43264   0.7635  0.59416     O
C      0.43601   0.1186  0.89724     C
C      0.43601   0.3814  0.39724     C
C      0.43725   0.1927  0.82609     C
C      0.43725   0.3073  0.32609     C
C      0.44045   0.1659   0.1938     C
C      0.44045   0.3341   0.6938     C
C      0.44296   0.0913  0.12187     C
C      0.44296   0.4087  0.62187     C
C       0.4533   0.7366   0.0389     C
C       0.4533   0.7634   0.5389     C
O       0.4535   0.6622  0.49259     O
O       0.4535   0.8378  0.99259     O
O      0.46515   0.1294  0.93921     O
O      0.46515   0.3706  0.43921     O
H       0.4673   0.5107   0.1117     H
H       0.4673   0.9893   0.6117     H
C      0.47372   0.2409   0.7991     C
C      0.47372   0.2591   0.2991     C
C      0.47539   0.1904   0.2335     C
C      0.47539   0.3096   0.7335     C
O      0.47692   0.0652   0.0978     O
O      0.47692   0.4348   0.5978     O
C      0.47864   0.6161   0.0191     C
C      0.47864   0.8839   0.5191     C
C      0.48044   0.5065   0.0667     C
C      0.48044   0.9935   0.5667     C
H       0.4972   0.2264   0.8257     H
H       0.4972   0.2736   0.3257     H
H       0.4974   0.6823   0.9199     H
H       0.4974   0.8177   0.4199     H
C      0.49839   0.6092   0.9521     C
C      0.49839   0.8908   0.4521     C
Zn         0.5      0.0      0.0    Zn
H          0.5   0.1602   0.2156     H
H          0.5   0.3398   0.7156     H
Zn         0.5      0.5      0.5    Zn
H          0.5   0.6602   0.2844     H
H          0.5   0.8398   0.7844     H
C      0.50161   0.1092   0.5479     C
C      0.50161   0.3908   0.0479     C
H       0.5026   0.1823   0.5801     H
H       0.5026   0.3177   0.0801     H
H       0.5028   0.7264   0.6743     H
H       0.5028   0.7736   0.1743     H
C      0.51956   0.0065   0.4333     C
C      0.51956   0.4935   0.9333     C
C      0.52136   0.1161   0.4809     C
C      0.52136   0.3839   0.9809     C
O      0.52308   0.5652   0.4022     O
O      0.52308   0.9348   0.9022     O
C      0.52461   0.6904   0.2665     C
C      0.52461   0.8096   0.7665     C
C      0.52628   0.7409   0.7009     C
C      0.52628   0.7591   0.2009     C
H       0.5327   0.0107   0.3883     H
H       0.5327   0.4893   0.8883     H
O      0.53485   0.6294  0.56079     O
O      0.53485   0.8706  0.06079     O
O       0.5465   0.1622  0.00741     O
O       0.5465   0.3378  0.50741     O
C       0.5467   0.2366   0.4611     C
C       0.5467   0.2634   0.9611     C
C      0.55704   0.5913  0.37813     C
C      0.55704   0.9087  0.87813     C
C      0.55955   0.6659   0.3062     C
C      0.55955   0.8341   0.8062     C
C      0.56275   0.6927  0.67391     C
C      0.56275   0.8073  0.17391     C
C      0.56399   0.6186  0.60276     C
C      0.56399   0.8814  0.10276     C
O      0.56736   0.2365  0.40584     O
O      0.56736   0.2635  0.90584     O
O       0.5903   0.5619  0.40781     O
O       0.5903   0.9381  0.90781     O
O      0.59542   0.5498  0.58965     O
O      0.59542   0.9502  0.08965     O
C      0.59604   0.7129   0.2796     C
C      0.59604   0.7871   0.7796     C
Zn      0.5965  0.05071  0.99513    Zn
Zn      0.5965  0.44929  0.49513    Zn
C      0.59751   0.7174   0.7141     C
C      0.59751   0.7826   0.2141     C
H       0.6195   0.6972   0.3059     H
H       0.6195   0.8028   0.8059     H
H       0.6221   0.6863   0.6966     H
H       0.6221   0.8137   0.1966     H
O      0.64277   0.1736  0.00291     O
O      0.64277   0.3264  0.50291     O
O      0.67347   0.5131   0.4788     O
O      0.67347   0.9869   0.9788     O
C      0.67388   0.1086   0.9925     C
C      0.67388   0.3914   0.4925     C
H       0.6909   0.1293   0.4959     H
H       0.6909   0.3707   0.9959     H
C      0.71329   0.1827   0.9962     C
C      0.71329   0.3173   0.4962     C
C      0.71467   0.1791   0.4961     C
C      0.71467   0.3209   0.9961     C
H       0.7486   0.0188   0.9964     H
H       0.7486   0.4812   0.4964     H
C        0.749   0.1132   0.9963     C
C        0.749   0.3868   0.4963     C
C        0.751   0.1132   0.4963     C
C        0.751   0.3868   0.9963     C
H       0.7514   0.0188   0.4964     H
H       0.7514   0.4812   0.9964     H
C      0.78533   0.1791   0.9961     C
C      0.78533   0.3209   0.4961     C
C      0.78671   0.1827   0.4962     C
C      0.78671   0.3173   0.9962     C
H       0.8091   0.1293   0.9959     H
H       0.8091   0.3707   0.4959     H
C      0.82612   0.1086   0.4925     C
C      0.82612   0.3914   0.9925     C
O      0.82653   0.5131   0.9788     O
O      0.82653   0.9869   0.4788     O
O      0.85723   0.1736  0.50291     O
O      0.85723   0.3264  0.00291     O
H       0.8779   0.6863   0.1966     H
H       0.8779   0.8137   0.6966     H
H       0.8805   0.6972   0.8059     H
H       0.8805   0.8028   0.3059     H
C      0.90249   0.7174   0.2141     C
C      0.90249   0.7826   0.7141     C
Zn      0.9035  0.05071  0.49513    Zn
Zn      0.9035  0.44929  0.99513    Zn
C      0.90396   0.7129   0.7796     C
C      0.90396   0.7871   0.2796     C
O      0.90458   0.5498  0.08965     O
O      0.90458   0.9502  0.58965     O
O       0.9097   0.5619  0.90781     O
O       0.9097   0.9381  0.40781     O
O      0.93264   0.2365  0.90584     O
O      0.93264   0.2635  0.40584     O
C      0.93601   0.6186  0.10276     C
C      0.93601   0.8814  0.60276     C
C      0.93725   0.6927  0.17391     C
C      0.93725   0.8073  0.67391     C
C      0.94045   0.6659   0.8062     C
C      0.94045   0.8341   0.3062     C
C      0.94296   0.5913  0.87813     C
C      0.94296   0.9087  0.37813     C
C       0.9533   0.2366   0.9611     C
C       0.9533   0.2634   0.4611     C
O       0.9535   0.1622  0.50741     O
O       0.9535   0.3378  0.00741     O
O      0.96515   0.6294  0.06079     O
O      0.96515   0.8706  0.56079     O
H       0.9673   0.0107   0.8883     H
H       0.9673   0.4893   0.3883     H
C      0.97372   0.7409   0.2009     C
C      0.97372   0.7591   0.7009     C
C      0.97539   0.6904   0.7665     C
C      0.97539   0.8096   0.2665     C
O      0.97692   0.5652   0.9022     O
O      0.97692   0.9348   0.4022     O
C      0.97864   0.1161   0.9809     C
C      0.97864   0.3839   0.4809     C
C      0.98044   0.0065   0.9333     C
C      0.98044   0.4935   0.4333     C
H       0.9972   0.7264   0.1743     H
H       0.9972   0.7736   0.6743     H
H       0.9974   0.1823   0.0801     H
H       0.9974   0.3177   0.5801     H
C      0.99839   0.1092   0.0479     C
C      0.99839   0.3908   0.5479     C
