data_I
_chemical_name_common  '/home/zhangsd/repos/MofS-CGCNN/ML/data/SSD/clean_cifs/OSIXEU_clean'
_cell_length_a 11.73020
_cell_length_b 11.90260
_cell_length_c 12.53350
_cell_angle_alpha 106.76900
_cell_angle_beta  106.19500
_cell_angle_gamma 113.46200
_space_group_name_H-M_alt      'P 1'


loop_
_space_group_symop_operation_xyz
  'x, y, z' 

loop_
_atom_site_label
_atom_site_fract_x
_atom_site_fract_y
_atom_site_fract_z
_atom_site_type_symbol
C        0.015   0.4488   0.1366     C
H        0.015    0.536   0.6544     H
H       0.0185   0.2529   0.9268     H
H       0.0262    0.613   0.2568     H
H       0.0365   0.1457   0.2674     H
C      0.03761  0.31971  0.00122     C
C       0.0439   0.4836   0.7954     C
H       0.0473   0.1801   0.6756     H
N      0.05814  0.65254  0.98088     N
H       0.0583   0.2827   0.3584     H
H        0.092   0.1889   0.4106     H
C        0.092    0.544   0.7162     C
C       0.0935    0.222   0.3494     C
H       0.1039   0.1281   0.7672     H
H       0.1218   0.4899   0.8558     H
C       0.1242   0.1722   0.7162     C
H       0.1283   0.4955   0.6756     H
H       0.1394   0.1184   0.6544     H
N      0.14631  0.48081  0.18782     N
N      0.16023  0.39553  0.09806     N
H       0.1633   0.6391   0.7672     H
H       0.1814   0.7783   0.5894     H
H       0.1999   0.9243   0.6416     H
H        0.234   0.3659   0.8558     H
C       0.2382   0.2971   0.3672     C
H       0.2388   0.3286    0.304     H
C       0.2441   0.8726   0.6506     C
C       0.2515   0.3118   0.7954     C
Ag     0.26778  0.72043  0.12532    Ag
H       0.2691   0.8783   0.7326     H
H       0.2694   0.3562   0.7432     H
H       0.2724   0.2347    0.356     H
H        0.286   0.0138   0.3068     H
N      0.28678  0.84888  0.31016     N
C      0.29906  0.96926  0.35492     C
Ag      0.3024  0.62557  0.39388    Ag
N      0.31329  0.81949  0.40978     N
N       0.3328   0.0227   0.4778     N
C      0.33341  0.41761  0.49302     C
C      0.34039  0.92459  0.50698     C
N        0.355   0.5449   0.5222     N
Ag     0.35754  0.40489  0.12532    Ag
C        0.371   0.9299   0.6328     C
C       0.3784   0.3122   0.8634     C
N      0.40351  0.40971  0.59022     N
H       0.4083   0.6739   0.9268     H
Ag     0.40852  0.23169  0.60612    Ag
H       0.4164   0.8787    0.644     H
N      0.42274  0.32834  0.98088     N
H       0.4348   0.0246    0.696     H
N      0.43783  0.70253  0.09806     N
C      0.44414  0.61434  0.64508     C
N      0.45849  0.29299  0.81218     N
C      0.46361  0.68151  0.00122     C
N      0.47662  0.53872  0.68984     N
H       0.4792    0.707   0.6932     H
H       0.5208    0.293   0.3068     H
N      0.52338  0.46128  0.31016     N
C      0.53639  0.31849  0.99878     C
N      0.54151  0.70701  0.18782     N
C      0.55586  0.38566  0.35492     C
N      0.56217  0.29747  0.90194     N
H       0.5652   0.9754    0.304     H
N      0.57726  0.67166  0.01912     N
H       0.5836   0.1213    0.356     H
Ag     0.59148  0.76831  0.39388    Ag
H       0.5917   0.3261   0.0732     H
N      0.59649  0.59029  0.40978     N
C       0.6216   0.6878   0.1366     C
C        0.629   0.0701   0.3672     C
Ag     0.64246  0.59511  0.87468    Ag
N        0.645   0.4551   0.4778     N
C      0.65961  0.07541  0.49302     C
C      0.66659  0.58239  0.50698     C
N       0.6672   0.9773   0.5222     N
N      0.68671  0.18051  0.59022     N
Ag      0.6976  0.37443  0.60612    Ag
C      0.70094  0.03074  0.64508     C
N      0.71322  0.15112  0.68984     N
H        0.714   0.9862   0.6932     H
H       0.7276   0.7653    0.644     H
H       0.7306   0.6438   0.2568     H
H       0.7309   0.1217   0.2674     H
Ag     0.73222  0.27957  0.87468    Ag
C       0.7485   0.6882   0.2046     C
C       0.7559   0.1274   0.3494     C
H       0.7612   0.6714    0.696     H
C       0.7618   0.7029   0.6328     C
H        0.766   0.6341   0.1442     H
H       0.8001   0.0757   0.3584     H
H       0.8186   0.2217   0.4106     H
H       0.8367   0.3609   0.2328     H
N      0.83977  0.60447  0.90194     N
N      0.85369  0.51919  0.81218     N
H       0.8606   0.8816   0.3456     H
H       0.8717   0.5045   0.3244     H
C       0.8758   0.8278   0.2838     C
H       0.8782   0.5101   0.1442     H
H       0.8961   0.8719   0.2328     H
C       0.9065    0.778   0.6506     C
C        0.908    0.456   0.2838     C
H        0.908   0.8111   0.5894     H
H       0.9417   0.7173   0.6416     H
N      0.94186  0.34746  0.01912     N
H       0.9527   0.8199   0.3244     H
C       0.9561   0.5164   0.2046     C
C      0.96239  0.68029  0.99878     C
H       0.9635   0.8543   0.7326     H
H       0.9738    0.387   0.7432     H
H       0.9815   0.7471   0.0732     H
H        0.985    0.464   0.3456     H
C        0.985   0.5512   0.8634     C
