data_I
_chemical_name_common  '/home/zhangsd/repos/MofS-CGCNN/ML/data/SSD/clean_cifs/OTALUS_clean'
_cell_length_a 27.58100
_cell_length_b 27.58100
_cell_length_c 43.46800
_cell_angle_alpha 90.00000
_cell_angle_beta  90.00000
_cell_angle_gamma 90.00000
_space_group_name_H-M_alt      'P 1'


loop_
_space_group_symop_operation_xyz
  'x, y, z' 

loop_
_atom_site_label
_atom_site_fract_x
_atom_site_fract_y
_atom_site_fract_z
_atom_site_type_symbol
H        0.003   0.2145   0.0597     H
H        0.003   0.2855   0.1903     H
C      0.00623   0.6143  0.15065     C
C      0.00623   0.8857  0.09935     C
C       0.0064   0.7314  0.20843     C
C       0.0064   0.7686  0.04157     C
C      0.00965   0.5997  0.18047     C
C      0.00965   0.9003  0.06953     C
H       0.0103   0.0562   0.9375     H
H       0.0103   0.4438   0.3125     H
H       0.0107   0.1409    0.155     H
H       0.0107   0.3591    0.095     H
C        0.011   0.2477  0.26037     C
C        0.011   0.2523  0.98963     C
H       0.0164    0.191   0.3106     H
H       0.0164    0.309   0.9394     H
C       0.0243   0.2315   0.0167     C
C       0.0243   0.2685   0.2333     C
H       0.0277   0.0412   0.9713     H
H       0.0277    0.097   0.9612     H
H       0.0277    0.403   0.2888     H
H       0.0277   0.4588   0.2787     H
H       0.0281    0.089   0.0306     H
H       0.0281    0.411   0.2194     H
C       0.0305   0.0991  0.05138     C
C       0.0305   0.4009  0.19862     C
C       0.0317   0.7234   0.9888     C
C       0.0317   0.7766   0.2612     C
C        0.033   0.0637   0.9542     C
C        0.033   0.4363   0.2958     C
H       0.0341   0.2164   0.1336     H
H       0.0341   0.2836   0.1164     H
C       0.0374   0.1282  0.11102     C
C       0.0374   0.3718  0.13898     C
C        0.039   0.2169   0.3123     C
C        0.039   0.2831   0.9377     C
H       0.0412   0.5277   0.2213     H
H       0.0412   0.9723   0.0287     H
H       0.0414   0.7064   0.9708     H
H       0.0414   0.7936   0.2792     H
C       0.0428   0.1435   0.1445     C
C       0.0428   0.3565   0.1055     C
C       0.0429   0.2476  0.96139     C
C       0.0429   0.2524  0.28861     C
O       0.0467    0.615    0.132     O
O       0.0467    0.885    0.118     O
H       0.0469   0.5955   0.2392     H
H       0.0469   0.9045   0.0108     H
N       0.0486   0.7459  0.04115     N
N       0.0486   0.7541  0.20885     N
H       0.0553   0.2167   0.0184     H
H       0.0553   0.2833   0.2316     H
H       0.0562   0.5103   0.1875     H
H       0.0562   0.9897   0.0625     H
C       0.0586   0.5842   0.1927     C
C       0.0586   0.9158   0.0573     C
C       0.0588   0.1969    0.144     C
C       0.0588   0.3031    0.106     C
C       0.0616   0.7237  0.01506     C
C       0.0616   0.7763  0.23494     C
H       0.0628   0.2085   0.1652     H
H       0.0628   0.2915   0.0848     H
C       0.0637    0.533   0.2042     C
C       0.0637    0.967   0.0458     C
H       0.0668   0.0738    0.157     H
H       0.0668   0.4262    0.093     H
O       0.0673   0.6953  0.15489     O
O       0.0673   0.8047  0.09511     O
H       0.0676   0.1963   0.3527     H
H       0.0676   0.3037   0.8973     H
C       0.0684   0.2209   0.3375     C
C       0.0684   0.2791   0.9125     C
O       0.0707   0.6837  0.09766     O
O       0.0707   0.8163  0.15234     O
C       0.0712   0.6057   0.2241     C
C       0.0712   0.8943   0.0259     C
H       0.0715   0.6411   0.2226     H
H       0.0715   0.8589   0.0274     H
H       0.0738   0.5668    0.407     H
H       0.0738   0.9332    0.843     H
C       0.0741   0.1131  0.06306     C
C       0.0741   0.3869  0.18694     C
C       0.0749   0.2113  0.95782     C
C       0.0749   0.2887  0.29218     C
C       0.0775   0.1276  0.09288     C
C       0.0775   0.3724  0.15712     C
H       0.0787   0.1878   0.9736     H
H       0.0787   0.3122   0.2764     H
C       0.0791   0.1069   0.1596     C
C       0.0791   0.3931   0.0904     C
P      0.08209  0.66408  0.12871     P
P      0.08209  0.83592  0.12129     P
H       0.0824   0.1143   0.1815     H
H       0.0824   0.3857   0.0685     H
C       0.0842   0.0586   0.9427     C
C       0.0842   0.4414   0.3073     C
H       0.0846   0.5917   0.1774     H
H       0.0846   0.9083   0.0726     H
H        0.089   0.5281   0.2806     H
H        0.089   0.9719   0.9694     H
H       0.0897   0.1998   0.1331     H
H       0.0897   0.3002   0.1169     H
H       0.0917   0.0846   0.9274     H
H       0.0917   0.4154   0.3226     H
H        0.092   0.7076   0.0142     H
H        0.092   0.7924   0.2358     H
H       0.0941   0.1033   0.9805     H
H       0.0941   0.3967   0.2695     H
Zn     0.09437  0.74376  0.08049    Zn
Zn     0.09437  0.75624  0.16951    Zn
H       0.0955   0.0469   0.9892     H
H       0.0955   0.4531   0.2608     H
H        0.097   0.5277   0.2112     H
H        0.097   0.9723   0.0388     H
N       0.0978   0.2416  0.90904     N
N       0.0978   0.2584  0.34096     N
C       0.0991   0.5305  0.30138     C
C       0.0991   0.9695  0.94862     C
C       0.0997  0.00965  0.93047     C
C       0.0997  0.49035  0.31953     C
H       0.1021   0.1126   0.0504     H
H       0.1021   0.3874   0.1996     H
C       0.1023   0.2084   0.9312     C
C       0.1023   0.2916   0.3188     C
H       0.1033   0.5941   0.2305     H
H       0.1033   0.7242   0.5433     H
H       0.1033   0.7758   0.7067     H
H       0.1033   0.9059   0.0195     H
H       0.1049   0.7318   0.6827     H
H       0.1049   0.7682   0.5673     H
C       0.1057   0.0712   0.9741     C
C       0.1057   0.4288   0.2759     C
C       0.1069   0.5791   0.4096     C
C       0.1069   0.9209   0.8404     C
H       0.1079   0.1373    0.101     H
H       0.1079   0.3627    0.149     H
H       0.1097   0.6108   0.3995     H
H       0.1097   0.8892   0.8505     H
H       0.1108   0.1097   0.1495     H
H       0.1108   0.3903   0.1005     H
H       0.1126   0.6021   0.3004     H
H       0.1126   0.8979   0.9496     H
C       0.1131   0.5741  0.31306     C
C       0.1131   0.9259  0.93694     C
C       0.1143  0.00623  0.90065     C
C       0.1143  0.49377  0.34935     C
H       0.1143   0.5824   0.4315     H
H       0.1143   0.9176   0.8185     H
O        0.115   0.0467    0.882     O
O        0.115   0.4533    0.368     O
H       0.1175   0.1764   0.2397     H
H       0.1175   0.3236   0.0103     H
O       0.1236   0.2365  0.88316     O
O       0.1236   0.2635  0.36684     O
C       0.1236   0.7499    0.552     C
C       0.1236   0.7501    0.698     C
H       0.1245   0.1823   0.9286     H
H       0.1245   0.3177   0.3214     H
H       0.1252   0.6962   0.2656     H
H       0.1252   0.8038   0.9844     H
C       0.1276   0.5775  0.34288     C
C       0.1276   0.9225  0.90712     C
C       0.1282   0.5374  0.36102     C
C       0.1282   0.9626  0.88898     C
O      0.13297  0.64428  0.13072     O
O      0.13297  0.85572  0.11928     O
H       0.1342   0.7282   0.7145     H
H       0.1342   0.7718   0.5355     H
H       0.1352   0.6766   0.5964     H
H       0.1352   0.8234   0.6536     H
H       0.1373   0.6079    0.351     H
H       0.1373   0.8921    0.899     H
H       0.1404   0.7288   0.6122     H
H       0.1404   0.7712   0.6378     H
H       0.1409   0.5107    0.405     H
H       0.1409   0.9893    0.845     H
H       0.1411   0.0715   0.9726     H
H       0.1411   0.4285   0.2774     H
C       0.1435   0.5428   0.3945     C
C       0.1435   0.9572   0.8555     C
C        0.144   0.1926   0.2491     C
C        0.144   0.3074   0.0009     C
H        0.144   0.6533   0.5337     H
H        0.144   0.8467   0.7163     H
O      0.14428  0.13297  0.88072     O
O      0.14428  0.36703  0.36928     O
H       0.1469   0.2486   0.2188     H
H       0.1469   0.2514   0.0312     H
H       0.1532   0.6778   0.2356     H
H       0.1532   0.8222   0.0144     H
H       0.1533    0.144   0.2837     H
H       0.1533    0.356   0.9663     H
O      0.15374   0.7368  0.05674     O
O      0.15374   0.7632  0.19326     O
H       0.1538   0.1645   0.0183     H
H       0.1538   0.3355   0.2317     H
C       0.1561    0.684   0.2577     C
C       0.1561    0.816   0.9923     C
C       0.1566   0.7046   0.5992     C
C       0.1566   0.7954   0.6508     C
C       0.1615   0.2354   0.2367     C
C       0.1615   0.2646   0.0133     C
P      0.16408  0.08209  0.87871     P
P      0.16408  0.41791  0.37129     P
H       0.1645   0.6538   0.2683     H
H       0.1645   0.8462   0.9817     H
C       0.1653   0.1733   0.2752     C
C       0.1653   0.3267   0.9748     C
C       0.1681   0.7273   0.5675     C
C       0.1681   0.7727   0.6825     C
H       0.1696   0.7242   0.3082     H
H       0.1696   0.7758   0.9418     H
C       0.1733   0.6653   0.5252     C
C       0.1733   0.8347   0.7248     C
H       0.1764   0.6175   0.4897     H
H       0.1764   0.8825   0.7603     H
H       0.1766   0.1352   0.3464     H
H       0.1766   0.3648   0.9036     H
H       0.1778   0.1532   0.9856     H
H       0.1778   0.3468   0.2644     H
H       0.1823   0.6245   0.1786     H
H       0.1823   0.8755   0.0714     H
Zn     0.18352  0.19137  0.87807    Zn
Zn     0.18352  0.30863  0.37193    Zn
O       0.1837   0.0707  0.84766     O
O       0.1837   0.4293  0.40234     O
C        0.184   0.1561   0.0077     C
C        0.184   0.3439   0.2423     C
H       0.1848   0.2116   0.0538     H
H       0.1848   0.2884   0.1962     H
H       0.1868   0.6942    0.609     H
H       0.1868   0.8058    0.641     H
H       0.1869   0.7457   0.9943     H
H       0.1869   0.7543   0.2557     H
H       0.1878   0.5787   0.2236     H
H       0.1878   0.9213   0.0264     H
H       0.1883   0.7438   0.6771     H
H       0.1883   0.7562   0.5729     H
H        0.191   0.5164   0.5606     H
H        0.191   0.9836   0.6894     H
Zn     0.19137  0.68352  0.12807    Zn
Zn     0.19137  0.81648  0.12193    Zn
C       0.1926    0.644   0.4991     C
C       0.1926    0.856   0.7509     C
H       0.1942   0.1868    0.359     H
H       0.1942   0.3132    0.891     H
C       0.1951    0.721   0.2632     C
C       0.1951    0.779   0.9868     C
O       0.1953   0.0673  0.90489     O
O       0.1953   0.4327  0.34511     O
H       0.1962   0.1252   0.0156     H
H       0.1962   0.3748   0.2344     H
H       0.1963   0.5676   0.6027     H
H       0.1963   0.9324   0.6473     H
C       0.1969   0.5588    0.394     C
C       0.1969    0.704    0.539     C
C       0.1969    0.796    0.711     C
C       0.1969   0.9412    0.856     C
O       0.1987  0.21887  0.83846     O
O       0.1987  0.28113  0.41154     O
H       0.1998   0.5897   0.3831     H
H       0.1998   0.9103   0.8669     H
C       0.2002   0.2411  0.99959     C
C       0.2002   0.2589  0.25041     C
C       0.2008   0.7175   0.2983     C
C       0.2008   0.7825   0.9517     C
P      0.20382  0.74111  0.06924     P
P      0.20382  0.75889  0.18076     P
C        0.204   0.1969    0.289     C
C        0.204   0.3031    0.961     C
C       0.2046   0.1566   0.3492     C
C       0.2046   0.3434   0.9008     C
H       0.2064   0.0414   0.7208     H
H       0.2064   0.4586   0.5292     H
H       0.2076    0.092   0.7642     H
H       0.2076    0.408   0.4858     H
C       0.2084   0.6023   0.1812     C
C       0.2084   0.8977   0.0688     C
H       0.2085   0.5628   0.4152     H
H       0.2085   0.9372   0.8348     H
O       0.2105    0.215  0.91688     O
O       0.2105    0.285  0.33312     O
C       0.2113   0.5749  0.20782     C
C       0.2113   0.9251  0.04218     C
H       0.2116   0.6848   0.3038     H
H       0.2116   0.8152   0.9462     H
H       0.2145    0.503   0.3097     H
H       0.2145    0.997   0.9403     H
O        0.215   0.7105  0.16688     O
O        0.215   0.7895  0.08312     O
H       0.2164   0.5341   0.3836     H
H       0.2164   0.9659   0.8664     H
H       0.2167   0.5553   0.2684     H
H       0.2167   0.9447   0.9816     H
C       0.2169    0.539   0.5623     C
C       0.2169    0.961   0.6877     C
C       0.2175   0.2008   0.0483     C
C       0.2175   0.2992   0.2017     C
O      0.21887   0.6987  0.08846     O
O      0.21887   0.8013  0.16154     O
C       0.2209   0.5684   0.5875     C
C       0.2209   0.9316   0.6625     C
C        0.221   0.1951   0.0132     C
C        0.221   0.3049   0.2368     C
C       0.2214   0.2397  0.27654     C
C       0.2214   0.2603  0.97346     C
C       0.2234   0.0317   0.7388     C
C       0.2234   0.4683   0.5112     C
C       0.2237   0.0616  0.76506     C
C       0.2237   0.4384  0.48494     C
H       0.2242   0.1033   0.2933     H
H       0.2242   0.1696   0.0582     H
H       0.2242   0.3304   0.1918     H
H       0.2242   0.3967   0.9567     H
H       0.2249   0.7412   0.3053     H
H       0.2249   0.7588   0.9447     H
C       0.2273   0.1681   0.3175     C
C       0.2273   0.3319   0.9325     C
H       0.2282   0.1342   0.4645     H
H       0.2282   0.3658   0.7855     H
H       0.2288   0.1404   0.3622     H
H       0.2288   0.3596   0.8878     H
C       0.2314   0.0064  0.95843     C
C       0.2314   0.4936  0.29157     C
C       0.2315   0.5243   0.2667     C
C       0.2315   0.9757   0.9833     C
H       0.2318   0.1049   0.4327     H
H       0.2318   0.3951   0.8173     H
C       0.2354   0.6615   0.4867     C
C       0.2354   0.8385   0.7633     C
O       0.2365   0.6236  0.13316     O
O       0.2365   0.8764  0.11684     O
O       0.2368  0.15374  0.80674     O
O       0.2368  0.34626  0.44326     O
O       0.2371   0.2399  0.78883     O
O       0.2371   0.2601  0.46117     O
C       0.2397   0.7214  0.52654     C
C       0.2397   0.7786  0.72346     C
O       0.2399   0.7371  0.03883     O
O       0.2399   0.7629  0.21117     O
C       0.2411   0.7002  0.24959     C
C       0.2411   0.7998  0.00041     C
P      0.24111  0.20382  0.81924     P
P      0.24111  0.29618  0.43076     P
H       0.2412   0.2249   0.0553     H
H       0.2412   0.2751   0.1947     H
N       0.2416   0.5978  0.15904     N
N       0.2416   0.9022  0.09096     N
Zn     0.24376  0.09437  0.83049    Zn
Zn     0.24376  0.40563  0.41951    Zn
H       0.2438   0.1883   0.4271     H
H       0.2438   0.3117   0.8229     H
H       0.2457   0.1869   0.7443     H
H       0.2457   0.3131   0.5057     H
N       0.2459   0.0486  0.79115     N
N       0.2459   0.4514  0.45885     N
C       0.2476   0.5429  0.21139     C
C       0.2476   0.9571  0.03861     C
C       0.2477    0.511  0.51037     C
C       0.2477    0.989  0.73963     C
H       0.2486   0.6469   0.4688     H
H       0.2486   0.8531   0.7812     H
C       0.2499   0.1236    0.302     C
C       0.2499   0.3764    0.948     C
C       0.2501   0.1236    0.448     C
C       0.2501   0.3764    0.802     C
H       0.2514   0.6469   0.2812     H
H       0.2514   0.8531   0.9688     H
C       0.2523    0.511  0.23963     C
C       0.2523    0.989  0.01037     C
C       0.2524   0.5429  0.53861     C
C       0.2524   0.9571  0.71139     C
N       0.2541   0.0486  0.95885     N
N       0.2541   0.4514  0.29115     N
H       0.2543   0.1869   0.0057     H
H       0.2543   0.3131   0.2443     H
H       0.2562   0.1883   0.3229     H
H       0.2562   0.3117   0.9271     H
Zn     0.25624  0.09437  0.91951    Zn
Zn     0.25624  0.40563  0.33049    Zn
N       0.2584   0.5978  0.59096     N
N       0.2584   0.9022  0.65904     N
H       0.2588   0.2249   0.6947     H
H       0.2588   0.2751   0.5553     H
P      0.25889  0.20382  0.93076     P
P      0.25889  0.29618  0.31924     P
C       0.2589   0.7002  0.50041     C
C       0.2589   0.7998  0.74959     C
O       0.2601   0.7371  0.71117     O
O       0.2601   0.7629  0.53883     O
C       0.2603   0.7214  0.22346     C
C       0.2603   0.7786  0.02654     C
O       0.2629   0.2399  0.96117     O
O       0.2629   0.2601  0.28883     O
O       0.2632  0.15374  0.94326     O
O       0.2632  0.34626  0.30674     O
O       0.2635   0.6236  0.61684     O
O       0.2635   0.8764  0.63316     O
C       0.2646   0.6615   0.2633     C
C       0.2646   0.8385   0.9867     C
H       0.2682   0.1049   0.3173     H
H       0.2682   0.3951   0.9327     H
C       0.2685   0.5243   0.4833     C
C       0.2685   0.9757   0.7667     C
C       0.2686   0.0064  0.79157     C
C       0.2686   0.4936  0.45843     C
H       0.2712   0.1404   0.3878     H
H       0.2712   0.3596   0.8622     H
H       0.2718   0.1342   0.2855     H
H       0.2718   0.3658   0.9645     H
C       0.2727   0.1681   0.4325     C
C       0.2727   0.3319   0.8175     C
H       0.2751   0.7412   0.4447     H
H       0.2751   0.7588   0.8053     H
H       0.2758   0.1033   0.4567     H
H       0.2758   0.1696   0.6918     H
H       0.2758   0.3304   0.5582     H
H       0.2758   0.3967   0.7933     H
C       0.2763   0.0616  0.98494     C
C       0.2763   0.4384  0.26506     C
C       0.2766   0.0317   0.0112     C
C       0.2766   0.4683   0.2388     C
C       0.2786   0.2397  0.47346     C
C       0.2786   0.2603  0.77654     C
C        0.279   0.1951   0.7368     C
C        0.279   0.3049   0.5132     C
C       0.2791   0.5684   0.1625     C
C       0.2791   0.9316   0.0875     C
O      0.28113   0.6987  0.66154     O
O      0.28113   0.8013  0.58846     O
C       0.2825   0.2008   0.7017     C
C       0.2825   0.2992   0.5483     C
C       0.2831    0.539   0.1877     C
C       0.2831    0.961   0.0623     C
H       0.2833   0.5553   0.4816     H
H       0.2833   0.9447   0.7684     H
H       0.2836   0.5341   0.3664     H
H       0.2836   0.9659   0.8836     H
O        0.285   0.7105  0.58312     O
O        0.285   0.7895  0.66688     O
H       0.2855    0.503   0.4403     H
H       0.2855    0.997   0.8097     H
H       0.2884   0.6848   0.4462     H
H       0.2884   0.8152   0.8038     H
C       0.2887   0.5749  0.54218     C
C       0.2887   0.9251  0.70782     C
O       0.2895    0.215  0.83312     O
O       0.2895    0.285  0.41688     O
H       0.2915   0.5628   0.3348     H
H       0.2915   0.9372   0.9152     H
C       0.2916   0.6023   0.5688     C
C       0.2916   0.8977   0.6812     C
H       0.2924    0.092   0.9858     H
H       0.2924    0.408   0.2642     H
H       0.2936   0.0414   0.0292     H
H       0.2936   0.4586   0.2208     H
C       0.2954   0.1566   0.4008     C
C       0.2954   0.3434   0.8492     C
C        0.296   0.1969    0.461     C
C        0.296   0.3031    0.789     C
P      0.29618  0.74111  0.68076     P
P      0.29618  0.75889  0.56924     P
C       0.2992   0.7175   0.4517     C
C       0.2992   0.7825   0.7983     C
C       0.2998   0.2411  0.75041     C
C       0.2998   0.2589  0.49959     C
H       0.3002   0.5897   0.3669     H
H       0.3002   0.9103   0.8831     H
O       0.3013  0.21887  0.91154     O
O       0.3013  0.28113  0.33846     O
C       0.3031   0.5588    0.356     C
C       0.3031    0.704    0.211     C
C       0.3031    0.796    0.039     C
C       0.3031   0.9412    0.894     C
H       0.3037   0.5676   0.1473     H
H       0.3037   0.9324   0.1027     H
H       0.3038   0.1252   0.7344     H
H       0.3038   0.3748   0.5156     H
O       0.3047   0.0673  0.84511     O
O       0.3047   0.4327  0.40489     O
C       0.3049    0.721   0.4868     C
C       0.3049    0.779   0.7632     C
H       0.3058   0.1868    0.391     H
H       0.3058   0.3132    0.859     H
C       0.3074    0.644   0.2509     C
C       0.3074    0.856   0.9991     C
Zn     0.30863  0.68352  0.62193    Zn
Zn     0.30863  0.81648  0.62807    Zn
H        0.309   0.5164   0.1894     H
H        0.309   0.9836   0.0606     H
H       0.3117   0.7438   0.0729     H
H       0.3117   0.7562   0.1771     H
H       0.3122   0.5787   0.5264     H
H       0.3122   0.9213   0.7236     H
H       0.3131   0.7457   0.7557     H
H       0.3131   0.7543   0.4943     H
H       0.3132   0.6942    0.141     H
H       0.3132   0.8058    0.109     H
H       0.3152   0.2116   0.6962     H
H       0.3152   0.2884   0.5538     H
C        0.316   0.1561   0.7423     C
C        0.316   0.3439   0.5077     C
O       0.3163   0.0707  0.90234     O
O       0.3163   0.4293  0.34766     O
Zn     0.31648  0.19137  0.87193    Zn
Zn     0.31648  0.30863  0.37807    Zn
H       0.3177   0.6245   0.5714     H
H       0.3177   0.8755   0.6786     H
H       0.3222   0.1532   0.7644     H
H       0.3222   0.3468   0.4856     H
H       0.3234   0.1352   0.4036     H
H       0.3234   0.3648   0.8464     H
H       0.3236   0.6175   0.2603     H
H       0.3236   0.8825   0.9897     H
C       0.3267   0.6653   0.2248     C
C       0.3267   0.8347   0.0252     C
H       0.3304   0.7242   0.4418     H
H       0.3304   0.7758   0.8082     H
C       0.3319   0.7273   0.1825     C
C       0.3319   0.7727   0.0675     C
C       0.3347   0.1733   0.4748     C
C       0.3347   0.3267   0.7752     C
H       0.3355   0.6538   0.4817     H
H       0.3355   0.8462   0.7683     H
P      0.33592  0.08209  0.87129     P
P      0.33592  0.41791  0.37871     P
C       0.3385   0.2354   0.5133     C
C       0.3385   0.2646   0.7367     C
C       0.3434   0.7046   0.1508     C
C       0.3434   0.7954   0.0992     C
C       0.3439    0.684   0.4923     C
C       0.3439    0.816   0.7577     C
H       0.3462   0.1645   0.7317     H
H       0.3462   0.3355   0.5183     H
O      0.34626   0.7368  0.69326     O
O      0.34626   0.7632  0.55674     O
H       0.3467    0.144   0.4663     H
H       0.3467    0.356   0.7837     H
H       0.3468   0.6778   0.5144     H
H       0.3468   0.8222   0.7356     H
H       0.3531   0.2486   0.5312     H
H       0.3531   0.2514   0.7188     H
O      0.35572  0.13297  0.86928     O
O      0.35572  0.36703  0.38072     O
C        0.356   0.1926   0.5009     C
C        0.356   0.3074   0.7491     C
H        0.356   0.6533   0.2163     H
H        0.356   0.8467   0.0337     H
C       0.3565   0.5428   0.3555     C
C       0.3565   0.9572   0.8945     C
H       0.3589   0.0715   0.7774     H
H       0.3589   0.4285   0.4726     H
H       0.3591   0.5107    0.345     H
H       0.3591   0.9893    0.905     H
H       0.3596   0.7288   0.1378     H
H       0.3596   0.7712   0.1122     H
H       0.3627   0.6079    0.399     H
H       0.3627   0.8921    0.851     H
H       0.3648   0.6766   0.1536     H
H       0.3648   0.8234   0.0964     H
H       0.3658   0.7282   0.0355     H
H       0.3658   0.7718   0.2145     H
O      0.36703  0.64428  0.61928     O
O      0.36703  0.85572  0.63072     O
C       0.3718   0.5374  0.38898     C
C       0.3718   0.9626  0.86102     C
C       0.3724   0.5775  0.40712     C
C       0.3724   0.9225  0.84288     C
H       0.3748   0.6962   0.4844     H
H       0.3748   0.8038   0.7656     H
H       0.3755   0.1823   0.8214     H
H       0.3755   0.3177   0.4286     H
O       0.3764   0.2365  0.86684     O
O       0.3764   0.2635  0.38316     O
C       0.3764   0.7499    0.198     C
C       0.3764   0.7501    0.052     C
H       0.3825   0.1764   0.5103     H
H       0.3825   0.3236   0.7397     H
O        0.385   0.0467    0.868     O
O        0.385   0.4533    0.382     O
C       0.3857  0.00623  0.84935     C
C       0.3857  0.49377  0.40065     C
H       0.3857   0.5824   0.3185     H
H       0.3857   0.9176   0.9315     H
C       0.3869   0.5741  0.43694     C
C       0.3869   0.9259  0.81306     C
H       0.3874   0.6021   0.4496     H
H       0.3874   0.8979   0.8004     H
H       0.3892   0.1097   0.6005     H
H       0.3892   0.3903   0.6495     H
H       0.3903   0.6108   0.3505     H
H       0.3903   0.8892   0.8995     H
H       0.3921   0.1373    0.649     H
H       0.3921   0.3627    0.601     H
C       0.3931   0.5791   0.3404     C
C       0.3931   0.9209   0.9096     C
C       0.3943   0.0712   0.7759     C
C       0.3943   0.4288   0.4741     C
H       0.3951   0.7318   0.0673     H
H       0.3951   0.7682   0.1827     H
H       0.3967   0.5941   0.5195     H
H       0.3967   0.7242   0.2067     H
H       0.3967   0.7758   0.0433     H
H       0.3967   0.9059   0.7305     H
C       0.3977   0.2084   0.8188     C
C       0.3977   0.2916   0.4312     C
H       0.3979   0.1126   0.6996     H
H       0.3979   0.3874   0.5504     H
C       0.4003  0.00965  0.81953     C
C       0.4003  0.49035  0.43047     C
C       0.4009   0.5305  0.44862     C
C       0.4009   0.9695  0.80138     C
N       0.4022   0.2416  0.84096     N
N       0.4022   0.2584  0.40904     N
H        0.403   0.5277   0.5388     H
H        0.403   0.9723   0.7112     H
H       0.4045   0.0469   0.7608     H
H       0.4045   0.4531   0.4892     H
Zn     0.40563  0.74376  0.66951    Zn
Zn     0.40563  0.75624  0.58049    Zn
H       0.4059   0.1033   0.7695     H
H       0.4059   0.3967   0.4805     H
H        0.408   0.7076   0.7358     H
H        0.408   0.7924   0.5142     H
H       0.4083   0.0846   0.8226     H
H       0.4083   0.4154   0.4274     H
H       0.4103   0.1998   0.6169     H
H       0.4103   0.3002   0.6331     H
H        0.411   0.5281   0.4694     H
H        0.411   0.9719   0.7806     H
H       0.4154   0.5917   0.5726     H
H       0.4154   0.9083   0.6774     H
C       0.4158   0.0586   0.8073     C
C       0.4158   0.4414   0.4427     C
H       0.4176   0.1143   0.5685     H
H       0.4176   0.3857   0.6815     H
P      0.41791  0.66408  0.62129     P
P      0.41791  0.83592  0.62871     P
C       0.4209   0.1069   0.5904     C
C       0.4209   0.3931   0.6596     C
H       0.4213   0.1878   0.7764     H
H       0.4213   0.3122   0.4736     H
C       0.4225   0.1276  0.65712     C
C       0.4225   0.3724  0.59288     C
C       0.4251   0.2113  0.79218     C
C       0.4251   0.2887  0.45782     C
C       0.4259   0.1131  0.68694     C
C       0.4259   0.3869  0.56306     C
H       0.4262   0.5668    0.343     H
H       0.4262   0.9332    0.907     H
H       0.4285   0.6411   0.5274     H
H       0.4285   0.8589   0.7226     H
C       0.4288   0.6057   0.5259     C
C       0.4288   0.8943   0.7241     C
O       0.4293   0.6837  0.65234     O
O       0.4293   0.8163  0.59766     O
C       0.4316   0.2209   0.4125     C
C       0.4316   0.2791   0.8375     C
H       0.4324   0.1963   0.3973     H
H       0.4324   0.3037   0.8527     H
O       0.4327   0.6953  0.59511     O
O       0.4327   0.8047  0.65489     O
H       0.4332   0.0738    0.593     H
H       0.4332   0.4262    0.657     H
C       0.4363    0.533   0.5458     C
C       0.4363    0.967   0.7042     C
H       0.4372   0.2085   0.5848     H
H       0.4372   0.2915   0.6652     H
C       0.4384   0.7237  0.73494     C
C       0.4384   0.7763  0.51506     C
C       0.4412   0.1969    0.606     C
C       0.4412   0.3031    0.644     C
C       0.4414   0.5842   0.5573     C
C       0.4414   0.9158   0.6927     C
H       0.4438   0.5103   0.5625     H
H       0.4438   0.9897   0.6875     H
H       0.4447   0.2167   0.7316     H
H       0.4447   0.2833   0.5184     H
N       0.4514   0.7459  0.70885     N
N       0.4514   0.7541  0.54115     N
H       0.4531   0.5955   0.5108     H
H       0.4531   0.9045   0.7392     H
O       0.4533    0.615    0.618     O
O       0.4533    0.885    0.632     O
C       0.4571   0.2476  0.78861     C
C       0.4571   0.2524  0.46139     C
C       0.4572   0.1435   0.6055     C
C       0.4572   0.3565   0.6445     C
H       0.4586   0.7064   0.7792     H
H       0.4586   0.7936   0.4708     H
H       0.4588   0.5277   0.5287     H
H       0.4588   0.9723   0.7213     H
C        0.461   0.2169   0.4377     C
C        0.461   0.2831   0.8123     C
C       0.4626   0.1282  0.63898     C
C       0.4626   0.3718  0.61102     C
H       0.4659   0.2164   0.6164     H
H       0.4659   0.2836   0.6336     H
C        0.467   0.0637   0.7958     C
C        0.467   0.4363   0.4542     C
C       0.4683   0.7234   0.7612     C
C       0.4683   0.7766   0.4888     C
C       0.4695   0.0991  0.69862     C
C       0.4695   0.4009  0.55138     C
H       0.4719    0.089   0.7194     H
H       0.4719    0.411   0.5306     H
H       0.4723   0.0412   0.7787     H
H       0.4723    0.097   0.7888     H
H       0.4723    0.403   0.4612     H
H       0.4723   0.4588   0.4713     H
C       0.4757   0.2315   0.7333     C
C       0.4757   0.2685   0.5167     C
H       0.4836    0.191   0.4394     H
H       0.4836    0.309   0.8106     H
C        0.489   0.2477  0.48963     C
C        0.489   0.2523  0.76037     C
H       0.4893   0.1409    0.595     H
H       0.4893   0.3591    0.655     H
H       0.4897   0.0562   0.8125     H
H       0.4897   0.4438   0.4375     H
C      0.49035   0.5997  0.56953     C
C      0.49035   0.9003  0.68047     C
C       0.4936   0.7314  0.54157     C
C       0.4936   0.7686  0.70843     C
C      0.49377   0.6143  0.59935     C
C      0.49377   0.8857  0.65065     C
H        0.497   0.2145   0.6903     H
H        0.497   0.2855   0.5597     H
H        0.503   0.7145   0.5597     H
H        0.503   0.7855   0.6903     H
C      0.50623   0.1143  0.65065     C
C      0.50623   0.3857  0.59935     C
C       0.5064   0.2314  0.70843     C
C       0.5064   0.2686  0.54157     C
C      0.50965   0.0997  0.68047     C
C      0.50965   0.4003  0.56953     C
H       0.5103   0.5562   0.4375     H
H       0.5103   0.9438   0.8125     H
H       0.5107   0.6409    0.655     H
H       0.5107   0.8591    0.595     H
C        0.511   0.7477  0.76037     C
C        0.511   0.7523  0.48963     C
H       0.5164    0.691   0.8106     H
H       0.5164    0.809   0.4394     H
C       0.5243   0.7315   0.5167     C
C       0.5243   0.7685   0.7333     C
H       0.5277   0.5412   0.4713     H
H       0.5277    0.597   0.4612     H
H       0.5277    0.903   0.7888     H
H       0.5277   0.9588   0.7787     H
H       0.5281    0.589   0.5306     H
H       0.5281    0.911   0.7194     H
C       0.5305   0.5991  0.55138     C
C       0.5305   0.9009  0.69862     C
C       0.5317   0.2234   0.4888     C
C       0.5317   0.2766   0.7612     C
C        0.533   0.5637   0.4542     C
C        0.533   0.9363   0.7958     C
H       0.5341   0.7164   0.6336     H
H       0.5341   0.7836   0.6164     H
C       0.5374   0.6282  0.61102     C
C       0.5374   0.8718  0.63898     C
C        0.539   0.7169   0.8123     C
C        0.539   0.7831   0.4377     C
H       0.5412   0.0277   0.7213     H
H       0.5412   0.4723   0.5287     H
H       0.5414   0.2064   0.4708     H
H       0.5414   0.2936   0.7792     H
C       0.5428   0.6435   0.6445     C
C       0.5428   0.8565   0.6055     C
C       0.5429   0.7476  0.46139     C
C       0.5429   0.7524  0.78861     C
O       0.5467    0.115    0.632     O
O       0.5467    0.385    0.618     O
H       0.5469   0.0955   0.7392     H
H       0.5469   0.4045   0.5108     H
N       0.5486   0.2459  0.54115     N
N       0.5486   0.2541  0.70885     N
H       0.5553   0.7167   0.5184     H
H       0.5553   0.7833   0.7316     H
H       0.5562   0.0103   0.6875     H
H       0.5562   0.4897   0.5625     H
C       0.5586   0.0842   0.6927     C
C       0.5586   0.4158   0.5573     C
C       0.5588   0.6969    0.644     C
C       0.5588   0.8031    0.606     C
C       0.5616   0.2237  0.51506     C
C       0.5616   0.2763  0.73494     C
H       0.5628   0.7085   0.6652     H
H       0.5628   0.7915   0.5848     H
C       0.5637    0.033   0.7042     C
C       0.5637    0.467   0.5458     C
H       0.5668   0.5738    0.657     H
H       0.5668   0.9262    0.593     H
O       0.5673   0.1953  0.65489     O
O       0.5673   0.3047  0.59511     O
H       0.5676   0.6963   0.8527     H
H       0.5676   0.8037   0.3973     H
C       0.5684   0.7209   0.8375     C
C       0.5684   0.7791   0.4125     C
O       0.5707   0.1837  0.59766     O
O       0.5707   0.3163  0.65234     O
C       0.5712   0.1057   0.7241     C
C       0.5712   0.3943   0.5259     C
H       0.5715   0.1411   0.7226     H
H       0.5715   0.3589   0.5274     H
H       0.5738   0.0668    0.907     H
H       0.5738   0.4332    0.343     H
C       0.5741   0.6131  0.56306     C
C       0.5741   0.8869  0.68694     C
C       0.5749   0.7113  0.45782     C
C       0.5749   0.7887  0.79218     C
C       0.5775   0.6276  0.59288     C
C       0.5775   0.8724  0.65712     C
H       0.5787   0.6878   0.4736     H
H       0.5787   0.8122   0.7764     H
C       0.5791   0.6069   0.6596     C
C       0.5791   0.8931   0.5904     C
P      0.58209  0.16408  0.62871     P
P      0.58209  0.33592  0.62129     P
H       0.5824   0.6143   0.6815     H
H       0.5824   0.8857   0.5685     H
C       0.5842   0.5586   0.4427     C
C       0.5842   0.9414   0.8073     C
H       0.5846   0.0917   0.6774     H
H       0.5846   0.4083   0.5726     H
H        0.589   0.0281   0.7806     H
H        0.589   0.4719   0.4694     H
H       0.5897   0.6998   0.6331     H
H       0.5897   0.8002   0.6169     H
H       0.5917   0.5846   0.4274     H
H       0.5917   0.9154   0.8226     H
H        0.592   0.2076   0.5142     H
H        0.592   0.2924   0.7358     H
H       0.5941   0.6033   0.4805     H
H       0.5941   0.8967   0.7695     H
Zn     0.59437  0.24376  0.58049    Zn
Zn     0.59437  0.25624  0.66951    Zn
H       0.5955   0.5469   0.4892     H
H       0.5955   0.9531   0.7608     H
H        0.597   0.0277   0.7112     H
H        0.597   0.4723   0.5388     H
N       0.5978   0.7416  0.40904     N
N       0.5978   0.7584  0.84096     N
C       0.5991   0.0305  0.80138     C
C       0.5991   0.4695  0.44862     C
C       0.5997  0.50965  0.43047     C
C       0.5997  0.99035  0.81953     C
H       0.6021   0.6126   0.5504     H
H       0.6021   0.8874   0.6996     H
C       0.6023   0.7084   0.4312     C
C       0.6023   0.7916   0.8188     C
H       0.6033   0.0941   0.7305     H
H       0.6033   0.2242   0.0433     H
H       0.6033   0.2758   0.2067     H
H       0.6033   0.4059   0.5195     H
H       0.6049   0.2318   0.1827     H
H       0.6049   0.2682   0.0673     H
C       0.6057   0.5712   0.4741     C
C       0.6057   0.9288   0.7759     C
C       0.6069   0.0791   0.9096     C
C       0.6069   0.4209   0.3404     C
H       0.6079   0.6373    0.601     H
H       0.6079   0.8627    0.649     H
H       0.6097   0.1108   0.8995     H
H       0.6097   0.3892   0.3505     H
H       0.6108   0.6097   0.6495     H
H       0.6108   0.8903   0.6005     H
H       0.6126   0.1021   0.8004     H
H       0.6126   0.3979   0.4496     H
C       0.6131   0.0741  0.81306     C
C       0.6131   0.4259  0.43694     C
H       0.6143   0.0824   0.9315     H
H       0.6143   0.4176   0.3185     H
C       0.6143  0.50623  0.40065     C
C       0.6143  0.99377  0.84935     C
O        0.615   0.5467    0.382     O
O        0.615   0.9533    0.868     O
H       0.6175   0.6764   0.7397     H
H       0.6175   0.8236   0.5103     H
C       0.6236   0.2499    0.052     C
C       0.6236   0.2501    0.198     C
O       0.6236   0.7365  0.38316     O
O       0.6236   0.7635  0.86684     O
H       0.6245   0.6823   0.4286     H
H       0.6245   0.8177   0.8214     H
H       0.6252   0.1962   0.7656     H
H       0.6252   0.3038   0.4844     H
C       0.6276   0.0775  0.84288     C
C       0.6276   0.4225  0.40712     C
C       0.6282   0.0374  0.86102     C
C       0.6282   0.4626  0.38898     C
O      0.63297  0.14428  0.63072     O
O      0.63297  0.35572  0.61928     O
H       0.6342   0.2282   0.2145     H
H       0.6342   0.2718   0.0355     H
H       0.6352   0.1766   0.0964     H
H       0.6352   0.3234   0.1536     H
H       0.6373   0.1079    0.851     H
H       0.6373   0.3921    0.399     H
H       0.6404   0.2288   0.1122     H
H       0.6404   0.2712   0.1378     H
H       0.6409   0.0107    0.905     H
H       0.6409   0.4893    0.345     H
H       0.6411   0.5715   0.4726     H
H       0.6411   0.9285   0.7774     H
C       0.6435   0.0428   0.8945     C
C       0.6435   0.4572   0.3555     C
H        0.644   0.1533   0.0337     H
H        0.644   0.3467   0.2163     H
C        0.644   0.6926   0.7491     C
C        0.644   0.8074   0.5009     C
O      0.64428  0.63297  0.38072     O
O      0.64428  0.86703  0.86928     O
H       0.6469   0.7486   0.7188     H
H       0.6469   0.7514   0.5312     H
H       0.6532   0.1778   0.7356     H
H       0.6532   0.3222   0.5144     H
H       0.6533    0.644   0.7837     H
H       0.6533    0.856   0.4663     H
O      0.65374   0.2368  0.55674     O
O      0.65374   0.2632  0.69326     O
H       0.6538   0.6645   0.5183     H
H       0.6538   0.8355   0.7317     H
C       0.6561    0.184   0.7577     C
C       0.6561    0.316   0.4923     C
C       0.6566   0.2046   0.0992     C
C       0.6566   0.2954   0.1508     C
C       0.6615   0.7354   0.7367     C
C       0.6615   0.7646   0.5133     C
P      0.66408  0.58209  0.37871     P
P      0.66408  0.91791  0.87129     P
H       0.6645   0.1538   0.7683     H
H       0.6645   0.3462   0.4817     H
C       0.6653   0.6733   0.7752     C
C       0.6653   0.8267   0.4748     C
C       0.6681   0.2273   0.0675     C
C       0.6681   0.2727   0.1825     C
H       0.6696   0.2242   0.8082     H
H       0.6696   0.2758   0.4418     H
C       0.6733   0.1653   0.0252     C
C       0.6733   0.3347   0.2248     C
H       0.6764   0.1175   0.9897     H
H       0.6764   0.3825   0.2603     H
H       0.6766   0.6352   0.8464     H
H       0.6766   0.8648   0.4036     H
H       0.6778   0.6532   0.4856     H
H       0.6778   0.8468   0.7644     H
H       0.6823   0.1245   0.6786     H
H       0.6823   0.3755   0.5714     H
Zn     0.68352  0.69137  0.37807    Zn
Zn     0.68352  0.80863  0.87193    Zn
O       0.6837   0.5707  0.34766     O
O       0.6837   0.9293  0.90234     O
C        0.684   0.6561   0.5077     C
C        0.684   0.8439   0.7423     C
H       0.6848   0.7116   0.5538     H
H       0.6848   0.7884   0.6962     H
H       0.6868   0.1942    0.109     H
H       0.6868   0.3058    0.141     H
H       0.6869   0.2457   0.4943     H
H       0.6869   0.2543   0.7557     H
H       0.6878   0.0787   0.7236     H
H       0.6878   0.4213   0.5264     H
H       0.6883   0.2438   0.1771     H
H       0.6883   0.2562   0.0729     H
H        0.691   0.0164   0.0606     H
H        0.691   0.4836   0.1894     H
Zn     0.69137  0.18352  0.62807    Zn
Zn     0.69137  0.31648  0.62193    Zn
C       0.6926    0.144   0.9991     C
C       0.6926    0.356   0.2509     C
H       0.6942   0.6868    0.859     H
H       0.6942   0.8132    0.391     H
C       0.6951    0.221   0.7632     C
C       0.6951    0.279   0.4868     C
O       0.6953   0.5673  0.40489     O
O       0.6953   0.9327  0.84511     O
H       0.6962   0.6252   0.5156     H
H       0.6962   0.8748   0.7344     H
H       0.6963   0.0676   0.1027     H
H       0.6963   0.4324   0.1473     H
C       0.6969   0.0588    0.894     C
C       0.6969    0.204    0.039     C
C       0.6969    0.296    0.211     C
C       0.6969   0.4412    0.356     C
O       0.6987  0.71887  0.33846     O
O       0.6987  0.78113  0.91154     O
H       0.6998   0.0897   0.8831     H
H       0.6998   0.4103   0.3669     H
C       0.7002   0.7411  0.49959     C
C       0.7002   0.7589  0.75041     C
C       0.7008   0.2175   0.7983     C
C       0.7008   0.2825   0.4517     C
P      0.70382  0.24111  0.56924     P
P      0.70382  0.25889  0.68076     P
C        0.704   0.6969    0.789     C
C        0.704   0.8031    0.461     C
C       0.7046   0.6566   0.8492     C
C       0.7046   0.8434   0.4008     C
H       0.7064   0.5414   0.2208     H
H       0.7064   0.9586   0.0292     H
H       0.7076    0.592   0.2642     H
H       0.7076    0.908   0.9858     H
C       0.7084   0.1023   0.6812     C
C       0.7084   0.3977   0.5688     C
H       0.7085   0.0628   0.9152     H
H       0.7085   0.4372   0.3348     H
O       0.7105    0.715  0.41688     O
O       0.7105    0.785  0.83312     O
C       0.7113   0.0749  0.70782     C
C       0.7113   0.4251  0.54218     C
H       0.7116   0.1848   0.8038     H
H       0.7116   0.3152   0.4462     H
H       0.7145    0.003   0.8097     H
H       0.7145    0.497   0.4403     H
O        0.715   0.2105  0.66688     O
O        0.715   0.2895  0.58312     O
H       0.7164   0.0341   0.8836     H
H       0.7164   0.4659   0.3664     H
H       0.7167   0.0553   0.7684     H
H       0.7167   0.4447   0.4816     H
C       0.7169    0.039   0.0623     C
C       0.7169    0.461   0.1877     C
C       0.7175   0.7008   0.5483     C
C       0.7175   0.7992   0.7017     C
O      0.71887   0.1987  0.58846     O
O      0.71887   0.3013  0.66154     O
C       0.7209   0.0684   0.0875     C
C       0.7209   0.4316   0.1625     C
C        0.721   0.6951   0.5132     C
C        0.721   0.8049   0.7368     C
C       0.7214   0.7397  0.77654     C
C       0.7214   0.7603  0.47346     C
C       0.7234   0.5317   0.2388     C
C       0.7234   0.9683   0.0112     C
C       0.7237   0.5616  0.26506     C
C       0.7237   0.9384  0.98494     C
H       0.7242   0.6033   0.7933     H
H       0.7242   0.6696   0.5582     H
H       0.7242   0.8304   0.6918     H
H       0.7242   0.8967   0.4567     H
H       0.7249   0.2412   0.8053     H
H       0.7249   0.2588   0.4447     H
C       0.7273   0.6681   0.8175     C
C       0.7273   0.8319   0.4325     C
H       0.7282   0.6342   0.9645     H
H       0.7282   0.8658   0.2855     H
H       0.7288   0.6404   0.8622     H
H       0.7288   0.8596   0.3878     H
C       0.7314   0.5064  0.45843     C
C       0.7314   0.9936  0.79157     C
C       0.7315   0.0243   0.7667     C
C       0.7315   0.4757   0.4833     C
H       0.7318   0.6049   0.9327     H
H       0.7318   0.8951   0.3173     H
C       0.7354   0.1615   0.9867     C
C       0.7354   0.3385   0.2633     C
O       0.7365   0.1236  0.63316     O
O       0.7365   0.3764  0.61684     O
O       0.7368  0.65374  0.30674     O
O       0.7368  0.84626  0.94326     O
O       0.7371   0.7399  0.28883     O
O       0.7371   0.7601  0.96117     O
C       0.7397   0.2214  0.02654     C
C       0.7397   0.2786  0.22346     C
O       0.7399   0.2371  0.53883     O
O       0.7399   0.2629  0.71117     O
C       0.7411   0.2002  0.74959     C
C       0.7411   0.2998  0.50041     C
P      0.74111  0.70382  0.31924     P
P      0.74111  0.79618  0.93076     P
H       0.7412   0.7249   0.5553     H
H       0.7412   0.7751   0.6947     H
N       0.7416   0.0978  0.65904     N
N       0.7416   0.4022  0.59096     N
Zn     0.74376  0.59437  0.33049    Zn
Zn     0.74376  0.90563  0.91951    Zn
H       0.7438   0.6883   0.9271     H
H       0.7438   0.8117   0.3229     H
H       0.7457   0.6869   0.2443     H
H       0.7457   0.8131   0.0057     H
N       0.7459   0.5486  0.29115     N
N       0.7459   0.9514  0.95885     N
C       0.7476   0.0429  0.71139     C
C       0.7476   0.4571  0.53861     C
C       0.7477    0.011  0.01037     C
C       0.7477    0.489  0.23963     C
H       0.7486   0.1469   0.9688     H
H       0.7486   0.3531   0.2812     H
C       0.7499   0.6236    0.802     C
C       0.7499   0.8764    0.448     C
C       0.7501   0.6236    0.948     C
C       0.7501   0.8764    0.302     C
H       0.7514   0.1469   0.7812     H
H       0.7514   0.3531   0.4688     H
C       0.7523    0.011  0.73963     C
C       0.7523    0.489  0.51037     C
C       0.7524   0.0429  0.03861     C
C       0.7524   0.4571  0.21139     C
N       0.7541   0.5486  0.45885     N
N       0.7541   0.9514  0.79115     N
H       0.7543   0.6869   0.5057     H
H       0.7543   0.8131   0.7443     H
H       0.7562   0.6883   0.8229     H
H       0.7562   0.8117   0.4271     H
Zn     0.75624  0.59437  0.41951    Zn
Zn     0.75624  0.90563  0.83049    Zn
N       0.7584   0.0978  0.09096     N
N       0.7584   0.4022  0.15904     N
H       0.7588   0.7249   0.1947     H
H       0.7588   0.7751   0.0553     H
P      0.75889  0.70382  0.43076     P
P      0.75889  0.79618  0.81924     P
C       0.7589   0.2002  0.00041     C
C       0.7589   0.2998  0.24959     C
O       0.7601   0.2371  0.21117     O
O       0.7601   0.2629  0.03883     O
C       0.7603   0.2214  0.72346     C
C       0.7603   0.2786  0.52654     C
O       0.7629   0.7399  0.46117     O
O       0.7629   0.7601  0.78883     O
O       0.7632  0.65374  0.44326     O
O       0.7632  0.84626  0.80674     O
O       0.7635   0.1236  0.11684     O
O       0.7635   0.3764  0.13316     O
C       0.7646   0.1615   0.7633     C
C       0.7646   0.3385   0.4867     C
H       0.7682   0.6049   0.8173     H
H       0.7682   0.8951   0.4327     H
C       0.7685   0.0243   0.9833     C
C       0.7685   0.4757   0.2667     C
C       0.7686   0.5064  0.29157     C
C       0.7686   0.9936  0.95843     C
H       0.7712   0.6404   0.8878     H
H       0.7712   0.8596   0.3622     H
H       0.7718   0.6342   0.7855     H
H       0.7718   0.8658   0.4645     H
C       0.7727   0.6681   0.9325     C
C       0.7727   0.8319   0.3175     C
H       0.7751   0.2412   0.9447     H
H       0.7751   0.2588   0.3053     H
H       0.7758   0.6033   0.9567     H
H       0.7758   0.6696   0.1918     H
H       0.7758   0.8304   0.0582     H
H       0.7758   0.8967   0.2933     H
C       0.7763   0.5616  0.48494     C
C       0.7763   0.9384  0.76506     C
C       0.7766   0.5317   0.5112     C
C       0.7766   0.9683   0.7388     C
C       0.7786   0.7397  0.97346     C
C       0.7786   0.7603  0.27654     C
C        0.779   0.6951   0.2368     C
C        0.779   0.8049   0.0132     C
C       0.7791   0.0684   0.6625     C
C       0.7791   0.4316   0.5875     C
O      0.78113   0.1987  0.16154     O
O      0.78113   0.3013  0.08846     O
C       0.7825   0.7008   0.2017     C
C       0.7825   0.7992   0.0483     C
C       0.7831    0.039   0.6877     C
C       0.7831    0.461   0.5623     C
H       0.7833   0.0553   0.9816     H
H       0.7833   0.4447   0.2684     H
H       0.7836   0.0341   0.8664     H
H       0.7836   0.4659   0.3836     H
O        0.785   0.2105  0.08312     O
O        0.785   0.2895  0.16688     O
H       0.7855    0.003   0.9403     H
H       0.7855    0.497   0.3097     H
H       0.7884   0.1848   0.9462     H
H       0.7884   0.3152   0.3038     H
C       0.7887   0.0749  0.04218     C
C       0.7887   0.4251  0.20782     C
O       0.7895    0.715  0.33312     O
O       0.7895    0.785  0.91688     O
H       0.7915   0.0628   0.8348     H
H       0.7915   0.4372   0.4152     H
C       0.7916   0.1023   0.0688     C
C       0.7916   0.3977   0.1812     C
H       0.7924    0.592   0.4858     H
H       0.7924    0.908   0.7642     H
H       0.7936   0.5414   0.5292     H
H       0.7936   0.9586   0.7208     H
C       0.7954   0.6566   0.9008     C
C       0.7954   0.8434   0.3492     C
C        0.796   0.6969    0.961     C
C        0.796   0.8031    0.289     C
P      0.79618  0.24111  0.18076     P
P      0.79618  0.25889  0.06924     P
C       0.7992   0.2175   0.9517     C
C       0.7992   0.2825   0.2983     C
C       0.7998   0.7411  0.25041     C
C       0.7998   0.7589  0.99959     C
H       0.8002   0.0897   0.8669     H
H       0.8002   0.4103   0.3831     H
O       0.8013  0.71887  0.41154     O
O       0.8013  0.78113  0.83846     O
C       0.8031   0.0588    0.856     C
C       0.8031    0.204    0.711     C
C       0.8031    0.296    0.539     C
C       0.8031   0.4412    0.394     C
H       0.8037   0.0676   0.6473     H
H       0.8037   0.4324   0.6027     H
H       0.8038   0.6252   0.2344     H
H       0.8038   0.8748   0.0156     H
O       0.8047   0.5673  0.34511     O
O       0.8047   0.9327  0.90489     O
C       0.8049    0.221   0.9868     C
C       0.8049    0.279   0.2632     C
H       0.8058   0.6868    0.891     H
H       0.8058   0.8132    0.359     H
C       0.8074    0.144   0.7509     C
C       0.8074    0.356   0.4991     C
Zn     0.80863  0.18352  0.12193    Zn
Zn     0.80863  0.31648  0.12807    Zn
H        0.809   0.0164   0.6894     H
H        0.809   0.4836   0.5606     H
H       0.8117   0.2438   0.5729     H
H       0.8117   0.2562   0.6771     H
H       0.8122   0.0787   0.0264     H
H       0.8122   0.4213   0.2236     H
H       0.8131   0.2457   0.2557     H
H       0.8131   0.2543   0.9943     H
H       0.8132   0.1942    0.641     H
H       0.8132   0.3058    0.609     H
H       0.8152   0.7116   0.1962     H
H       0.8152   0.7884   0.0538     H
C        0.816   0.6561   0.2423     C
C        0.816   0.8439   0.0077     C
O       0.8163   0.5707  0.40234     O
O       0.8163   0.9293  0.84766     O
Zn     0.81648  0.69137  0.37193    Zn
Zn     0.81648  0.80863  0.87807    Zn
H       0.8177   0.1245   0.0714     H
H       0.8177   0.3755   0.1786     H
H       0.8222   0.6532   0.2644     H
H       0.8222   0.8468   0.9856     H
H       0.8234   0.6352   0.9036     H
H       0.8234   0.8648   0.3464     H
H       0.8236   0.1175   0.7603     H
H       0.8236   0.3825   0.4897     H
C       0.8267   0.1653   0.7248     C
C       0.8267   0.3347   0.5252     C
H       0.8304   0.2242   0.9418     H
H       0.8304   0.2758   0.3082     H
C       0.8319   0.2273   0.6825     C
C       0.8319   0.2727   0.5675     C
C       0.8347   0.6733   0.9748     C
C       0.8347   0.8267   0.2752     C
H       0.8355   0.1538   0.9817     H
H       0.8355   0.3462   0.2683     H
P      0.83592  0.58209  0.37129     P
P      0.83592  0.91791  0.87871     P
C       0.8385   0.7354   0.0133     C
C       0.8385   0.7646   0.2367     C
C       0.8434   0.2046   0.6508     C
C       0.8434   0.2954   0.5992     C
C       0.8439    0.184   0.9923     C
C       0.8439    0.316   0.2577     C
H       0.8462   0.6645   0.2317     H
H       0.8462   0.8355   0.0183     H
O      0.84626   0.2368  0.19326     O
O      0.84626   0.2632  0.05674     O
H       0.8467    0.644   0.9663     H
H       0.8467    0.856   0.2837     H
H       0.8468   0.1778   0.0144     H
H       0.8468   0.3222   0.2356     H
H       0.8531   0.7486   0.0312     H
H       0.8531   0.7514   0.2188     H
O      0.85572  0.63297  0.36928     O
O      0.85572  0.86703  0.88072     O
H        0.856   0.1533   0.7163     H
H        0.856   0.3467   0.5337     H
C        0.856   0.6926   0.0009     C
C        0.856   0.8074   0.2491     C
C       0.8565   0.0428   0.8555     C
C       0.8565   0.4572   0.3945     C
H       0.8589   0.5715   0.2774     H
H       0.8589   0.9285   0.9726     H
H       0.8591   0.0107    0.845     H
H       0.8591   0.4893    0.405     H
H       0.8596   0.2288   0.6378     H
H       0.8596   0.2712   0.6122     H
H       0.8627   0.1079    0.899     H
H       0.8627   0.3921    0.351     H
H       0.8648   0.1766   0.6536     H
H       0.8648   0.3234   0.5964     H
H       0.8658   0.2282   0.5355     H
H       0.8658   0.2718   0.7145     H
O      0.86703  0.14428  0.11928     O
O      0.86703  0.35572  0.13072     O
C       0.8718   0.0374  0.88898     C
C       0.8718   0.4626  0.36102     C
C       0.8724   0.0775  0.90712     C
C       0.8724   0.4225  0.34288     C
H       0.8748   0.1962   0.9844     H
H       0.8748   0.3038   0.2656     H
H       0.8755   0.6823   0.3214     H
H       0.8755   0.8177   0.9286     H
C       0.8764   0.2499    0.698     C
C       0.8764   0.2501    0.552     C
O       0.8764   0.7365  0.36684     O
O       0.8764   0.7635  0.88316     O
H       0.8825   0.6764   0.0103     H
H       0.8825   0.8236   0.2397     H
O        0.885   0.5467    0.368     O
O        0.885   0.9533    0.882     O
H       0.8857   0.0824   0.8185     H
H       0.8857   0.4176   0.4315     H
C       0.8857  0.50623  0.34935     C
C       0.8857  0.99377  0.90065     C
C       0.8869   0.0741  0.93694     C
C       0.8869   0.4259  0.31306     C
H       0.8874   0.1021   0.9496     H
H       0.8874   0.3979   0.3004     H
H       0.8892   0.6097   0.1005     H
H       0.8892   0.8903   0.1495     H
H       0.8903   0.1108   0.8505     H
H       0.8903   0.3892   0.3995     H
H       0.8921   0.6373    0.149     H
H       0.8921   0.8627    0.101     H
C       0.8931   0.0791   0.8404     C
C       0.8931   0.4209   0.4096     C
C       0.8943   0.5712   0.2759     C
C       0.8943   0.9288   0.9741     C
H       0.8951   0.2318   0.5673     H
H       0.8951   0.2682   0.6827     H
H       0.8967   0.0941   0.0195     H
H       0.8967   0.2242   0.7067     H
H       0.8967   0.2758   0.5433     H
H       0.8967   0.4059   0.2305     H
C       0.8977   0.7084   0.3188     C
C       0.8977   0.7916   0.9312     C
H       0.8979   0.6126   0.1996     H
H       0.8979   0.8874   0.0504     H
C       0.9003  0.50965  0.31953     C
C       0.9003  0.99035  0.93047     C
C       0.9009   0.0305  0.94862     C
C       0.9009   0.4695  0.30138     C
N       0.9022   0.7416  0.34096     N
N       0.9022   0.7584  0.90904     N
H        0.903   0.0277   0.0388     H
H        0.903   0.4723   0.2112     H
H       0.9045   0.5469   0.2608     H
H       0.9045   0.9531   0.9892     H
Zn     0.90563  0.24376  0.16951    Zn
Zn     0.90563  0.25624  0.08049    Zn
H       0.9059   0.6033   0.2695     H
H       0.9059   0.8967   0.9805     H
H        0.908   0.2076   0.2358     H
H        0.908   0.2924   0.0142     H
H       0.9083   0.5846   0.3226     H
H       0.9083   0.9154   0.9274     H
H       0.9103   0.6998   0.1169     H
H       0.9103   0.8002   0.1331     H
H        0.911   0.0281   0.9694     H
H        0.911   0.4719   0.2806     H
H       0.9154   0.0917   0.0726     H
H       0.9154   0.4083   0.1774     H
C       0.9158   0.5586   0.3073     C
C       0.9158   0.9414   0.9427     C
H       0.9176   0.6143   0.0685     H
H       0.9176   0.8857   0.1815     H
P      0.91791  0.16408  0.12129     P
P      0.91791  0.33592  0.12871     P
C       0.9209   0.6069   0.0904     C
C       0.9209   0.8931   0.1596     C
H       0.9213   0.6878   0.2764     H
H       0.9213   0.8122   0.9736     H
C       0.9225   0.6276  0.15712     C
C       0.9225   0.8724  0.09288     C
C       0.9251   0.7113  0.29218     C
C       0.9251   0.7887  0.95782     C
C       0.9259   0.6131  0.18694     C
C       0.9259   0.8869  0.06306     C
H       0.9262   0.0668    0.843     H
H       0.9262   0.4332    0.407     H
H       0.9285   0.1411   0.0274     H
H       0.9285   0.3589   0.2226     H
C       0.9288   0.1057   0.0259     C
C       0.9288   0.3943   0.2241     C
O       0.9293   0.1837  0.15234     O
O       0.9293   0.3163  0.09766     O
C       0.9316   0.7209   0.9125     C
C       0.9316   0.7791   0.3375     C
H       0.9324   0.6963   0.8973     H
H       0.9324   0.8037   0.3527     H
O       0.9327   0.1953  0.09511     O
O       0.9327   0.3047  0.15489     O
H       0.9332   0.5738    0.093     H
H       0.9332   0.9262    0.157     H
C       0.9363    0.033   0.0458     C
C       0.9363    0.467   0.2042     C
H       0.9372   0.7085   0.0848     H
H       0.9372   0.7915   0.1652     H
C       0.9384   0.2237  0.23494     C
C       0.9384   0.2763  0.01506     C
C       0.9412   0.6969    0.106     C
C       0.9412   0.8031    0.144     C
C       0.9414   0.0842   0.0573     C
C       0.9414   0.4158   0.1927     C
H       0.9438   0.0103   0.0625     H
H       0.9438   0.4897   0.1875     H
H       0.9447   0.7167   0.2316     H
H       0.9447   0.7833   0.0184     H
N       0.9514   0.2459  0.20885     N
N       0.9514   0.2541  0.04115     N
H       0.9531   0.0955   0.0108     H
H       0.9531   0.4045   0.2392     H
O       0.9533    0.115    0.118     O
O       0.9533    0.385    0.132     O
C       0.9571   0.7476  0.28861     C
C       0.9571   0.7524  0.96139     C
C       0.9572   0.6435   0.1055     C
C       0.9572   0.8565   0.1445     C
H       0.9586   0.2064   0.2792     H
H       0.9586   0.2936   0.9708     H
H       0.9588   0.0277   0.0287     H
H       0.9588   0.4723   0.2213     H
C        0.961   0.7169   0.9377     C
C        0.961   0.7831   0.3123     C
C       0.9626   0.6282  0.13898     C
C       0.9626   0.8718  0.11102     C
H       0.9659   0.7164   0.1164     H
H       0.9659   0.7836   0.1336     H
C        0.967   0.5637   0.2958     C
C        0.967   0.9363   0.9542     C
C       0.9683   0.2234   0.2612     C
C       0.9683   0.2766   0.9888     C
C       0.9695   0.5991  0.19862     C
C       0.9695   0.9009  0.05138     C
H       0.9719    0.589   0.2194     H
H       0.9719    0.911   0.0306     H
H       0.9723   0.5412   0.2787     H
H       0.9723    0.597   0.2888     H
H       0.9723    0.903   0.9612     H
H       0.9723   0.9588   0.9713     H
C       0.9757   0.7315   0.2333     C
C       0.9757   0.7685   0.0167     C
H       0.9836    0.691   0.9394     H
H       0.9836    0.809   0.3106     H
C        0.989   0.7477  0.98963     C
C        0.989   0.7523  0.26037     C
H       0.9893   0.6409    0.095     H
H       0.9893   0.8591    0.155     H
H       0.9897   0.5562   0.3125     H
H       0.9897   0.9438   0.9375     H
C      0.99035   0.0997  0.06953     C
C      0.99035   0.4003  0.18047     C
C       0.9936   0.2314  0.04157     C
C       0.9936   0.2686  0.20843     C
C      0.99377   0.1143  0.09935     C
C      0.99377   0.3857  0.15065     C
H        0.997   0.7145   0.1903     H
H        0.997   0.7855   0.0597     H
