data_I
_chemical_name_common  '/home/zhangsd/repos/MofS-CGCNN/ML/data/SSD/clean_cifs/OVEXOD_clean'
_cell_length_a 20.46040
_cell_length_b 20.46040
_cell_length_c 21.92310
_cell_angle_alpha 82.51330
_cell_angle_beta  62.22770
_cell_angle_gamma 111.16900
_space_group_name_H-M_alt      'P 1'


loop_
_space_group_symop_operation_xyz
  'x, y, z' 

loop_
_atom_site_label
_atom_site_fract_x
_atom_site_fract_y
_atom_site_fract_z
_atom_site_type_symbol
C      0.00082  0.24898    0.584     C
C      0.00783  0.20387   0.9617     C
C      0.00961  0.25109   0.9091     C
H       0.0099   0.9873   0.2044     H
N      0.01529  0.96171   0.8856     N
H       0.0168   0.7197   0.0775     H
C      0.01726  0.26964   0.3619     C
H        0.019    0.894    0.797     H
H       0.0205   0.8821   0.5294     H
H       0.0212   0.7996   0.9894     H
N       0.0216   0.8588   0.7784     N
N      0.02297  0.91363    0.929     N
O      0.02565  0.22397   0.6198     O
C      0.02984  0.85156   0.5562     C
C      0.03081  0.22389   0.4009     C
N      0.03594  0.63612   0.6942     N
C      0.03661  0.06769   0.5819     C
C      0.03765  0.98185   0.6673     C
H       0.0386   0.9117   0.2635     H
C       0.0389   0.1086   0.0021     C
C      0.03898  0.07532   0.3137     C
C       0.0397   0.9899   0.4006     C
C      0.04399  0.96791   0.1777     C
O      0.04444  0.31346   0.5327     O
H       0.0446     0.33    0.025     H
C       0.0491   0.1614   0.9421     C
N      0.04985  0.60469   0.7439     N
H       0.0502   0.2855   0.8011     H
C      0.05083  0.25507   0.8361     C
C      0.05161  0.03199   0.0706     C
N      0.05173  0.17739   0.2223     N
H       0.0518   0.2394    0.093     H
C      0.05658  0.76012   0.6377     C
H       0.0568   0.3203   0.3353     H
C      0.06068  0.92242   0.2133     C
H       0.0615   0.1153   0.5478     H
H       0.0641   0.5349   0.8376     H
H       0.0646   0.9725   0.6891     H
H       0.0654   0.9807   0.4237     H
C       0.0656   0.3418    0.054     C
C      0.06586  0.70854    0.683     C
C         0.07   0.2875   0.0945     C
H       0.0709   0.8806   0.7357     H
C      0.07422  0.05238   0.6162     C
C       0.0769   0.0604   0.3489     C
C      0.07723  0.98587   0.1015     C
C      0.07961  0.15099   0.2604     C
H       0.0837   0.7188   0.4635     H
C       0.0863   0.7998   0.3965     C
N       0.0866  0.07444   0.9992     N
H       0.0867   0.6285   0.5768     H
H       0.0885   0.4501   0.0294     H
C      0.08861  0.65999   0.7604     C
C       0.0907   0.5742   0.8489     C
C      0.09196   0.1665   0.8686     C
C      0.09224  0.41396   0.0562     C
C      0.09285  0.21315   0.8158     C
H       0.0956   0.5109   0.9237     H
N      0.10031  0.72597   0.7223     N
C      0.10218  0.30572   0.1377     C
C       0.1042   0.8804    0.554     C
C      0.10846  0.25114    0.183     C
C       0.1095   0.5597   0.9006     C
N      0.10981  0.65117     0.53     N
C      0.11037  0.25643   0.3998     C
C      0.11096  0.89244   0.1742     C
C      0.11098  0.64732   0.8137     C
H        0.112    0.619    0.509     H
C      0.11619  0.76891   0.4321     C
H       0.1163   0.8066   0.7643     H
O      0.11676  0.24494  0.69786     O
H       0.1171   0.8937   0.3226     H
C        0.118   0.8355   0.5945     C
H         0.12   0.1386    0.855     H
H       0.1219   0.8611   0.1982     H
C      0.12479  0.43171   0.0991     C
H       0.1275   0.0983   0.3376     H
C      0.12789  0.95559   0.0624     C
O      0.12899  0.21353   0.4257     O
C      0.13154  0.37916   0.1381     C
C      0.13494  0.21686   0.7374     C
C      0.13568  0.87372   0.3478     C
N       0.1372      0.8   0.7216     N
O      0.13923  0.55469   0.0743     O
C      0.14477  0.90973   0.0985     C
H        0.145   0.9304    0.525     H
C      0.14915  0.70495   0.8327     C
C      0.14959  0.61851   0.9181     C
H       0.1501   0.9663   0.0122     H
N      0.15141  0.20625   0.2439     N
Mn     0.15323  0.27857  0.58824    Mn
C       0.1539   0.1131   0.6024     C
O      0.15532   0.3287   0.3712     O
H       0.1556   0.3921   0.1647     H
C      0.15623  0.51017   0.1002     C
H       0.1616   0.7537   0.8109     H
H       0.1631   0.6093   0.9522     H
N      0.16438  0.09394   0.9343     N
H       0.1676   0.8552    0.593     H
C      0.16858  0.69042   0.8838     C
H        0.169    0.059     0.92     H
N      0.16968  0.26986   0.1942     N
Mn     0.17144  0.39072   0.4408    Mn
O      0.17228   0.3853   0.5995     O
O      0.17726  0.18135  0.57301     O
H       0.1831   0.1019   0.1352     H
O      0.18745   0.1914  0.71553     O
C      0.18838  0.44652   0.5607     C
H        0.191    0.816    0.703     H
N      0.19137  0.71051   0.5025     N
O      0.19259  0.45891    0.501     O
C      0.19391  0.81279   0.4207     C
O      0.19539  0.09436  0.62297     O
C      0.19654  0.87456   0.0573     C
O       0.1999  0.52652   0.1288     O
H          0.2    0.112    0.946     H
H       0.2018    0.577    0.512     H
C      0.20457  0.51173   0.5865     C
O      0.21137  0.83506  0.09249     O
C      0.21147  0.57623   0.5495     C
H       0.2117   0.4654   0.6697     H
C      0.21284  0.91776   0.3368     C
O      0.21411   0.3168  0.47197     O
C       0.2155   0.7563   0.8976     C
H       0.2172   0.3409   0.8647     H
O      0.21733  0.81836  0.87703     O
C      0.21756  0.50914   0.6439     C
O      0.22219  0.88949   0.9905     O
N      0.22417  0.25039   0.9518     N
C      0.22685  0.78295   0.4576     C
H       0.2272   0.4496    0.805     H
H       0.2275   0.0515   0.1998     H
N      0.22822  0.19694   0.9947     N
C      0.23269  0.64071   0.5676     C
C      0.23753  0.12897   0.1235     C
C      0.23929  0.38491   0.8726     C
C       0.2395   0.5735    0.662     C
C      0.24249  0.88811   0.3726     C
C      0.24442  0.70908   0.5241     C
H       0.2454   0.9678    0.305     H
C      0.24544  0.45036   0.8368     C
C      0.24753  0.63897   0.6235     C
H       0.2487   0.5727   0.6998     H
O      0.25436  0.75027  0.92699     O
Mn     0.25541  0.75807   0.0791    Mn
C      0.25945  0.31555   0.9576     C
Mn     0.26069  0.01069     0.75    Mn
H       0.2626    0.241   0.8244     H
H       0.2629   0.6817   0.6352     H
C       0.2645   0.0985    0.162     C
C      0.26651  0.38539   0.9207     C
C      0.26682  0.23148   0.0241     C
O      0.27829  0.03523  0.83596     O
C      0.27848  0.51652   0.8478     C
Mn     0.28072  0.20942   0.6039    Mn
H       0.2837   0.5603   0.8226     H
N      0.28699  0.30613   0.0025     N
H       0.2887   0.8857    0.173     H
O      0.28877  0.68608  0.02803     O
H        0.289   0.0106   0.5106     H
C      0.29169  0.19971   0.0676     C
N      0.29407  0.27227    0.779     N
H       0.2944   0.9181   0.3647     H
H       0.2947   0.3365   0.0768     H
H       0.2972   0.0943   0.4225     H
N      0.29781  0.82403   0.4518     N
C      0.29899  0.45171   0.9321     C
O      0.29981  0.31802  0.55679     O
C       0.3037   0.5172   0.8965     C
H        0.304    0.248     0.75     H
H       0.3083   0.7857   0.7044     H
N      0.30836  0.77708   0.4947     N
Mn     0.31332  0.88462   0.8961    Mn
H       0.3177   0.4528   0.9635     H
N      0.31883  0.36019     0.03     N
H       0.3247    0.982   0.0767     H
H       0.3248   0.6979   0.7635     H
H       0.3262     0.65   0.3722     H
Mn     0.33152  0.61224   0.0592    Mn
C      0.33298  0.58482    0.916     C
N      0.33442  0.79768   0.2283     N
C      0.33443  0.03047   0.4617     C
C       0.3349   0.0467   0.8484     C
H        0.336   0.1744   0.8094     H
Mn     0.33717  0.33451   0.4209    Mn
N      0.33926   0.7493   0.2745     N
C      0.33981  0.08129   0.4091     C
C      0.34116  0.92834   0.1473     C
N      0.34263  0.95197    0.571     N
O      0.34377  0.64545   0.8802     O
O      0.34616  0.57714   0.9673     O
C      0.34696  0.13854   0.1439     C
N      0.34731  0.90089   0.6144     N
C      0.34757  0.39043    0.527     C
H       0.3501   0.3424   0.6443     H
O      0.35261  0.21523  0.65056     O
C      0.35439  0.77831   0.6777     C
C      0.36295  0.98585   0.0896     C
C      0.36428  0.72602   0.7133     C
H       0.3649   0.1186   0.1697     H
O      0.36579  0.00317  0.84944     O
Mn     0.36681  0.74147  0.91176    Mn
C      0.36706  0.17994   0.8304     C
C      0.37019  0.39411   0.6297     C
O      0.37119  0.11425  0.66404     O
O      0.37197  0.42529  0.46326     O
H        0.372    0.379    0.009     H
C      0.37222  0.43128   0.5705     C
C      0.37233  0.11867   0.8592     C
C      0.37427  0.23903   0.0495     C
N      0.37435  0.32521   0.7612     N
O      0.37481   0.8566  0.94321     O
C      0.37537  0.67993   0.3687     C
H       0.3793   0.5955   0.4222     H
C      0.37951  0.86699   0.2205     C
O      0.37999  0.21269   0.5095     O
C       0.3883   0.7906   0.2927     C
O      0.38855  0.83523  0.03674     O
C       0.3893    0.959   0.5021     C
C       0.3951   0.1833   0.6516     C
C       0.3965   0.0088   0.4421     C
C      0.39741  0.87779   0.5706     C
C      0.39848  0.43396   0.6672     C
C      0.39884  0.93432   0.1672     C
C      0.40005  0.50825   0.5505     C
C      0.40177  0.20893   0.0865     C
H       0.4023   0.5336   0.5105     H
O      0.40693  0.90298  0.78447     O
C      0.40753  0.64737   0.3985     C
C      0.40832  0.24978   0.8329     C
C      0.40883  0.11307   0.3361     C
H        0.411   0.2862    0.012     H
C      0.41251  0.39999   0.7205     C
C      0.41263  0.82127   0.6015     C
H       0.4134   0.1487   0.3011     H
N      0.41359  0.86445   0.2612     N
C      0.41583  0.12527   0.8937     C
C       0.4167    0.319   0.7927     C
C      0.41732  0.75878   0.3329     C
C      0.41743  0.87457    0.973     C
H       0.4191   0.0842   0.9131     H
C      0.42436  0.51154   0.6473     C
C      0.42455  0.54745   0.5896     C
N      0.42636   0.9142   0.4992     N
O      0.42755  0.30386  0.40751     O
C      0.43186  0.25384   0.4427     C
C      0.43336  0.71484   0.6742     C
H       0.4346    0.913   0.3244     H
H       0.4407   0.6799   0.6982     H
C      0.44125  0.04945   0.0505     C
H       0.4413   0.5383    0.673     H
H       0.4413   0.5986   0.5767     H
H        0.442    0.854    0.446     H
O       0.4428  0.81462  0.80214     O
N      0.44873  0.92693    0.279     N
C      0.45137  0.25593   0.8687     C
C      0.45413  0.19397   0.8985     C
C      0.45426  0.87234   0.7626     C
H       0.4559   0.0872   0.0105     H
O      0.45991  0.69359    0.999     O
C       0.4649  0.03944   0.3686     C
C      0.47105  0.09135   0.3158     C
N      0.47176  0.90132   0.4343     N
N      0.47402  0.43728   0.7283     N
C      0.47619  0.00011   0.1297     C
N       0.4762  0.38624   0.7745     N
H       0.4778   0.3016   0.8722     H
C      0.47787  0.23153   0.6408     C
H       0.4785   0.1623   0.4878     H
H        0.479    0.089     0.58     H
C      0.48103  0.69047   0.3937     C
C      0.48201  0.80971   0.5624     C
H       0.4823   0.1985   0.9222     H
H       0.4838   0.1454   0.6906     H
O       0.4848  0.77178   0.9005     O
H       0.4867   0.9944   0.8557     H
C      0.48966  0.80254   0.3304     C
C      0.49177  0.75673   0.5985     C
C      0.49278  0.25092   0.0607     C
H       0.4936    0.975    0.645     H
H       0.4973   0.3322   0.5869     H
H        0.498    0.054     0.75     H
C      0.49822  0.05728   0.0705     C
C      0.50178  0.94272   0.9295     C
H        0.502    0.946     0.25     H
H       0.5027   0.6678   0.4131     H
H       0.5064    0.025    0.355     H
C      0.50722  0.74908   0.9393     C
C      0.50823  0.24327   0.4015     C
C      0.51034  0.19746   0.6696     C
H       0.5133   0.0056   0.1443     H
O       0.5152  0.22822   0.0995     O
H       0.5162   0.8546   0.3094     H
H       0.5177   0.8015   0.0778     H
C      0.51799  0.19029   0.4376     C
C      0.51897  0.30953   0.6063     C
H        0.521    0.911     0.42     H
H       0.5215   0.8377   0.5122     H
C      0.52213  0.76847   0.3592     C
H       0.5222   0.6984   0.1278     H
N       0.5238  0.61376   0.2255     N
C      0.52381  0.99989   0.8703     C
N      0.52598  0.56272   0.2717     N
N      0.52824  0.09868   0.5657     N
C      0.52895  0.90865   0.6842     C
C       0.5351  0.96056   0.6314     C
O      0.54009  0.30641    0.001     O
H       0.5441   0.9128   0.9895     H
C      0.54574  0.12766   0.2374     C
C      0.54587  0.80603   0.1015     C
C      0.54863  0.74407   0.1313     C
N      0.55127  0.07307    0.721     N
O       0.5572  0.18538  0.19786     O
H        0.558    0.146    0.554     H
H       0.5587   0.4014   0.4233     H
H       0.5587   0.4617    0.327     H
C      0.55875  0.95055   0.9495     C
H       0.5593   0.3201   0.3018     H
H       0.5654    0.087   0.6756     H
C      0.56664  0.28516   0.3258     C
C      0.56814  0.74616   0.5573     C
O      0.57245  0.69614  0.59249     O
N      0.57364   0.0858   0.5008     N
C      0.57545  0.45255   0.4104     C
C      0.57564  0.48846   0.3527     C
H       0.5809   0.9158   0.0869     H
C      0.58257  0.12543    0.027     C
C      0.58268  0.24122   0.6671     C
C       0.5833    0.681   0.2073     C
C      0.58417  0.87473   0.1063     C
N      0.58641  0.13555   0.7388     N
H       0.5866   0.8513   0.6989     H
C      0.58737  0.17873   0.3985     C
C      0.58749  0.60001   0.2795     C
H        0.589   0.7138    0.988     H
C      0.59117  0.88693   0.6639     C
C      0.59168  0.75022   0.1671     C
C      0.59247  0.35263   0.6015     C
O      0.59307  0.09702  0.21553     O
H       0.5977   0.4664   0.4895     H
C      0.59823  0.79107   0.9135     C
C      0.59995  0.49175   0.4495     C
C      0.60116  0.06568   0.8328     C
C      0.60152  0.56604   0.3328     C
C      0.60259  0.12221   0.4294     C
C       0.6035   0.9912   0.5579     C
C       0.6049   0.8167   0.3484     C
C       0.6107    0.041   0.4979     C
O      0.61145  0.16477  0.96326     O
C       0.6117   0.2094   0.7073     C
O      0.62001  0.78731   0.4905     O
C      0.62049  0.13301   0.7795     C
H       0.6207   0.4045   0.5778     H
C      0.62463  0.32007   0.6313     C
O      0.62519   0.1434  0.05679     O
N      0.62565  0.67479   0.2388     N
C      0.62573  0.76097   0.9505     C
C      0.62767  0.88133   0.1408     C
C      0.62778  0.56872   0.4295     C
H        0.628    0.621    0.991     H
O      0.62803  0.57471  0.53674     O
O      0.62881  0.88575  0.33596     O
C      0.62981  0.60589   0.3703     C
C      0.63294  0.82006   0.1696     C
Mn     0.63319  0.25853  0.08824    Mn
O      0.63421  0.99683  0.15056     O
H       0.6351   0.8814   0.8303     H
C      0.63572  0.27398   0.2867     C
C      0.63705  0.01415   0.9104     C
C      0.64561  0.22169   0.3223     C
O      0.64739  0.78477  0.34944     O
H       0.6499   0.6576   0.3557     H
C      0.65243  0.60957    0.473     C
N      0.65269  0.09911   0.3856     N
C      0.65304  0.86146   0.8561     C
O      0.65384  0.42286   0.0327     O
O      0.65623  0.35455   0.1198     O
N      0.65737  0.04803    0.429     N
C      0.65884  0.07166   0.8527     C
C      0.66019  0.91871   0.5909     C
N      0.66074   0.2507   0.7255     N
Mn     0.66283  0.66549   0.5791    Mn
H        0.664   0.8256   0.1906     H
C       0.6651   0.9533   0.1516     C
C      0.66557  0.96953   0.5383     C
N      0.66558  0.20232   0.7717     N
C      0.66702  0.41518    0.084     C
Mn     0.66848  0.38776   0.9408    Mn
H       0.6738     0.35   0.6278     H
H       0.6752   0.3021   0.2365     H
H       0.6753    0.018   0.9233     H
N      0.68117  0.63981     0.97     N
H       0.6823   0.5472   0.0365     H
Mn     0.68668  0.11538   0.1039    Mn
N      0.69164  0.22292   0.5053     N
H       0.6917   0.2143   0.2956     H
H        0.696    0.752     0.25     H
C       0.6963   0.4828   0.1035     C
O      0.70019  0.68198  0.44321     O
C      0.70101  0.54829   0.0679     C
N      0.70219  0.17597   0.5482     N
H       0.7028   0.9057   0.5775     H
H       0.7053   0.6635   0.9232     H
H       0.7056   0.0819   0.6353     H
N      0.70593  0.72773    0.221     N
C      0.70831  0.80029   0.9324     C
H        0.711   0.9894   0.4894     H
O      0.71123  0.31392  0.97197     O
H       0.7113   0.1143    0.827     H
N      0.71301  0.69387   0.9975     N
H       0.7163   0.4397   0.1774     H
Mn     0.71928  0.79058   0.3961    Mn
C      0.72152  0.48348   0.1522     C
O      0.72171  0.96477  0.16404     O
C      0.73318  0.76852   0.9759     C
C      0.73349  0.61461   0.0793     C
C       0.7355   0.9015    0.838     C
H       0.7371   0.3183   0.3648     H
H       0.7374    0.759   0.1756     H
Mn     0.73931  0.98931     0.25    Mn
C      0.74055  0.68445   0.0424     C
Mn     0.74459  0.24193   0.9209    Mn
O      0.74564  0.24973  0.07301     O
H       0.7513   0.4273   0.3002     H
C      0.75247  0.36103   0.3765     C
C      0.75456  0.54964   0.1632     C
H       0.7546   0.0322    0.695     H
C      0.75558  0.29092   0.4759     C
C      0.75751  0.11189   0.6274     C
C       0.7605   0.4265    0.338     C
C      0.76071  0.61509   0.1274     C
C      0.76247  0.87103   0.8765     C
C      0.76731  0.35929   0.4324     C
N      0.77178  0.80306   0.0053     N
H       0.7725   0.9485   0.8002     H
H       0.7728   0.5504    0.195     H
C      0.77315  0.21705   0.5424     C
N      0.77583  0.74961   0.0482     N
O      0.77781  0.11051   0.0095     O
C      0.78244  0.49086   0.3561     C
O      0.78267  0.18164  0.12297     O
H       0.7828   0.6591   0.1353     H
C       0.7845   0.2437   0.1024     C
O      0.78589   0.6832  0.52803     O
C      0.78716  0.08224   0.6632     C
H       0.7883   0.5346   0.3303     H
C      0.78853  0.42377   0.4505     C
O      0.78863  0.16494  0.90751     O
C      0.79543  0.48827   0.4135     C
H       0.7982    0.423    0.488     H
H          0.8    0.888    0.054     H
O       0.8001  0.47348   0.8712     O
C      0.80346  0.12544   0.9427     C
O      0.80461  0.90564  0.37703     O
C      0.80609  0.18721   0.5793     C
O      0.80741  0.54109    0.499     O
N      0.80863  0.28949   0.4975     N
H        0.809    0.184    0.297     H
C      0.81162  0.55348   0.4393     C
O      0.81255   0.8086  0.28447     O
H       0.8169   0.8981   0.8648     H
O      0.82274  0.81865  0.42699     O
O      0.82772   0.6147   0.4005     O
Mn     0.82856  0.60928   0.5592    Mn
N      0.83032  0.73014   0.8058     N
H        0.831    0.941     0.08     H
C      0.83142  0.30958   0.1162     C
H       0.8324   0.1448    0.407     H
N      0.83562  0.90606   0.0657     N
H       0.8369   0.3907   0.0478     H
H       0.8384   0.2463   0.1891     H
C      0.84377  0.48983   0.8998     C
H       0.8444   0.6079   0.8353     H
O      0.84468   0.6713   0.6288     O
C       0.8461   0.8869   0.3976     C
Mn     0.84677  0.72143  0.41176    Mn
N      0.84859  0.79375   0.7561     N
H       0.8499   0.0337   0.9878     H
C      0.85041  0.38149   0.0819     C
C      0.85085  0.29505   0.1673     C
H        0.855   0.0696    0.475     H
C      0.85523  0.09027   0.9015     C
O      0.86077  0.44531   0.9257     O
N       0.8628      0.2   0.2784     N
C      0.86432  0.12628   0.6522     C
C      0.86506  0.78314   0.2626     C
C      0.86846  0.62084   0.8619     C
O      0.87101  0.78647   0.5743     O
C      0.87211  0.04441   0.9376     C
H       0.8725   0.9017   0.6624     H
C      0.87521  0.56829   0.9009     C
H       0.8781   0.1389   0.8018     H
H         0.88   0.8614    0.145     H
C        0.882   0.1645   0.4055     C
H       0.8829   0.1063   0.6774     H
O      0.88324  0.75506  0.30214     O
H       0.8837   0.1934   0.2357     H
C      0.88381  0.23109   0.5679     C
H        0.888    0.381    0.491     H
C      0.88902  0.35268   0.1863     C
C      0.88904  0.10756   0.8258     C
C      0.88963  0.74357   0.6002     C
N      0.89019  0.34883     0.47     N
C       0.8905   0.4403   0.0994     C
C      0.89154  0.74886    0.817     C
C       0.8958   0.1196    0.446     C
C      0.89782  0.69428   0.8623     C
N      0.89969  0.27403   0.2777     N
H       0.9044   0.4891   0.0763     H
C      0.90715  0.78685   0.1842     C
C      0.90776  0.58604   0.9438     C
C      0.90804   0.8335   0.1314     C
C       0.9093   0.4258   0.1511     C
C      0.91139  0.34001   0.2396     C
H       0.9115   0.5499   0.9706     H
H       0.9133   0.3715   0.4232     H
N       0.9134  0.92556   0.0008     N
C       0.9137   0.2002   0.6035     C
H       0.9163   0.2812   0.5365     H
C      0.92039  0.84901   0.7396     C
C      0.92277  0.01413   0.8985     C
C       0.9231   0.9396   0.6511     C
C      0.92578  0.94762   0.3838     C
H       0.9291   0.1194   0.2643     H
C         0.93   0.7125   0.9055     C
C      0.93414  0.29146    0.317     C
C       0.9344   0.6582    0.946     C
H       0.9346   0.0193   0.5763     H
H       0.9354   0.0275   0.3109     H
H       0.9359   0.4651   0.1624     H
H       0.9385   0.8847   0.4522     H
C      0.93932  0.07758   0.7867     C
H       0.9432   0.6797   0.6647     H
C      0.94342  0.23988   0.3623     C
H       0.9482   0.7606    0.907     H
N      0.94827  0.82261   0.7777     N
C      0.94839  0.96801   0.9294     C
C      0.94917  0.74493   0.1639     C
H       0.9498   0.7145   0.1989     H
N      0.95015  0.39531   0.2561     N
C       0.9509   0.8386   0.0579     C
H       0.9554     0.67    0.975     H
O      0.95556  0.68654   0.4673     O
C      0.95601  0.03209   0.8223     C
C       0.9603   0.0101   0.5994     C
C      0.96102  0.92468   0.6863     C
C       0.9611   0.8914   0.9979     C
H       0.9614   0.0883   0.7365     H
C      0.96235  0.01815   0.3327     C
C      0.96339  0.93231   0.4181     C
N      0.96406  0.36388   0.3058     N
C      0.96919  0.77611   0.5991     C
C      0.97016  0.14844   0.4438     C
O      0.97435  0.77603   0.3802     O
N      0.97703  0.08637    0.071     N
N       0.9784   0.1412   0.2216     N
H       0.9788   0.2004   0.0106     H
H       0.9795   0.1179   0.4706     H
H        0.981    0.106    0.203     H
C      0.98274  0.73036   0.6381     C
H       0.9832   0.2803   0.9225     H
N      0.98471  0.03829   0.1144     N
H       0.9901   0.0127   0.7956     H
C      0.99039  0.74891   0.0909     C
C      0.99217  0.79613   0.0383     C
C      0.99918  0.75102    0.416     C
