data_I
_chemical_name_common  '/home/zhangsd/repos/MofS-CGCNN/ML/data/SSD/clean_cifs/OVICUS_clean'
_cell_length_a 11.17400
_cell_length_b 12.83650
_cell_length_c 12.83650
_cell_angle_alpha 117.85200
_cell_angle_beta  96.11970
_cell_angle_gamma 83.88030
_space_group_name_H-M_alt      'P 1'


loop_
_space_group_symop_operation_xyz
  'x, y, z' 

loop_
_atom_site_label
_atom_site_fract_x
_atom_site_fract_y
_atom_site_fract_z
_atom_site_type_symbol
C        0.012   0.9275   0.8353     C
C       0.0136   0.7521   0.8985     C
C       0.0142   0.6599   0.9363     C
C        0.018     0.87   0.5312     C
S      0.02025  0.04631  0.80157     S
C       0.0351   0.7845   0.4177     C
C       0.0452   0.3394     0.79     C
C         0.06   0.2451   0.6667     C
O       0.0609   0.6256   0.1814     O
H       0.0811   0.8892    0.589     H
C       0.0835   0.1342    0.193     C
C       0.0836   0.2194   0.1576     C
O       0.0858   0.3799   0.0703     O
C       0.0953   0.0727   0.4425     C
N       0.1103   0.9049   0.8875     N
H       0.1109   0.7462   0.3978     H
C       0.1118   0.8181   0.9217     C
O       0.1134   0.6274    0.973     O
S      0.13169  0.95949  0.30013     S
Zn     0.13439  0.50159  0.02679    Zn
O       0.1383   0.3778   0.8562     O
H       0.1497   0.1202   0.2362     H
H       0.1533   0.2592   0.1726     H
C       0.1703   0.1841   0.6341     C
H       0.1807   0.8036   0.9616     H
N       0.1883   0.0977   0.5239     N
H       0.2349   0.2033   0.6905     H
H       0.2651   0.6905   0.2033     H
N       0.3117   0.5239   0.0977     N
H       0.3193   0.9616   0.8036     H
C       0.3297   0.6341   0.1841     C
H       0.3467   0.1726   0.2592     H
H       0.3503   0.2362   0.1202     H
O       0.3617   0.8562   0.3778     O
Zn     0.36561  0.02679  0.50159    Zn
S      0.36831  0.30013  0.95949     S
O       0.3866    0.973   0.6274     O
C       0.3882   0.9217   0.8181     C
H       0.3891   0.3978   0.7462     H
N       0.3897   0.8875   0.9049     N
C       0.4047   0.4425   0.0727     C
O       0.4142   0.0703   0.3799     O
C       0.4164   0.1576   0.2194     C
C       0.4165    0.193   0.1342     C
H       0.4189    0.589   0.8892     H
O       0.4391   0.1814   0.6256     O
C         0.44   0.6667   0.2451     C
C       0.4548     0.79   0.3394     C
C       0.4649   0.4177   0.7845     C
S      0.47975  0.80157  0.04631     S
C        0.482   0.5312     0.87     C
C       0.4858   0.9363   0.6599     C
C       0.4864   0.8985   0.7521     C
C        0.488   0.8353   0.9275     C
C        0.512   0.1647   0.0725     C
C       0.5136   0.1015   0.2479     C
C       0.5142   0.0637   0.3401     C
C        0.518   0.4688     0.13     C
S      0.52025  0.19843  0.95369     S
C       0.5351   0.5823   0.2155     C
C       0.5452     0.21   0.6606     C
C         0.56   0.3333   0.7549     C
O       0.5609   0.8186   0.3744     O
H       0.5811    0.411   0.1108     H
C       0.5835    0.807   0.8658     C
C       0.5836   0.8424   0.7806     C
O       0.5858   0.9297   0.6201     O
C       0.5953   0.5575   0.9273     C
N       0.6103   0.1125   0.0951     N
H       0.6109   0.6022   0.2538     H
C       0.6118   0.0783   0.1819     C
O       0.6134    0.027   0.3726     O
S      0.63169  0.69987  0.04051     S
Zn     0.63439  0.97321  0.49841    Zn
O       0.6383   0.1438   0.6222     O
H       0.6497   0.7638   0.8798     H
H       0.6533   0.8274   0.7408     H
C       0.6703   0.3659   0.8159     C
H       0.6807   0.0384   0.1964     H
N       0.6883   0.4761   0.9023     N
H       0.7349   0.3095   0.7967     H
H       0.7651   0.7967   0.3095     H
N       0.8117   0.9023   0.4761     N
H       0.8193   0.1964   0.0384     H
C       0.8297   0.8159   0.3659     C
H       0.8467   0.7408   0.8274     H
H       0.8503   0.8798   0.7638     H
O       0.8617   0.6222   0.1438     O
Zn     0.86561  0.49841  0.97321    Zn
S      0.86831  0.04051  0.69987     S
O       0.8866   0.3726    0.027     O
C       0.8882   0.1819   0.0783     C
H       0.8891   0.2538   0.6022     H
N       0.8897   0.0951   0.1125     N
C       0.9047   0.9273   0.5575     C
O       0.9142   0.6201   0.9297     O
C       0.9164   0.7806   0.8424     C
C       0.9165   0.8658    0.807     C
H       0.9189   0.1108    0.411     H
O       0.9391   0.3744   0.8186     O
C         0.94   0.7549   0.3333     C
C       0.9548   0.6606     0.21     C
C       0.9649   0.2155   0.5823     C
S      0.97975  0.95369  0.19843     S
C        0.982     0.13   0.4688     C
C       0.9858   0.3401   0.0637     C
C       0.9864   0.2479   0.1015     C
C        0.988   0.0725   0.1647     C
