data_I
_chemical_name_common  '/home/zhangsd/repos/MofS-CGCNN/ML/data/SSD/clean_cifs/OVIZID_clean'
_cell_length_a 12.79320
_cell_length_b 12.79320
_cell_length_c 18.03310
_cell_angle_alpha 91.86460
_cell_angle_beta  91.86460
_cell_angle_gamma 106.13300
_space_group_name_H-M_alt      'P 1'


loop_
_space_group_symop_operation_xyz
  'x, y, z' 

loop_
_atom_site_label
_atom_site_fract_x
_atom_site_fract_y
_atom_site_fract_z
_atom_site_type_symbol
Ni         0.0      0.0      0.0    Ni
Ni         0.0      0.0      0.5    Ni
C       0.0107   0.3063   0.4034     C
H       0.0126    0.534   0.4164     H
C      0.03415  0.21785  0.43082     C
N      0.03738  0.85982   0.5333     N
H       0.0424    0.323   0.6297     H
C       0.0556   0.4798   0.6101     C
H       0.0644   0.3586   0.3785     H
O      0.08785  0.16085  0.02182     O
C       0.0882    0.395   0.6387     C
C       0.0925   0.6795   0.5882     C
H       0.1001   0.8119   0.0002     H
O       0.1038   0.4534    0.249     O
H       0.1051   0.2101   0.4245     H
C       0.1223   0.5855     0.62     C
C       0.1363   0.8463   0.5249     C
H       0.1398    0.358   0.0844     H
N      0.14018  0.96262   0.9667     N
O      0.14767  0.29807  0.23835     O
O      0.14857  0.18351  0.62424     O
C       0.1537   0.8637   0.9751     C
C      0.15421  0.20139   0.0736     C
O      0.16085  0.08785  0.52182     O
C       0.1635   0.3977   0.2273     C
C       0.1669   0.7587   0.5506     C
N       0.1817   0.4091  0.67862     N
O      0.18351  0.14857  0.12424     O
H       0.1881   0.8999   0.4998     H
C       0.1998    0.325   0.0754     C
C      0.20139  0.15421   0.5736     C
H       0.2101   0.1051   0.9245     H
C      0.21785  0.03415  0.93082     C
C       0.2185   0.6005   0.6623     C
H       0.2278    0.347    0.026     H
O       0.2355   0.3751   0.8809     O
Ni     0.23711  0.27551  0.71057    Ni
H       0.2378   0.7522   0.5429     H
O       0.2394   0.4666   0.4144     O
H       0.2404    0.507   0.1498     H
C       0.2413   0.8331   0.9494     C
C       0.2435   0.5125   0.6908     C
H       0.2478   0.7622   0.9571     H
C       0.2598   0.4522   0.1809     C
H       0.2665   0.6715   0.6712     H
H       0.2666    0.653    0.408     H
Ni     0.27551  0.23711  0.21057    Ni
H       0.2833   0.3625   0.5203     H
N      0.28876   0.3694  0.13294     N
O      0.29807  0.14767  0.73835     O
C       0.3003   0.5429    0.451     C
C       0.3063   0.0107   0.9034     C
H       0.3083   0.5249    0.721     H
H       0.3199   0.5391   0.9662     H
C       0.3205   0.9075   0.9118     C
O      0.32238  0.64302  0.43135     O
H       0.3229   0.4901   0.2142     H
H        0.323   0.0424   0.1297     H
C       0.3231   0.4069   0.8491     C
C        0.325   0.1998   0.5754     C
H       0.3285   0.7335   0.8288     H
C       0.3401   0.4191   0.5439     C
O      0.34282  0.37282  0.78675     O
H        0.347   0.2278    0.526     H
H        0.347   0.7334    0.092     H
O      0.35698  0.67762  0.06865     O
H        0.358   0.1398   0.5844     H
H       0.3586   0.0644   0.8785     H
H       0.3625   0.2833   0.0203     H
C       0.3633   0.5239   0.5178     C
N       0.3694  0.28876  0.63294     N
O      0.37282  0.34282  0.28675     O
O       0.3751   0.2355   0.3809     O
C       0.3914   0.5546   0.9483     C
C        0.395   0.0882   0.1387     C
C      0.39656  0.39904   0.1039     C
C       0.3977   0.1635   0.7273     C
C      0.39904  0.39656   0.6039     C
C       0.3995   0.7815   0.8377     C
C       0.4069   0.3231   0.3491     C
N       0.4091   0.1817  0.17862     N
C       0.4134   0.4956   0.8878     C
C       0.4145   0.8777     0.88     C
C       0.4191   0.3401   0.0439     C
C       0.4454   0.6086   0.5517     C
C       0.4522   0.2598   0.6809     C
O       0.4534   0.1038    0.749     O
C       0.4571   0.6997    0.049     C
H       0.4609   0.6801   0.5338     H
H        0.466   0.9874   0.0836     H
O       0.4666   0.2394   0.9144     O
H       0.4679   0.5231   0.1795     H
H       0.4751   0.6917    0.779     H
C       0.4761   0.6367   0.9822     C
H       0.4769   0.5321   0.3205     H
C       0.4798   0.0556   0.1101     C
C       0.4819   0.4819   0.1381     C
C       0.4819   0.4819   0.6381     C
C       0.4875   0.7565   0.8092     C
H       0.4901   0.3229   0.7142     H
H        0.493   0.7596   0.3502     H
C       0.4956   0.4134   0.3878     C
C       0.5044   0.5866   0.6122     C
H        0.507   0.2404   0.6498     H
H       0.5099   0.6771   0.2858     H
C       0.5125   0.2435   0.1908     C
C       0.5181   0.5181   0.3619     C
C       0.5181   0.5181   0.8619     C
C       0.5202   0.9444   0.8899     C
H       0.5231   0.4679   0.6795     H
C       0.5239   0.3633   0.0178     C
H       0.5249   0.3083    0.221     H
H       0.5321   0.4769   0.8205     H
O       0.5334   0.7606   0.0856     O
H        0.534   0.0126   0.9164     H
H       0.5391   0.3199   0.4662     H
C       0.5429   0.3003    0.951     C
O       0.5466   0.8962    0.251     O
C       0.5478   0.7402   0.3191     C
C       0.5546   0.3914   0.4483     C
C       0.5809   0.6599   0.9561     C
C       0.5855   0.1223     0.12     C
C       0.5866   0.5044   0.1122     C
N       0.5909   0.8183  0.82138     N
C       0.5931   0.6769   0.6509     C
C       0.6005   0.2185   0.1623     C
C      0.60096  0.60344   0.3961     C
C       0.6023   0.8365   0.2727     C
C      0.60344  0.60096   0.8961     C
C        0.605   0.9118   0.8613     C
C       0.6086   0.4454   0.0517     C
O       0.6249   0.7645   0.6191     O
O      0.62718  0.65718  0.71325     O
N       0.6306  0.71124  0.36706     N
C       0.6367   0.4761   0.4822     C
H       0.6375   0.7167   0.9797     H
H       0.6414   0.9356   0.1215     H
H        0.642   0.8602   0.4156     H
O      0.64302  0.32238  0.93135     O
H        0.653   0.2666    0.908     H
H        0.653   0.7722    0.474     H
O      0.65718  0.62718  0.21325     O
C       0.6599   0.5809   0.4561     C
H       0.6715   0.2665   0.1712     H
C        0.675   0.8002   0.4246     C
C       0.6769   0.5931   0.1509     C
H        0.677   0.9576   0.8703     H
H       0.6771   0.5099   0.7858     H
O      0.67762  0.35698  0.56865     O
C       0.6795   0.0925   0.0882     C
H       0.6801   0.4609   0.0338     H
H       0.6917   0.4751    0.279     H
C       0.6937   0.9893   0.0966     C
C       0.6997   0.4571    0.549     C
O      0.70193  0.85233  0.26165     O
N      0.71124   0.6306  0.86706     N
H       0.7167   0.6375   0.4797     H
Ni     0.72449  0.76289  0.78943    Ni
H       0.7334    0.347    0.592     H
H       0.7335   0.3285   0.3288     H
C       0.7402   0.5478   0.8191     C
H       0.7522   0.2378   0.0429     H
C       0.7565   0.4875   0.3092     C
C       0.7587   0.1669   0.0506     C
H       0.7596    0.493   0.8502     H
O       0.7606   0.5334   0.5856     O
H       0.7622   0.2478   0.4571     H
Ni     0.76289  0.72449  0.28943    Ni
O       0.7645   0.6249   0.1191     O
H       0.7722    0.653    0.974     H
C       0.7815   0.3995   0.3377     C
C      0.78215  0.96585  0.06918     C
H       0.7899   0.8949   0.0755     H
C      0.79861  0.84579   0.4264     C
C       0.8002    0.675   0.9246     C
H       0.8119   0.1001   0.5002     H
O      0.81649  0.85143  0.87576     O
N       0.8183   0.5909  0.32138     N
C       0.8331   0.2413   0.4494     C
C       0.8365   0.6023   0.7727     C
O      0.83915  0.91215  0.47818     O
C      0.84579  0.79861   0.9264     C
C       0.8463   0.1363   0.0249     C
O      0.85143  0.81649  0.37576     O
O      0.85233  0.70193  0.76165     O
N      0.85982  0.03738   0.0333     N
H       0.8602    0.642   0.9156     H
C       0.8637   0.1537   0.4751     C
C       0.8777   0.4145     0.38     C
H       0.8949   0.7899   0.5755     H
O       0.8962   0.5466    0.751     O
H       0.8999   0.1881   0.9998     H
C       0.9075   0.3205   0.4118     C
C       0.9118    0.605   0.3613     C
O      0.91215  0.83915  0.97818     O
H       0.9356   0.6414   0.6215     H
C       0.9444   0.5202   0.3899     C
H       0.9576    0.677   0.3703     H
N      0.96262  0.14018   0.4667     N
C      0.96585  0.78215  0.56918     C
H       0.9874    0.466   0.5836     H
C       0.9893   0.6937   0.5966     C
