data_I
_chemical_name_common  '/home/zhangsd/repos/MofS-CGCNN/ML/data/SSD/clean_cifs/OWIKAI_clean'
_cell_length_a  9.90300
_cell_length_b  9.90300
_cell_length_c 15.72000
_cell_angle_alpha 90.00000
_cell_angle_beta  90.00000
_cell_angle_gamma 90.00000
_space_group_name_H-M_alt      'P 1'


loop_
_space_group_symop_operation_xyz
  'x, y, z' 

loop_
_atom_site_label
_atom_site_fract_x
_atom_site_fract_y
_atom_site_fract_z
_atom_site_type_symbol
Nb         0.0      0.5      0.0    Nb
O          0.0      0.5   0.1228     O
Ni         0.0      0.5     0.25    Ni
O          0.0      0.5   0.3772     O
Nb         0.0      0.5      0.5    Nb
O          0.0      0.5   0.6228     O
Ni         0.0      0.5     0.75    Ni
O          0.0      0.5   0.8772     O
F       0.0096   0.3078      0.0     F
F       0.0096   0.6922      0.5     F
H       0.0983   0.2639   0.3583     H
H       0.0983   0.2639   0.6417     H
H       0.0983   0.7361   0.1417     H
H       0.0983   0.7361   0.8583     H
H       0.1001   0.2631   0.1426     H
H       0.1001   0.2631   0.8574     H
H       0.1001   0.7369   0.3574     H
H       0.1001   0.7369   0.6426     H
N       0.1506   0.3494   0.2501     N
N       0.1506   0.3494   0.7499     N
N       0.1506   0.6506   0.2499     N
N       0.1506   0.6506   0.7501     N
C       0.1593   0.2601   0.3134     C
C       0.1593   0.2601   0.6866     C
C       0.1593   0.7399   0.1866     C
C       0.1593   0.7399   0.8134     C
C       0.1612   0.2591   0.1875     C
C       0.1612   0.2591   0.8125     C
C       0.1612   0.7409   0.3125     C
C       0.1612   0.7409   0.6875     C
F       0.1922   0.4904      0.0     F
F       0.1922   0.5096      0.5     F
H       0.2361   0.4017   0.3583     H
H       0.2361   0.4017   0.6417     H
H       0.2361   0.5983   0.1417     H
H       0.2361   0.5983   0.8583     H
H       0.2369   0.3999   0.1426     H
H       0.2369   0.3999   0.8574     H
H       0.2369   0.6001   0.3574     H
H       0.2369   0.6001   0.6426     H
C       0.2399   0.3407   0.3134     C
C       0.2399   0.3407   0.6866     C
C       0.2399   0.6593   0.1866     C
C       0.2399   0.6593   0.8134     C
C       0.2409   0.3388   0.1875     C
C       0.2409   0.3388   0.8125     C
C       0.2409   0.6612   0.3125     C
C       0.2409   0.6612   0.6875     C
C       0.2591   0.1612   0.3125     C
C       0.2591   0.1612   0.6875     C
C       0.2591   0.8388   0.1875     C
C       0.2591   0.8388   0.8125     C
C       0.2601   0.1593   0.1866     C
C       0.2601   0.1593   0.8134     C
C       0.2601   0.8407   0.3134     C
C       0.2601   0.8407   0.6866     C
H       0.2631   0.1001   0.3574     H
H       0.2631   0.1001   0.6426     H
H       0.2631   0.8999   0.1426     H
H       0.2631   0.8999   0.8574     H
H       0.2639   0.0983   0.1417     H
H       0.2639   0.0983   0.8583     H
H       0.2639   0.9017   0.3583     H
H       0.2639   0.9017   0.6417     H
F       0.3078   0.0096      0.5     F
F       0.3078   0.9904      0.0     F
C       0.3388   0.2409   0.3125     C
C       0.3388   0.2409   0.6875     C
C       0.3388   0.7591   0.1875     C
C       0.3388   0.7591   0.8125     C
C       0.3407   0.2399   0.1866     C
C       0.3407   0.2399   0.8134     C
C       0.3407   0.7601   0.3134     C
C       0.3407   0.7601   0.6866     C
N       0.3494   0.1506   0.2499     N
N       0.3494   0.1506   0.7501     N
N       0.3494   0.8494   0.2501     N
N       0.3494   0.8494   0.7499     N
H       0.3999   0.2369   0.3574     H
H       0.3999   0.2369   0.6426     H
H       0.3999   0.7631   0.1426     H
H       0.3999   0.7631   0.8574     H
H       0.4017   0.2361   0.1417     H
H       0.4017   0.2361   0.8583     H
H       0.4017   0.7639   0.3583     H
H       0.4017   0.7639   0.6417     H
F       0.4904   0.1922      0.5     F
F       0.4904   0.8078      0.0     F
Nb         0.5      0.0      0.0    Nb
O          0.5      0.0   0.1228     O
Ni         0.5      0.0     0.25    Ni
O          0.5      0.0   0.3772     O
Nb         0.5      0.0      0.5    Nb
O          0.5      0.0   0.6228     O
Ni         0.5      0.0     0.75    Ni
O          0.5      0.0   0.8772     O
F       0.5096   0.1922      0.0     F
F       0.5096   0.8078      0.5     F
H       0.5983   0.2361   0.3583     H
H       0.5983   0.2361   0.6417     H
H       0.5983   0.7639   0.1417     H
H       0.5983   0.7639   0.8583     H
H       0.6001   0.2369   0.1426     H
H       0.6001   0.2369   0.8574     H
H       0.6001   0.7631   0.3574     H
H       0.6001   0.7631   0.6426     H
N       0.6506   0.1506   0.2501     N
N       0.6506   0.1506   0.7499     N
N       0.6506   0.8494   0.2499     N
N       0.6506   0.8494   0.7501     N
C       0.6593   0.2399   0.3134     C
C       0.6593   0.2399   0.6866     C
C       0.6593   0.7601   0.1866     C
C       0.6593   0.7601   0.8134     C
C       0.6612   0.2409   0.1875     C
C       0.6612   0.2409   0.8125     C
C       0.6612   0.7591   0.3125     C
C       0.6612   0.7591   0.6875     C
F       0.6922   0.0096      0.0     F
F       0.6922   0.9904      0.5     F
H       0.7361   0.0983   0.3583     H
H       0.7361   0.0983   0.6417     H
H       0.7361   0.9017   0.1417     H
H       0.7361   0.9017   0.8583     H
H       0.7369   0.1001   0.1426     H
H       0.7369   0.1001   0.8574     H
H       0.7369   0.8999   0.3574     H
H       0.7369   0.8999   0.6426     H
C       0.7399   0.1593   0.3134     C
C       0.7399   0.1593   0.6866     C
C       0.7399   0.8407   0.1866     C
C       0.7399   0.8407   0.8134     C
C       0.7409   0.1612   0.1875     C
C       0.7409   0.1612   0.8125     C
C       0.7409   0.8388   0.3125     C
C       0.7409   0.8388   0.6875     C
C       0.7591   0.3388   0.3125     C
C       0.7591   0.3388   0.6875     C
C       0.7591   0.6612   0.1875     C
C       0.7591   0.6612   0.8125     C
C       0.7601   0.3407   0.1866     C
C       0.7601   0.3407   0.8134     C
C       0.7601   0.6593   0.3134     C
C       0.7601   0.6593   0.6866     C
H       0.7631   0.3999   0.3574     H
H       0.7631   0.3999   0.6426     H
H       0.7631   0.6001   0.1426     H
H       0.7631   0.6001   0.8574     H
H       0.7639   0.4017   0.1417     H
H       0.7639   0.4017   0.8583     H
H       0.7639   0.5983   0.3583     H
H       0.7639   0.5983   0.6417     H
F       0.8078   0.4904      0.5     F
F       0.8078   0.5096      0.0     F
C       0.8388   0.2591   0.3125     C
C       0.8388   0.2591   0.6875     C
C       0.8388   0.7409   0.1875     C
C       0.8388   0.7409   0.8125     C
C       0.8407   0.2601   0.1866     C
C       0.8407   0.2601   0.8134     C
C       0.8407   0.7399   0.3134     C
C       0.8407   0.7399   0.6866     C
N       0.8494   0.3494   0.2499     N
N       0.8494   0.3494   0.7501     N
N       0.8494   0.6506   0.2501     N
N       0.8494   0.6506   0.7499     N
H       0.8999   0.2631   0.3574     H
H       0.8999   0.2631   0.6426     H
H       0.8999   0.7369   0.1426     H
H       0.8999   0.7369   0.8574     H
H       0.9017   0.2639   0.1417     H
H       0.9017   0.2639   0.8583     H
H       0.9017   0.7361   0.3583     H
H       0.9017   0.7361   0.6417     H
F       0.9904   0.3078      0.5     F
F       0.9904   0.6922      0.0     F
