data_I
_chemical_name_common  '/home/zhangsd/repos/MofS-CGCNN/ML/data/SSD/clean_cifs/OWUWOU_clean'
_cell_length_a 24.57600
_cell_length_b 12.41600
_cell_length_c 18.09400
_cell_angle_alpha 90.00000
_cell_angle_beta  102.53400
_cell_angle_gamma 90.00000
_space_group_name_H-M_alt      'P 1'


loop_
_space_group_symop_operation_xyz
  'x, y, z' 

loop_
_atom_site_label
_atom_site_fract_x
_atom_site_fract_y
_atom_site_fract_z
_atom_site_type_symbol
C       0.0001   0.0673   0.3962     C
C       0.0001   0.4327   0.8962     C
H       0.0085   0.2297    0.658     H
H       0.0085   0.2703    0.158     H
H       0.0098   0.0207   0.3609     H
H       0.0098   0.4793   0.8609     H
H       0.0198   0.1171   0.0702     H
H       0.0198   0.3829   0.5702     H
C         0.02   0.6083    0.442     C
C         0.02   0.8917    0.942     C
C       0.0257   0.1706   0.5145     C
C       0.0257   0.3294   0.0145     C
C       0.0301   0.7053   0.9947     C
C       0.0301   0.7947   0.4947     C
H       0.0308   0.5592   0.4068     H
H       0.0308   0.9408   0.9068     H
C       0.0312   0.7381   0.8559     C
C       0.0312   0.7619   0.3559     C
H       0.0314   0.5802   0.4924     H
H       0.0314   0.9198   0.9924     H
C       0.0398   0.1003   0.4594     C
C       0.0398   0.3997   0.9594     C
H        0.043   0.7125   0.3216     H
H        0.043   0.7875   0.8216     H
C       0.0479   0.7176   0.4373     C
C       0.0479   0.7824   0.9373     C
H       0.0488   0.6696   0.8533     H
H       0.0488   0.8304   0.3533     H
H        0.052   0.5366   0.2473     H
H        0.052   0.9634   0.7473     H
C       0.0538   0.6049   0.1133     C
C       0.0538   0.8951   0.6133     C
O      0.06369   0.1999   0.5758     O
O      0.06369   0.3001   0.0758     O
C       0.0683   0.6737   0.0594     C
C       0.0683   0.8263   0.5594     C
H       0.0706   0.5427   0.7277     H
H       0.0706   0.9573   0.2277     H
H       0.0734   0.0598    0.705     H
H       0.0734   0.4402    0.205     H
C       0.0835   0.5096   0.2285     C
C       0.0835   0.9904   0.7285     C
H       0.0874   0.0746   0.2097     H
H       0.0874   0.4254   0.7097     H
H        0.095   0.0367   0.2939     H
H        0.095   0.4633   0.7939     H
C       0.0951   0.0569   0.4673     C
C       0.0951   0.4431   0.9673     C
H       0.0952   0.1016   0.8554     H
H       0.0952   0.3984   0.3554     H
O      0.09597   0.5815   0.1747     O
O      0.09597   0.9185   0.6747     O
C       0.0967   0.0147   0.2436     C
C       0.0967   0.4853   0.7436     C
H       0.0991   0.5039   0.9389     H
H       0.0991   0.9961   0.4389     H
H       0.1047   0.6992   0.0672     H
H       0.1047   0.8008   0.5672     H
C       0.1111    0.699   0.4547     C
C       0.1111    0.801   0.9547     C
O       0.1175   0.1673   0.9897     O
O       0.1175   0.3327   0.4897     O
H       0.1204   0.6509   0.4178     H
H       0.1204   0.8491   0.9178     H
H       0.1227    0.668   0.5043     H
H       0.1227    0.832   0.0043     H
C       0.1288    0.068   0.8542     C
C       0.1288    0.432   0.3542     C
H       0.1298   0.7335    0.953     H
H       0.1298   0.7665    0.453     H
C       0.1328   0.0033    0.793     C
C       0.1328   0.4967    0.293     C
H       0.1342   0.6184   0.6461     H
H       0.1342   0.8816   0.1461     H
N       0.1389   0.0947   0.5098     N
N       0.1389   0.4053   0.0098     N
Fe     0.13949  0.23069  0.57877    Fe
Fe     0.13949  0.26931  0.07877    Fe
H       0.1411   0.6759   0.7795     H
H       0.1411   0.8241   0.2795     H
H       0.1507   0.5009    0.628     H
H       0.1507   0.9991    0.128     H
O      0.15381   0.1776    0.163     O
O      0.15381   0.3224    0.663     O
C       0.1542   0.5234    0.743     C
C       0.1542   0.9766    0.243     C
C       0.1595   0.5601   0.6627     C
C       0.1595   0.9399   0.1627     C
H       0.1642   0.5971   0.8467     H
H       0.1642   0.9029   0.3467     H
C       0.1663    0.154   0.9787     C
C       0.1663    0.346   0.4787     C
C       0.1672   0.6189   0.7968     C
C       0.1672   0.8811   0.2968     C
C       0.1742    0.083   0.9132     C
C       0.1742    0.417   0.4132     C
C       0.1832   0.5488   0.2936     C
C       0.1832   0.9512   0.7936     C
H        0.186   0.5951   0.2542     H
H        0.186   0.9049   0.7542     H
H       0.1866   0.5312   0.9971     H
H       0.1866   0.9688   0.4971     H
H       0.1889   0.5316   0.1252     H
H       0.1889   0.9684   0.6252     H
C       0.1913   0.0384    0.522     C
C       0.1913   0.4616    0.022     C
C       0.1928   0.1659   0.2258     C
C       0.1928   0.3341   0.7258     C
C       0.1957   0.0705   0.2687     C
C       0.1957   0.4295   0.7687     C
H        0.197   0.5836   0.6644     H
H        0.197   0.9164   0.1644     H
N       0.2015   0.1292   0.6428     N
N       0.2015   0.3708   0.1428     N
H       0.2043   0.6438   0.7981     H
H       0.2043   0.8562   0.2981     H
O       0.2063   0.1948   0.0225     O
O       0.2063   0.3052   0.5225     O
C       0.2104   0.0246   0.6075     C
C       0.2104   0.4754   0.1075     C
H       0.2184   0.0797   0.5022     H
H       0.2184   0.4203   0.0022     H
C       0.2244   0.0376   0.9122     C
C       0.2244   0.4624   0.4122     C
C       0.2291   0.5323   0.3524     C
C       0.2291   0.9677   0.8524     C
C       0.2315   0.2496   0.2497     C
C       0.2315   0.2504   0.7497     C
C        0.234   0.1543    0.707     C
C        0.234   0.3457    0.207     C
C       0.2362   0.0656   0.3344     C
C       0.2362   0.4344   0.8344     C
H       0.2386   0.0034   0.3636     H
H       0.2386   0.4966   0.8636     H
H       0.2495   0.0048   0.6206     H
H       0.2495   0.4952   0.1206     H
H       0.2554   0.0524   0.9506     H
H       0.2554   0.4476   0.4506     H
H       0.2616   0.1049   0.7274     H
H       0.2616   0.3951   0.2274     H
C       0.2718   0.2414   0.3178     C
C       0.2718   0.2586   0.8178     C
C       0.2734   0.1481   0.3595     C
C       0.2734   0.3519   0.8595     C
C       0.2818   0.5816   0.3455     C
C       0.2818   0.9184   0.8455     C
O       0.2831   0.6499   0.2949     O
O       0.2831   0.8501   0.7949     O
H       0.2967   0.2026   0.8342     H
H       0.2967   0.2974   0.3342     H
O       0.3106   0.1304   0.4283     O
O       0.3106   0.3696   0.9283     O
H       0.3176   0.2228   0.9703     H
H       0.3176   0.2772   0.4703     H
O       0.3222   0.5574    0.387     O
O       0.3222   0.9426    0.887     O
H       0.3308    0.077   0.5669     H
H       0.3308    0.423   0.0669     H
C        0.342   0.2206   0.4597     C
C        0.342   0.2794   0.9597     C
O       0.3518   0.5797    0.168     O
O       0.3518   0.9203    0.668     O
H       0.3635   0.2483   0.4248     H
H       0.3635   0.2517   0.9248     H
C       0.3658   0.1088   0.5801     C
C       0.3658   0.3912   0.0801     C
Cd     0.36924   0.6729  0.28944    Cd
Cd     0.36924   0.8271  0.78944    Cd
C       0.3805   0.1831   0.5324     C
C       0.3805   0.3169   0.0324     C
C       0.3854   0.5081   0.1947     C
C       0.3854   0.9919   0.6947     C
C       0.4012   0.0792   0.6472     C
C       0.4012   0.4208   0.1472     C
O       0.4078   0.5183   0.2575     O
O       0.4078   0.9817   0.7575     O
C       0.4324   0.2333   0.5547     C
C       0.4324   0.2667   0.0547     C
H       0.4435   0.2157   0.0234     H
H       0.4435   0.2843   0.5234     H
O       0.4487   0.7391   0.7883     O
O       0.4487   0.7609   0.2883     O
C       0.4517   0.1311   0.6692     C
C       0.4517   0.3689   0.1692     C
O       0.4615   0.6839   0.3963     O
O       0.4615   0.8161   0.8963     O
C       0.4674   0.2073   0.6235     C
C       0.4674   0.2927   0.1235     C
H       0.4752   0.1142   0.7153     H
H       0.4752   0.3858   0.2153     H
C       0.4765   0.7432   0.3521     C
C       0.4765   0.7568   0.8521     C
C       0.5235   0.2432   0.1479     C
C       0.5235   0.2568   0.6479     C
H       0.5248   0.6142   0.7847     H
H       0.5248   0.8858   0.2847     H
C       0.5326   0.7073   0.8765     C
C       0.5326   0.7927   0.3765     C
O       0.5385   0.1839   0.1037     O
O       0.5385   0.3161   0.6037     O
C       0.5483   0.6311   0.8308     C
C       0.5483   0.8689   0.3308     C
O       0.5513   0.2391   0.7117     O
O       0.5513   0.2609   0.2117     O
H       0.5565   0.7157   0.4766     H
H       0.5565   0.7843   0.9766     H
C       0.5676   0.7333   0.9453     C
C       0.5676   0.7667   0.4453     C
O       0.5922   0.0183   0.2425     O
O       0.5922   0.4817   0.7425     O
C       0.5988   0.5792   0.8528     C
C       0.5988   0.9208   0.3528     C
C       0.6146   0.0081   0.3053     C
C       0.6146   0.4919   0.8053     C
C       0.6195   0.6831   0.9676     C
C       0.6195   0.8169   0.4676     C
Cd     0.63076   0.1729  0.21056    Cd
Cd     0.63076   0.3271  0.71056    Cd
C       0.6342   0.6088   0.9199     C
C       0.6342   0.8912   0.4199     C
H       0.6365   0.7483   0.0752     H
H       0.6365   0.7517   0.5752     H
O       0.6482   0.0797    0.332     O
O       0.6482   0.4203    0.832     O
C        0.658   0.7206   0.0403     C
C        0.658   0.7794   0.5403     C
H       0.6692    0.577   0.9331     H
H       0.6692    0.923   0.4331     H
O       0.6778   0.0574    0.113     O
O       0.6778   0.4426    0.613     O
H       0.6824   0.7228   0.5297     H
H       0.6824   0.7772   0.0297     H
O       0.6894   0.6304   0.0717     O
O       0.6894   0.8696   0.5717     O
H       0.7033   0.7026   0.6658     H
H       0.7033   0.7974   0.1658     H
O       0.7169   0.1499   0.2051     O
O       0.7169   0.3501   0.7051     O
C       0.7182   0.0816   0.1545     C
C       0.7182   0.4184   0.6545     C
C       0.7266   0.6481   0.1405     C
C       0.7266   0.8519   0.6405     C
C       0.7282   0.7414   0.1822     C
C       0.7282   0.7586   0.6822     C
H       0.7384   0.6049   0.7726     H
H       0.7384   0.8951   0.2726     H
H       0.7446   0.5524   0.5494     H
H       0.7446   0.9476   0.0494     H
H       0.7505   0.5048   0.8794     H
H       0.7505   0.9952   0.3794     H
H       0.7614   0.5034   0.1364     H
H       0.7614   0.9966   0.6364     H
C       0.7638   0.5656   0.1656     C
C       0.7638   0.9344   0.6656     C
C        0.766   0.6543    0.793     C
C        0.766   0.8457    0.293     C
C       0.7685   0.7496   0.2503     C
C       0.7685   0.7504   0.7503     C
C       0.7709   0.0323   0.1476     C
C       0.7709   0.4677   0.6476     C
C       0.7756   0.5376   0.5878     C
C       0.7756   0.9624   0.0878     C
H       0.7816   0.5797   0.9978     H
H       0.7816   0.9203   0.4978     H
C       0.7896   0.5246   0.8925     C
C       0.7896   0.9754   0.3925     C
O       0.7937   0.6948   0.4775     O
O       0.7937   0.8052   0.9775     O
H       0.7957   0.1438   0.7019     H
H       0.7957   0.3562   0.2019     H
N       0.7985   0.6292   0.8572     N
N       0.7985   0.8708   0.3572     N
H        0.803   0.0836   0.8356     H
H        0.803   0.4164   0.3356     H
C       0.8043   0.5705   0.2313     C
C       0.8043   0.9295   0.7313     C
C       0.8072   0.6659   0.2742     C
C       0.8072   0.8341   0.7742     C
C       0.8087   0.5384    0.978     C
C       0.8087   0.9616    0.478     C
H       0.8111   0.0316   0.3748     H
H       0.8111   0.4684   0.8748     H
H       0.8134   0.0312   0.5029     H
H       0.8134   0.4688   0.0029     H
H        0.814   0.0951   0.2458     H
H        0.814   0.4049   0.7458     H
C       0.8168   0.0488   0.2064     C
C       0.8168   0.4512   0.7064     C
C       0.8258    0.583   0.5868     C
C       0.8258    0.917   0.0868     C
C       0.8328   0.1189   0.7032     C
C       0.8328   0.3811   0.2032     C
C       0.8337    0.654   0.5213     C
C       0.8337    0.846   0.0213     C
H       0.8358   0.0971   0.6533     H
H       0.8358   0.4029   0.1533     H
C       0.8405   0.0601   0.8373     C
C       0.8405   0.4399   0.3373     C
C       0.8458   0.0234    0.757     C
C       0.8458   0.4766    0.257     C
O      0.84619   0.6776    0.337     O
O      0.84619   0.8224    0.837     O
H       0.8493   0.0009    0.872     H
H       0.8493   0.4991    0.372     H
H       0.8589   0.1759   0.7205     H
H       0.8589   0.3241   0.2205     H
Fe     0.86051  0.73069  0.92123    Fe
Fe     0.86051  0.76931  0.42123    Fe
N       0.8611   0.5947   0.9902     N
N       0.8611   0.9053   0.4902     N
H       0.8658   0.1184   0.8539     H
H       0.8658   0.3816   0.3539     H
C       0.8672   0.5033    0.707     C
C       0.8672   0.9967    0.207     C
H       0.8702   0.2335    0.547     H
H       0.8702   0.2665    0.047     H
C       0.8712    0.568   0.6458     C
C       0.8712    0.932   0.1458     C
H       0.8773    0.168   0.9957     H
H       0.8773    0.332   0.4957     H
H       0.8796   0.1509   0.0822     H
H       0.8796   0.3491   0.5822     H
O       0.8825   0.6673   0.5103     O
O       0.8825   0.8327   0.0103     O
C       0.8889    0.199   0.0453     C
C       0.8889    0.301   0.5453     C
H       0.8953   0.1992   0.4328     H
H       0.8953   0.3008   0.9328     H
H       0.9009   0.0039   0.5611     H
H       0.9009   0.4961   0.0611     H
C       0.9033   0.5147   0.2564     C
C       0.9033   0.9853   0.7564     C
O      0.90403   0.0815   0.3253     O
O      0.90403   0.4185   0.8253     O
H       0.9048   0.6016   0.6446     H
H       0.9048   0.8984   0.1446     H
C       0.9049   0.5569   0.0327     C
C       0.9049   0.9431   0.5327     C
H        0.905   0.5367   0.2061     H
H        0.905   0.9633   0.7061     H
H       0.9126   0.5746   0.2903     H
H       0.9126   0.9254   0.7903     H
C       0.9165   0.0096   0.2715     C
C       0.9165   0.4904   0.7715     C
H       0.9266   0.5598    0.795     H
H       0.9266   0.9402    0.295     H
H       0.9294   0.0427   0.7723     H
H       0.9294   0.4573   0.2723     H
C       0.9317   0.1737   0.4406     C
C       0.9317   0.3263   0.9406     C
O      0.93631   0.6999   0.9242     O
O      0.93631   0.8001   0.4242     O
C       0.9462   0.1049   0.3867     C
C       0.9462   0.3951   0.8867     C
H        0.948   0.0366   0.2527     H
H        0.948   0.4634   0.7527     H
H       0.9512   0.1696   0.6467     H
H       0.9512   0.3304   0.1467     H
C       0.9521   0.2176   0.0627     C
C       0.9521   0.2824   0.5627     C
H        0.957   0.2125   0.1784     H
H        0.957   0.2875   0.6784     H
C       0.9602   0.6003   0.0406     C
C       0.9602   0.8997   0.5406     C
H       0.9686   0.0802   0.0076     H
H       0.9686   0.4198   0.5076     H
C       0.9688   0.2381   0.6441     C
C       0.9688   0.2619   0.1441     C
H       0.9692   0.0592   0.0932     H
H       0.9692   0.4408   0.5932     H
C       0.9699   0.2053   0.5053     C
C       0.9699   0.2947   0.0053     C
C       0.9743   0.6706   0.9855     C
C       0.9743   0.8294   0.4855     C
C         0.98   0.1083    0.058     C
C         0.98   0.3917    0.558     C
H       0.9802   0.6171   0.4298     H
H       0.9802   0.8829   0.9298     H
H       0.9902   0.5207   0.1391     H
H       0.9902   0.9793   0.6391     H
H       0.9915   0.7297    0.842     H
H       0.9915   0.7703    0.342     H
C       0.9999   0.5673   0.1038     C
C       0.9999   0.9327   0.6038     C
