data_I
_chemical_name_common  '/home/zhangsd/repos/MofS-CGCNN/ML/data/SSD/clean_cifs/OZUKUR01_clean'
_cell_length_a 26.43630
_cell_length_b 26.43630
_cell_length_c  7.10680
_cell_angle_alpha 90.00000
_cell_angle_beta  90.00000
_cell_angle_gamma 120.00000
_space_group_name_H-M_alt      'P 1'


loop_
_space_group_symop_operation_xyz
  'x, y, z' 

loop_
_atom_site_label
_atom_site_fract_x
_atom_site_fract_y
_atom_site_fract_z
_atom_site_type_symbol
C       0.0002   0.4506    0.081     C
O       0.0013   0.6358    0.796     O
C       0.0117    0.462     0.89     C
Mn     0.01343  0.70377  0.66267    Mn
C       0.0144   0.5063    0.823     C
C       0.0195   0.5979    0.767     C
O       0.0206   0.4138     0.84     O
Mn     0.02367  0.65323  0.32933    Mn
O       0.0261   0.5859    0.599     O
O      0.03087  0.69883  0.12933     O
O      0.03217  0.33463  0.53733     O
Mn      0.0371    0.357    0.004    Mn
O      0.05987  0.31273  0.17333     O
C      0.06877  0.75493  0.10033     C
O      0.08047  0.72653  0.49333     O
O      0.08077  0.77353  0.93233     O
C      0.08827  0.35283  0.56633     C
O      0.10687  0.35943  0.73433     O
C      0.11697  0.32163  0.22333     C
C      0.11707  0.33313  0.41433     C
C      0.11727  0.78373  0.25233     C
C      0.12867  0.78363  0.44333     C
C      0.15857  0.31893  0.15633     C
C      0.16037  0.84143  0.15633     C
C      0.17297  0.82523  0.51033     C
C      0.17477  0.34773  0.51033     C
C      0.20467  0.88303  0.22333     C
C      0.21607  0.88293  0.41433     C
C      0.21627  0.33353  0.25233     C
C      0.21637  0.34503  0.44333     C
O      0.22647  0.30723  0.93233     O
C      0.24507  0.31383  0.10033     C
O      0.25257  0.89313  0.73433     O
O      0.25287  0.94013  0.17333     O
C      0.26457  0.91173  0.56633     C
O      0.27347  0.35393  0.49333     O
Mn     0.29623  0.30967  0.66267    Mn
O      0.30117  0.33203  0.12933     O
O      0.30247  0.96783  0.53733     O
O      0.30723  0.08077  0.06767     O
Mn     0.30967  0.01343  0.33733    Mn
O      0.31273  0.25287  0.82667     O
C      0.31383  0.06877  0.89967     C
C      0.31893  0.16037  0.84367     C
Mn      0.3199   0.9629    0.004    Mn
C      0.32163  0.20467  0.77667     C
O      0.33203  0.03087  0.87067     O
C      0.33313  0.21607  0.58567     C
C      0.33353  0.11727  0.74767     C
O      0.33463  0.30247  0.46267     O
C      0.34503  0.12867  0.55667     C
Mn     0.34677  0.37043  0.32933    Mn
C      0.34773  0.17297  0.48967     C
C      0.35283  0.26457  0.43367     C
O      0.35393  0.08047  0.50667     O
Mn       0.357   0.3199    0.996    Mn
O      0.35943  0.25257  0.26567     O
O       0.3642   0.3655    0.796     O
O       0.3655   0.0013    0.204     O
Mn     0.37043  0.02367  0.67067    Mn
O       0.3932   0.9794     0.84     O
C       0.4021   0.4216    0.767     C
O       0.4138   0.3932     0.16     O
O       0.4141   0.4402    0.599     O
C       0.4216   0.0195    0.233     C
O       0.4402   0.0261    0.401     O
C       0.4503   0.9883     0.89     C
C       0.4504   0.9998    0.081     C
C       0.4506   0.4504    0.919     C
C        0.462   0.4503     0.11     C
C       0.4919   0.9856    0.823     C
C       0.4937   0.5081    0.823     C
C       0.5063   0.4919    0.177     C
C       0.5081   0.0144    0.177     C
C        0.538   0.5497     0.89     C
C       0.5494   0.5496    0.081     C
C       0.5496   0.0002    0.919     C
C       0.5497   0.0117     0.11     C
O       0.5598   0.9739    0.599     O
C       0.5784   0.9805    0.767     C
O       0.5859   0.5598    0.401     O
O       0.5862   0.6068     0.84     O
C       0.5979   0.5784    0.233     C
O       0.6068   0.0206     0.16     O
Mn     0.62957  0.97633  0.32933    Mn
O       0.6345   0.9987    0.796     O
O       0.6358   0.6345    0.204     O
O      0.64057  0.74743  0.73433     O
Mn       0.643   0.6801    0.004    Mn
O      0.64607  0.91953  0.49333     O
C      0.64717  0.73543  0.56633     C
C      0.65227  0.82703  0.51033     C
Mn     0.65323  0.62957  0.67067    Mn
C      0.65497  0.87133  0.44333     C
O      0.66537  0.69753  0.53733     O
C      0.66647  0.88273  0.25233     C
C      0.66687  0.78393  0.41433     C
O      0.66797  0.96913  0.12933     O
C      0.67837  0.79533  0.22333     C
Mn      0.6801   0.0371    0.996    Mn
C      0.68107  0.83963  0.15633     C
C      0.68617  0.93123  0.10033     C
O      0.68727  0.74713  0.17333     O
Mn     0.69033  0.98657  0.66267    Mn
O      0.69277  0.91923  0.93233     O
O      0.69753  0.03217  0.46267     O
O      0.69883  0.66797  0.87067     O
Mn     0.70377  0.69033  0.33733    Mn
O      0.72653  0.64607  0.50667     O
C      0.73543  0.08827  0.43367     C
O      0.74713  0.05987  0.82667     O
O      0.74743  0.10687  0.26567     O
C      0.75493  0.68617  0.89967     C
O      0.77353  0.69277  0.06767     O
C      0.78363  0.65497  0.55667     C
C      0.78373  0.66647  0.74767     C
C      0.78393  0.11707  0.58567     C
C      0.79533  0.11697  0.77667     C
C      0.82523  0.65227  0.48967     C
C      0.82703  0.17477  0.48967     C
C      0.83963  0.15857  0.84367     C
C      0.84143  0.68107  0.84367     C
C      0.87133  0.21637  0.55667     C
C      0.88273  0.21627  0.74767     C
C      0.88293  0.66687  0.58567     C
C      0.88303  0.67837  0.77667     C
O      0.89313  0.64057  0.26567     O
C      0.91173  0.64717  0.43367     C
O      0.91923  0.22647  0.06767     O
O      0.91953  0.27347  0.50667     O
C      0.93123  0.24507  0.89967     C
O      0.94013  0.68727  0.82667     O
Mn      0.9629    0.643    0.996    Mn
O      0.96783  0.66537  0.46267     O
O      0.96913  0.30117  0.87067     O
O       0.9739   0.4141    0.401     O
Mn     0.97633  0.34677  0.67067    Mn
O       0.9794   0.5862     0.16     O
C       0.9805   0.4021    0.233     C
C       0.9856   0.4937    0.177     C
Mn     0.98657  0.29623  0.33733    Mn
C       0.9883    0.538     0.11     C
O       0.9987   0.3642    0.204     O
C       0.9998   0.5494    0.919     C
