data_I
_chemical_name_common  '/home/zhangsd/repos/MofS-CGCNN/ML/data/SSD/clean_cifs/OZULUS_clean'
_cell_length_a 25.87760
_cell_length_b 25.87760
_cell_length_c  6.26230
_cell_angle_alpha 90.00000
_cell_angle_beta  90.00000
_cell_angle_gamma 120.00000
_space_group_name_H-M_alt      'P 1'


loop_
_space_group_symop_operation_xyz
  'x, y, z' 

loop_
_atom_site_label
_atom_site_fract_x
_atom_site_fract_y
_atom_site_fract_z
_atom_site_type_symbol
C       0.0039   0.5432    0.873     C
C       0.0064   0.5856    0.711     C
C       0.0152   0.4572    0.913     C
Cu     0.01853  0.72037  0.64567    Cu
O       0.0214   0.3847    0.274     O
C       0.0236   0.5062    0.788     C
O      0.02997  0.31193  0.60733     O
O       0.0306   0.4146    0.853     O
Cu     0.03517  0.64813  0.31233    Cu
H       0.0383    0.512    0.636     H
O       0.0406    0.602    0.542     O
O      0.05067  0.30273  0.18633     O
O      0.05137  0.69663  0.05933     O
Cu      0.0537   0.3685    0.021    Cu
O      0.06467  0.77193  0.87533     O
C      0.08107  0.75413  0.04433     C
O      0.08127  0.71733  0.48033     O
C      0.08747  0.33973  0.62233     C
O      0.10527  0.37393  0.79133     O
C      0.10867  0.31813  0.24633     C
C      0.12347  0.79403  0.20633     C
C      0.12387  0.77533  0.42033     C
C      0.12737  0.33723  0.46033     C
H      0.14037  0.29503  0.96933     H
C      0.14927  0.30973  0.12133     C
H      0.15467  0.85963  0.96933     H
C      0.16047  0.85073  0.12133     C
C      0.17287  0.81593  0.54533     C
H      0.17867  0.80703  0.69733     H
C      0.18407  0.35693  0.54533     C
H      0.19297  0.37163  0.69733     H
C      0.20597  0.32943  0.20633     C
C      0.20947  0.89133  0.24633     C
C      0.20987  0.87263  0.46033     C
C      0.22467  0.34853  0.42033     C
O      0.22807  0.29273  0.87533     O
C      0.24587  0.32693  0.04433     C
O      0.25207  0.94933  0.18633     O
C      0.25227  0.91253  0.62233     C
O      0.26867  0.89473  0.79133     O
Cu     0.27963  0.29817  0.64567    Cu
O      0.28197  0.97003  0.60733     O
O      0.28267  0.36393  0.48033     O
O      0.29273  0.06467  0.12467     O
H      0.29503  0.15467  0.03067     H
Cu     0.29817  0.01853  0.35433    Cu
O      0.30273  0.25207  0.81367     O
O      0.30337  0.35473  0.05933     O
C      0.30973  0.16047  0.87867     C
O      0.31193  0.28197  0.39267     O
Cu      0.3148   0.9463    0.021    Cu
C      0.31813  0.20947  0.75367     C
C      0.32693  0.08107  0.95567     C
C      0.32943  0.12347  0.79367     C
C      0.33723  0.20987  0.53967     C
C      0.33973  0.25227  0.37767     C
C      0.34853  0.12387  0.57967     C
Cu     0.35187  0.38703  0.31233    Cu
O      0.35473  0.05137  0.94067     O
C      0.35693  0.17287  0.45467     C
O       0.3633   0.9786    0.274     O
O      0.36393  0.08127  0.51967     O
Cu      0.3685   0.3148    0.979    Cu
H      0.37163  0.17867  0.30267     H
O      0.37393  0.26867  0.20867     O
O        0.384   0.9694    0.853     O
O       0.3847   0.3633    0.726     O
Cu     0.38703  0.03517  0.68767    Cu
O        0.398   0.4386    0.542     O
C       0.4144   0.4208    0.711     C
O       0.4146    0.384    0.147     O
C       0.4208   0.0064    0.289     C
O       0.4386   0.0406    0.458     O
C        0.442   0.9848    0.913     C
C       0.4568   0.4607    0.873     C
C       0.4572    0.442    0.087     C
C       0.4607   0.0039    0.127     C
H       0.4737   0.9617    0.636     H
C       0.4826   0.9764    0.788     C
H        0.488   0.5263    0.636     H
C       0.4938   0.5174    0.788     C
C       0.5062   0.4826    0.212     C
H        0.512   0.4737    0.364     H
C       0.5174   0.0236    0.212     C
H       0.5263   0.0383    0.364     H
C       0.5393   0.9961    0.873     C
C       0.5428    0.558    0.913     C
C       0.5432   0.5393    0.127     C
C        0.558   0.0152    0.087     C
O       0.5614   0.9594    0.542     O
C       0.5792   0.9936    0.711     C
O       0.5854    0.616    0.853     O
C       0.5856   0.5792    0.289     C
O        0.602   0.5614    0.458     O
Cu     0.61297  0.96483  0.31233    Cu
O       0.6153   0.6367    0.274     O
O        0.616   0.0306    0.147     O
O      0.62607  0.73133  0.79133     O
H      0.62837  0.82133  0.69733     H
Cu      0.6315   0.6852    0.021    Cu
O      0.63607  0.91873  0.48033     O
O       0.6367   0.0214    0.726     O
C      0.64307  0.82713  0.54533     C
O      0.64527  0.94863  0.05933     O
Cu     0.64813  0.61297  0.68767    Cu
C      0.65147  0.87613  0.42033     C
C      0.66027  0.74773  0.62233     C
C      0.66277  0.79013  0.46033     C
C      0.67057  0.87653  0.20633     C
C      0.67307  0.91893  0.04433     C
C      0.68187  0.79053  0.24633     C
Cu      0.6852   0.0537    0.979    Cu
O      0.68807  0.71803  0.60733     O
C      0.69027  0.83953  0.12133     C
O      0.69663  0.64527  0.94067     O
O      0.69727  0.74793  0.18633     O
Cu     0.70183  0.98147  0.64567    Cu
H      0.70497  0.84533  0.96933     H
O      0.70727  0.93533  0.87533     O
O      0.71733  0.63607  0.51967     O
O      0.71803  0.02997  0.39267     O
Cu     0.72037  0.70183  0.35433    Cu
O      0.73133  0.10527  0.20867     O
C      0.74773  0.08747  0.37767     C
O      0.74793  0.05067  0.81367     O
C      0.75413  0.67307  0.95567     C
O      0.77193  0.70727  0.12467     O
C      0.77533  0.65147  0.57967     C
C      0.79013  0.12737  0.53967     C
C      0.79053  0.10867  0.75367     C
C      0.79403  0.67057  0.79367     C
H      0.80703  0.62837  0.30267     H
C      0.81593  0.64307  0.45467     C
H      0.82133  0.19297  0.30267     H
C      0.82713  0.18407  0.45467     C
C      0.83953  0.14927  0.87867     C
H      0.84533  0.14037  0.03067     H
C      0.85073  0.69027  0.87867     C
H      0.85963  0.70497  0.03067     H
C      0.87263  0.66277  0.53967     C
C      0.87613  0.22467  0.57967     C
C      0.87653  0.20597  0.79367     C
C      0.89133  0.68187  0.75367     C
O      0.89473  0.62607  0.20867     O
C      0.91253  0.66027  0.37767     C
O      0.91873  0.28267  0.51967     O
C      0.91893  0.24587  0.95567     C
O      0.93533  0.22807  0.12467     O
Cu      0.9463   0.6315    0.979    Cu
O      0.94863  0.30337  0.94067     O
O      0.94933  0.69727  0.81367     O
O       0.9594    0.398    0.458     O
H       0.9617    0.488    0.364     H
Cu     0.96483  0.35187  0.68767    Cu
O       0.9694   0.5854    0.147     O
O      0.97003  0.68807  0.39267     O
C       0.9764   0.4938    0.212     C
O       0.9786   0.6153    0.726     O
Cu     0.98147  0.27963  0.35433    Cu
C       0.9848   0.5428    0.087     C
C       0.9936   0.4144    0.289     C
C       0.9961   0.4568    0.127     C
