data_I
_chemical_name_common  '/home/zhangsd/repos/MofS-CGCNN/ML/data/SSD/clean_cifs/PAFMUH_clean'
_cell_length_a 16.09500
_cell_length_b 16.49200
_cell_length_c 16.30800
_cell_angle_alpha 90.00000
_cell_angle_beta  118.02000
_cell_angle_gamma 90.00000
_space_group_name_H-M_alt      'P 1'


loop_
_space_group_symop_operation_xyz
  'x, y, z' 

loop_
_atom_site_label
_atom_site_fract_x
_atom_site_fract_y
_atom_site_fract_z
_atom_site_type_symbol
C       0.0038   0.9804   0.3332     C
C       0.0046   0.0353     0.26     C
C       0.0046   0.8829   0.4712     C
N       0.0082   0.8345   0.5479     N
H       0.0086   0.4577    0.671     H
C       0.0089   0.9863   0.1824     C
C        0.017   0.8948   0.0452     C
N       0.0192   0.8466   0.9718     N
H       0.0195   0.3184    0.982     H
C         0.02   0.5183   0.1377     C
N       0.0248   0.2222    0.155     N
O        0.029   0.6213   0.7911     O
N       0.0315    0.233   0.3617     N
C       0.0316   0.3673   0.9613     C
H       0.0317   0.3767   0.6355     H
C       0.0448   0.5875   0.1055     C
H       0.0517   0.9315    0.766     H
C       0.0546   0.1827   0.1043     C
C       0.0581   0.4252   0.6709     C
H       0.0587   0.0711   0.2881     H
C       0.0641   0.1976   0.4411     C
N       0.0646   0.7754   0.6813     N
C       0.0659   0.0957   0.9531     C
H       0.0677   0.4886   0.1848     H
C       0.0696   0.0492   0.8846     C
N       0.0704   0.7808   0.8879     N
C       0.0711   0.5087   0.8962     C
C       0.0749   0.0278   0.6548     C
C       0.0754    0.076   0.5854     C
C       0.0829   0.9378   0.3925     C
C       0.0846   0.8872   0.4607     C
C       0.0865   0.8157   0.6261     C
H       0.0882    0.395   0.5252     H
C       0.0925    0.975   0.1789     C
C       0.0933   0.5836   0.8585     C
C       0.0961    0.929   0.1111     C
C        0.097   0.8227    0.964     C
H        0.102   0.4109   0.7336     H
C       0.1077   0.4723   0.6284     C
Cd     0.10988   0.3029  0.29048    Cd
C       0.1154   0.4445   0.5516     C
H       0.1174   0.1759   0.1188     H
H       0.1201   0.1206    0.998     H
C       0.1243   0.3937   0.9971     C
H       0.1268   0.0421   0.8844     H
H       0.1274   0.1944   0.4845     H
H        0.129   0.0801   0.5776     H
H       0.1295   0.0002   0.6946     H
H       0.1373   0.9433   0.3865     H
H       0.1379    0.857   0.4982     H
C       0.1422    0.465   0.9663     C
C       0.1447   0.6128   0.1398     C
H       0.1472   0.9993   0.2236     H
H       0.1473   0.8297   0.6388     H
H       0.1485   0.5652   0.7191     H
C       0.1506    0.546   0.6665     C
O       0.1512   0.3805   0.4155     O
H       0.1531   0.9213   0.1105     H
H       0.1542   0.6655   0.1677     H
H       0.1586   0.6147   0.0886     H
H        0.159   0.8345   0.0064     H
C       0.1624   0.4884   0.5132     C
Cd     0.16475  0.72642  0.82413    Cd
C         0.17   0.4547   0.4317     C
O       0.1769   0.6069   0.8941     O
H       0.1857   0.5744    0.185     H
C       0.1963   0.5916   0.6288     C
O        0.197   0.4998   0.3866     O
O       0.1998   0.2684   0.0564     O
C       0.2009   0.5625   0.5516     C
C       0.2018   0.3435     0.07     C
H       0.2035   0.4846    0.993     H
O       0.2204   0.2104    0.369     O
H       0.2304   0.5933   0.5251     H
O       0.2332   0.8772    0.862     O
C       0.2445   0.6699   0.6717     C
O       0.2489   0.1906   0.2501     O
O       0.2511   0.6906   0.7499     O
C       0.2555   0.1699   0.3283     C
O       0.2668   0.3772    0.138     O
H       0.2696   0.0933   0.4749     H
O       0.2796   0.7104    0.631     O
H       0.2965   0.9846    0.007     H
C       0.2982   0.8435     0.93     C
C       0.2991   0.0625   0.4484     C
O       0.3002   0.7684   0.9436     O
O        0.303   0.9998   0.6134     O
C       0.3037   0.0916   0.3712     C
H       0.3143   0.0744    0.815     H
O       0.3231   0.1069   0.1059     O
C         0.33   0.9547   0.5683     C
Cd     0.33525  0.22642  0.17587    Cd
C       0.3376   0.9884   0.4868     C
H        0.341   0.3345   0.9936     H
H       0.3414   0.1147   0.9114     H
H       0.3458   0.1655   0.8323     H
H       0.3469   0.4213   0.8895     H
O       0.3488   0.8805   0.5845     O
C       0.3494    0.046   0.3335     C
H       0.3515   0.0652   0.2809     H
H       0.3527   0.3297   0.3612     H
H       0.3528   0.4993   0.7764     H
C       0.3553   0.1128   0.8602     C
C       0.3578    0.965   0.0337     C
H       0.3621    0.357   0.5018     H
H       0.3627   0.4433   0.6135     H
H       0.3705   0.5002   0.3054     H
H        0.371   0.5801   0.4224     H
H       0.3726   0.6944   0.5155     H
H       0.3732   0.5421   0.1156     H
C       0.3757   0.8937   0.0029     C
H       0.3799   0.6206    0.002     H
H       0.3826   0.6759   0.8812     H
C       0.3846   0.9445   0.4484     C
Cd     0.39012   0.8029  0.70952    Cd
C       0.3923   0.9723   0.3716     C
H        0.398   0.9109   0.2664     H
C        0.403   0.3227    0.036     C
C       0.4039    0.429   0.8889     C
C       0.4067   0.0836   0.1415     C
C       0.4075    0.475   0.8211     C
H       0.4118    0.895   0.4748     H
C       0.4135   0.3157   0.3739     C
C       0.4154   0.3872   0.5393     C
C       0.4171   0.4378   0.6075     C
C       0.4246    0.576   0.4146     C
C       0.4251   0.5278   0.3452     C
C       0.4289   0.0087   0.1038     C
N       0.4296   0.2808   0.1121     N
C       0.4304   0.5492   0.1154     C
H       0.4323   0.9886   0.8152     H
C       0.4341   0.5957   0.0469     C
N       0.4354   0.2754   0.3187     N
C       0.4359   0.6976   0.5589     C
H       0.4413   0.5711   0.7119     H
C       0.4419   0.9252   0.3291     C
C       0.4454   0.6827   0.8957     C
H       0.4483   0.4315    0.234     H
C       0.4552   0.0875   0.8945     C
H       0.4683   0.8767   0.3645     H
C       0.4684   0.8673   0.0387     C
N       0.4685    0.733   0.6383     N
O        0.471   0.1213   0.2089     O
N       0.4752   0.7222    0.845     N
C         0.48   0.0183   0.8623     C
H       0.4805   0.8184    0.018     H
N       0.4808   0.3466   0.0282     N
C        0.483   0.3948   0.9548     C
C       0.4911   0.4863   0.8176     C
H       0.4914   0.9577    0.329     H
N       0.4918   0.3345   0.4521     N
C       0.4954   0.3829   0.5288     C
C       0.4954   0.5353     0.74     C
C       0.4962   0.4804   0.6668     C
C       0.5038   0.5196   0.3332     C
C       0.5046   0.4647     0.26     C
C       0.5046   0.6171   0.4712     C
N       0.5082   0.6655   0.5479     N
H       0.5086   0.0423    0.671     H
C       0.5089   0.5137   0.1824     C
C        0.517   0.6052   0.0452     C
N       0.5192   0.6534   0.9718     N
H       0.5195   0.1816    0.982     H
C         0.52   0.9817   0.1377     C
N       0.5248   0.2778    0.155     N
O        0.529   0.8787   0.7911     O
N       0.5315    0.267   0.3617     N
C       0.5316   0.1327   0.9613     C
H       0.5317   0.1233   0.6355     H
C       0.5448   0.9125   0.1055     C
H       0.5517   0.5685    0.766     H
C       0.5546   0.3173   0.1043     C
C       0.5581   0.0748   0.6709     C
H       0.5587   0.4289   0.2881     H
C       0.5641   0.3024   0.4411     C
N       0.5646   0.7246   0.6813     N
C       0.5659   0.4043   0.9531     C
H       0.5677   0.0114   0.1848     H
C       0.5696   0.4508   0.8846     C
N       0.5704   0.7192   0.8879     N
C       0.5711   0.9913   0.8962     C
C       0.5749   0.4722   0.6548     C
C       0.5754    0.424   0.5854     C
C       0.5829   0.5622   0.3925     C
C       0.5846   0.6128   0.4607     C
C       0.5865   0.6843   0.6261     C
H       0.5882    0.105   0.5252     H
C       0.5925    0.525   0.1789     C
C       0.5933   0.9164   0.8585     C
C       0.5961    0.571   0.1111     C
C        0.597   0.6773    0.964     C
H        0.602   0.0891   0.7336     H
C       0.6077   0.0277   0.6284     C
Cd     0.60988   0.1971  0.29048    Cd
C       0.6154   0.0555   0.5516     C
H       0.6174   0.3241   0.1188     H
H       0.6201   0.3794    0.998     H
C       0.6243   0.1063   0.9971     C
H       0.6268   0.4579   0.8844     H
H       0.6274   0.3056   0.4845     H
H        0.629   0.4199   0.5776     H
H       0.6295   0.4998   0.6946     H
H       0.6373   0.5567   0.3865     H
H       0.6379    0.643   0.4982     H
C       0.6422    0.035   0.9663     C
C       0.6447   0.8872   0.1398     C
H       0.6472   0.5007   0.2236     H
H       0.6473   0.6703   0.6388     H
H       0.6485   0.9348   0.7191     H
C       0.6506    0.954   0.6665     C
O       0.6512   0.1195   0.4155     O
H       0.6531   0.5787   0.1105     H
H       0.6542   0.8345   0.1677     H
H       0.6586   0.8853   0.0886     H
H        0.659   0.6655   0.0064     H
C       0.6624   0.0116   0.5132     C
Cd     0.66475  0.77358  0.82413    Cd
C         0.67   0.0453   0.4317     C
O       0.6769   0.8931   0.8941     O
H       0.6857   0.9256    0.185     H
C       0.6963   0.9084   0.6288     C
O        0.697   0.0002   0.3866     O
O       0.6998   0.2316   0.0564     O
C       0.7009   0.9375   0.5516     C
C       0.7018   0.1565     0.07     C
H       0.7035   0.0154    0.993     H
O       0.7204   0.2896    0.369     O
H       0.7304   0.9067   0.5251     H
O       0.7332   0.6228    0.862     O
C       0.7445   0.8301   0.6717     C
O       0.7489   0.3094   0.2501     O
O       0.7511   0.8094   0.7499     O
C       0.7555   0.3301   0.3283     C
O       0.7668   0.1228    0.138     O
H       0.7696   0.4067   0.4749     H
O       0.7796   0.7896    0.631     O
H       0.7965   0.5154    0.007     H
C       0.7982   0.6565     0.93     C
C       0.7991   0.4375   0.4484     C
O       0.8002   0.7316   0.9436     O
O        0.803   0.5002   0.6134     O
C       0.8037   0.4084   0.3712     C
H       0.8143   0.4256    0.815     H
O       0.8231   0.3931   0.1059     O
C         0.83   0.5453   0.5683     C
Cd     0.83525  0.27358  0.17587    Cd
C       0.8376   0.5116   0.4868     C
H        0.841   0.1655   0.9936     H
H       0.8414   0.3853   0.9114     H
H       0.8458   0.3345   0.8323     H
H       0.8469   0.0787   0.8895     H
O       0.8488   0.6195   0.5845     O
C       0.8494    0.454   0.3335     C
H       0.8515   0.4348   0.2809     H
H       0.8527   0.1703   0.3612     H
H       0.8528   0.0007   0.7764     H
C       0.8553   0.3872   0.8602     C
C       0.8578    0.535   0.0337     C
H       0.8621    0.143   0.5018     H
H       0.8627   0.0567   0.6135     H
H       0.8705   0.9998   0.3054     H
H        0.871   0.9199   0.4224     H
H       0.8726   0.8056   0.5155     H
H       0.8732   0.9579   0.1156     H
C       0.8757   0.6063   0.0029     C
H       0.8799   0.8794    0.002     H
H       0.8826   0.8241   0.8812     H
C       0.8846   0.5555   0.4484     C
Cd     0.89012   0.6971  0.70952    Cd
C       0.8923   0.5277   0.3716     C
H        0.898   0.5891   0.2664     H
C        0.903   0.1773    0.036     C
C       0.9039    0.071   0.8889     C
C       0.9067   0.4164   0.1415     C
C       0.9075    0.025   0.8211     C
H       0.9118    0.605   0.4748     H
C       0.9135   0.1843   0.3739     C
C       0.9154   0.1128   0.5393     C
C       0.9171   0.0622   0.6075     C
C       0.9246    0.924   0.4146     C
C       0.9251   0.9722   0.3452     C
C       0.9289   0.4913   0.1038     C
N       0.9296   0.2192   0.1121     N
C       0.9304   0.9508   0.1154     C
H       0.9323   0.5114   0.8152     H
C       0.9341   0.9043   0.0469     C
N       0.9354   0.2246   0.3187     N
C       0.9359   0.8024   0.5589     C
H       0.9413   0.9289   0.7119     H
C       0.9419   0.5748   0.3291     C
C       0.9454   0.8173   0.8957     C
H       0.9483   0.0685    0.234     H
C       0.9552   0.4125   0.8945     C
H       0.9683   0.6233   0.3645     H
C       0.9684   0.6327   0.0387     C
N       0.9685    0.767   0.6383     N
O        0.971   0.3787   0.2089     O
N       0.9752   0.7778    0.845     N
C         0.98   0.4817   0.8623     C
H       0.9805   0.6816    0.018     H
N       0.9808   0.1534   0.0282     N
C        0.983   0.1052   0.9548     C
C       0.9911   0.0137   0.8176     C
H       0.9914   0.5423    0.329     H
N       0.9918   0.1655   0.4521     N
C       0.9954   0.1171   0.5288     C
C       0.9954   0.9647     0.74     C
C       0.9962   0.0196   0.6668     C
