data_I
_chemical_name_common  '/home/zhangsd/repos/MofS-CGCNN/ML/data/SSD/clean_cifs/PALTON_clean'
_cell_length_a 12.84540
_cell_length_b 24.99590
_cell_length_c 24.99590
_cell_angle_alpha 62.87170
_cell_angle_beta  80.13660
_cell_angle_gamma 99.86340
_space_group_name_H-M_alt      'P 1'


loop_
_space_group_symop_operation_xyz
  'x, y, z' 

loop_
_atom_site_label
_atom_site_fract_x
_atom_site_fract_y
_atom_site_fract_z
_atom_site_type_symbol
H       0.0053   0.2936    0.571     H
H       0.0053    0.429   0.7064     H
O       0.0139  0.53855  0.39795     O
O       0.0139  0.60205  0.46145     O
C        0.049   0.2725   0.2238     C
C        0.049   0.3382   0.2019     C
C        0.049   0.7762   0.7275     C
C        0.049   0.7981   0.6618     C
C       0.0546    0.188   0.5926     C
C       0.0546   0.4074    0.812     C
N       0.0649   0.6005   0.1692     N
N       0.0649   0.8308   0.3995     N
H        0.065   0.1805   0.6337     H
H        0.065   0.3663   0.8195     H
H       0.0717   0.1604   0.2581     H
H       0.0717   0.7419   0.8396     H
C      0.07483   0.3037  0.54291     C
C      0.07483  0.45709   0.6963     C
C      0.08253  0.41708  0.50089     C
C      0.08253  0.49911  0.58292     C
H       0.0887   0.1604   0.5815     H
H       0.0887   0.4185   0.8396     H
Cu     0.08992  0.54312  0.45688    Cu
H       0.1155   0.1805   0.1858     H
H       0.1155   0.8142   0.8195     H
C       0.1157  0.25525  0.54405     C
C       0.1157  0.45595  0.74475     C
C       0.1167   0.5571   0.1759     C
C       0.1167   0.8241   0.4429     C
C      0.13104  0.36517  0.50295     C
C      0.13104  0.49705  0.63483     C
C       0.1334    0.188   0.2194     C
C       0.1334   0.7806    0.812     C
C      0.13955  0.25525   0.2007     C
C      0.13955   0.7993  0.74475     C
O      0.14176  0.47232  0.46394     O
O      0.14176  0.53606  0.52768     O
H       0.1435   0.6946   0.1325     H
H       0.1435   0.8675   0.3054     H
C      0.14396  0.38322  0.15464     C
C      0.14396  0.84536  0.61678     C
H       0.1485   0.4264   0.1374     H
H       0.1485   0.8626   0.5736     H
C       0.1507   0.6541   0.1427     C
C       0.1507   0.8573   0.3459     C
H       0.1845   0.5478   0.2964     H
H       0.1845   0.7036   0.4522     H
C       0.2235   0.2725   0.5037     C
C       0.2235   0.4963   0.7275     C
N       0.2257   0.5763   0.1606     N
N       0.2257   0.8394   0.4237     N
C      0.22887   0.3037  0.15339     C
C      0.22887  0.84661   0.6963     C
N       0.2341   0.1692   0.2303     N
N       0.2341   0.7697   0.8308     N
C      0.23413  0.36517  0.13188     C
C      0.23413  0.86812  0.63483     C
H       0.2366   0.4928   0.3002     H
H       0.2366   0.6998   0.5072     H
C      0.23926  0.38322  0.46214     C
C      0.23926  0.53786  0.61678     C
H       0.2446   0.5169   0.3492     H
H       0.2446   0.6508   0.4831     H
C       0.2453   0.5296   0.3058     C
C       0.2453   0.6942   0.4704     C
C       0.2462   0.6402   0.1336     C
C       0.2462   0.8664   0.3598     C
C       0.2509   0.2019   0.4599     C
C       0.2509   0.5401   0.7981     C
H       0.2562   0.4928    0.207     H
H       0.2562    0.793   0.5072     H
H       0.2723   0.5169   0.1339     H
H       0.2723   0.8661   0.4831     H
C       0.2728   0.2238   0.5037     C
C       0.2728   0.4963   0.7762     C
H        0.276   0.1325   0.1729     H
H        0.276   0.8271   0.8675     H
H       0.2779   0.4264   0.4362     H
H       0.2779   0.5638   0.5736     H
C       0.2843   0.5296   0.1646     C
C       0.2843   0.8354   0.4704     C
H       0.2859   0.1374   0.4362     H
H       0.2859   0.5638   0.8626     H
H       0.2883   0.2936   0.1354     H
H       0.2883   0.8646   0.7064     H
C       0.2892   0.3382   0.4599     C
C       0.2892   0.5401   0.6618     C
C       0.2926   0.1759    0.267     C
C       0.2926    0.733   0.8241     C
C       0.2934   0.1427   0.2032     C
C       0.2934   0.7968   0.8573     C
C       0.2986  0.15464  0.46214     C
C       0.2986  0.53786  0.84536     C
H       0.3013   0.1858   0.6337     H
H       0.3013   0.3663   0.8142     H
H       0.3169   0.6698   0.1119     H
H       0.3169   0.8881   0.3302     H
H       0.3298   0.2581   0.5815     H
H       0.3298   0.4185   0.7419     H
O      0.33056  0.47232  0.06374     O
O      0.33056  0.93626  0.52768     O
C      0.33455  0.41708  0.08203     C
C      0.33455  0.91797  0.58292     C
C      0.34025   0.2007  0.54405     C
C      0.34025  0.45595   0.7993     C
N       0.3506   0.5763   0.2631     N
N       0.3506   0.7369   0.4237     N
C       0.3528   0.2194   0.5926     C
C       0.3528   0.4074   0.7806     C
H       0.3529   0.6698   0.2183     H
H       0.3529   0.7817   0.3302     H
H       0.3633   0.5478   0.1558     H
H       0.3633   0.8442   0.4522     H
C      0.36601  0.13188  0.50295     C
C      0.36601  0.49705  0.86812     C
C       0.3798   0.1336   0.2262     C
C       0.3798   0.7738   0.8664     C
C      0.38226  0.15339  0.54291     C
C      0.38226  0.45709  0.84661     C
N       0.3863   0.1606   0.2631     N
N       0.3863   0.7369   0.8394     N
C        0.394   0.6402   0.2262     C
C        0.394   0.7738   0.3598     C
O       0.3943  0.06374  0.46394     O
O       0.3943  0.53606  0.93626     O
H       0.4062   0.1339   0.3492     H
H       0.4062   0.6508   0.8661     H
O      0.41185  0.39795   0.0635     O
O      0.41185   0.9365  0.60205     O
C      0.41658  0.08203  0.50089     C
C      0.41658  0.49911  0.91797     C
H       0.4237   0.1354    0.571     H
H       0.4237    0.429   0.8646     H
H       0.4288   0.1119   0.2183     H
H       0.4288   0.7817   0.8881     H
C       0.4404   0.5571    0.267     C
C       0.4404    0.733   0.4429     C
C       0.4489   0.1646   0.3058     C
H       0.4489   0.1729   0.6946     H
H       0.4489   0.3054   0.8271     H
C       0.4489   0.6942   0.8354     C
Cu      0.4532      0.0  0.45688    Cu
Cu      0.4532  0.54311     -0.0    Cu
H       0.4632    0.207   0.3002     H
H       0.4632   0.6998    0.793     H
N       0.4644   0.2303   0.6005     N
N       0.4644   0.3995   0.7697     N
O      0.47535   0.0635  0.53855     O
O      0.47535  0.46145   0.9365     O
H       0.4809   0.2964   0.1558     H
H       0.4809   0.8442   0.7036     H
C       0.4966   0.2032   0.6541     C
C       0.4966   0.3459   0.7968     C
C       0.5034   0.6541   0.2032     C
C       0.5034   0.7968   0.3459     C
H       0.5191   0.1558   0.2964     H
H       0.5191   0.7036   0.8442     H
O      0.52465  0.53855   0.0635     O
O      0.52465   0.9365  0.46145     O
N       0.5356   0.6005   0.2303     N
N       0.5356   0.7697   0.3995     N
H       0.5368   0.3002    0.207     H
H       0.5368    0.793   0.6998     H
Cu      0.5468  0.45688     -0.0    Cu
Cu      0.5468      1.0  0.54312    Cu
C       0.5511   0.3058   0.1646     C
H       0.5511   0.6946   0.1729     H
H       0.5511   0.8271   0.3054     H
C       0.5511   0.8354   0.6942     C
C       0.5596    0.267   0.5571     C
C       0.5596   0.4429    0.733     C
H       0.5712   0.2183   0.1119     H
H       0.5712   0.8881   0.7817     H
H       0.5763    0.571   0.1354     H
H       0.5763   0.8646    0.429     H
C      0.58342  0.50089  0.08203     C
C      0.58342  0.91797  0.49911     C
O      0.58815   0.0635  0.39795     O
O      0.58815  0.60205   0.9365     O
H       0.5938   0.3492   0.1339     H
H       0.5938   0.8661   0.6508     H
O       0.6057  0.46394  0.06374     O
O       0.6057  0.93626  0.53606     O
C        0.606   0.2262   0.6402     C
C        0.606   0.3598   0.7738     C
N       0.6137   0.2631   0.1606     N
N       0.6137   0.8394   0.7369     N
C      0.61774  0.54291  0.15339     C
C      0.61774  0.84661  0.45709     C
C       0.6202   0.2262   0.1336     C
C       0.6202   0.8664   0.7738     C
C      0.63399  0.50295  0.13188     C
C      0.63399  0.86812  0.49705     C
H       0.6367   0.1558   0.5478     H
H       0.6367   0.4522   0.8442     H
H       0.6471   0.2183   0.6698     H
H       0.6471   0.3302   0.7817     H
C       0.6472   0.5926   0.2194     C
C       0.6472   0.7806   0.4074     C
N       0.6494   0.2631   0.5763     N
N       0.6494   0.4237   0.7369     N
C      0.65975  0.54405   0.2007     C
C      0.65975   0.7993  0.45595     C
C      0.66545  0.08203  0.41708     C
C      0.66545  0.58292  0.91797     C
O      0.66944  0.06374  0.47232     O
O      0.66944  0.52768  0.93626     O
H       0.6702   0.5815   0.2581     H
H       0.6702   0.7419   0.4185     H
H       0.6831   0.1119   0.6698     H
H       0.6831   0.3302   0.8881     H
H       0.6987   0.6337   0.1858     H
H       0.6987   0.8142   0.3663     H
C       0.7014  0.46214  0.15464     C
C       0.7014  0.84536  0.53786     C
C       0.7066   0.2032   0.1427     C
C       0.7066   0.8573   0.7968     C
C       0.7074    0.267   0.1759     C
C       0.7074   0.8241    0.733     C
C       0.7108   0.4599   0.3382     C
C       0.7108   0.6618   0.5401     C
H       0.7117   0.1354   0.2936     H
H       0.7117   0.7064   0.8646     H
H       0.7141   0.4362   0.1374     H
H       0.7141   0.8626   0.5638     H
C       0.7157   0.1646   0.5296     C
C       0.7157   0.4704   0.8354     C
H       0.7221   0.4362   0.4264     H
H       0.7221   0.5736   0.5638     H
H        0.724   0.1729   0.1325     H
H        0.724   0.8675   0.8271     H
C       0.7272   0.5037   0.2238     C
C       0.7272   0.7762   0.4963     C
H       0.7277   0.1339   0.5169     H
H       0.7277   0.4831   0.8661     H
H       0.7438    0.207   0.4928     H
H       0.7438   0.5072    0.793     H
C       0.7491   0.4599   0.2019     C
C       0.7491   0.7981   0.5401     C
C       0.7538   0.1336   0.6402     C
C       0.7538   0.3598   0.8664     C
C       0.7547   0.3058   0.5296     C
C       0.7547   0.4704   0.6942     C
H       0.7554   0.3492   0.5169     H
H       0.7554   0.4831   0.6508     H
C      0.76074  0.46214  0.38322     C
C      0.76074  0.61678  0.53786     C
H       0.7634   0.3002   0.4928     H
H       0.7634   0.5072   0.6998     H
C      0.76587  0.13188  0.36517     C
C      0.76587  0.63483  0.86812     C
N       0.7659   0.2303   0.1692     N
N       0.7659   0.8308   0.7697     N
C      0.77113  0.15339   0.3037     C
C      0.77113   0.6963  0.84661     C
N       0.7743   0.1606   0.5763     N
N       0.7743   0.4237   0.8394     N
C       0.7765   0.5037   0.2725     C
C       0.7765   0.7275   0.4963     C
H       0.8155   0.2964   0.5478     H
H       0.8155   0.4522   0.7036     H
C       0.8493   0.1427   0.6541     C
C       0.8493   0.3459   0.8573     C
H       0.8515   0.1374   0.4264     H
H       0.8515   0.5736   0.8626     H
C      0.85604  0.15464  0.38322     C
C      0.85604  0.61678  0.84536     C
H       0.8565   0.1325   0.6946     H
H       0.8565   0.3054   0.8675     H
O      0.85824  0.46394  0.47232     O
O      0.85824  0.52768  0.53606     O
C      0.86045   0.2007  0.25525     C
C      0.86045  0.74475   0.7993     C
C       0.8666   0.2194    0.188     C
C       0.8666    0.812   0.7806     C
C      0.86896  0.50295  0.36517     C
C      0.86896  0.63483  0.49705     C
C       0.8833   0.1759   0.5571     C
C       0.8833   0.4429   0.8241     C
C       0.8843  0.54405  0.25525     C
C       0.8843  0.74475  0.45595     C
H       0.8845   0.1858   0.1805     H
H       0.8845   0.8195   0.8142     H
Cu     0.91009  0.45689  0.54311    Cu
H       0.9113   0.5815   0.1604     H
H       0.9113   0.8396   0.4185     H
C      0.91747  0.50089  0.41708     C
C      0.91747  0.58292  0.49911     C
C      0.92517  0.54291   0.3037     C
C      0.92517   0.6963  0.45709     C
H       0.9283   0.2581   0.1604     H
H       0.9283   0.8396   0.7419     H
H        0.935   0.6337   0.1805     H
H        0.935   0.8195   0.3663     H
N       0.9351   0.1692   0.6005     N
N       0.9351   0.3995   0.8308     N
C       0.9454   0.5926    0.188     C
C       0.9454    0.812   0.4074     C
C        0.951   0.2019   0.3382     C
C        0.951   0.2238   0.2725     C
C        0.951   0.6618   0.7981     C
C        0.951   0.7275   0.7762     C
O       0.9861  0.39795  0.53855     O
O       0.9861  0.46145  0.60205     O
H       0.9947    0.571   0.2936     H
H       0.9947   0.7064    0.429     H
