data_I
_chemical_name_common  '/home/zhangsd/repos/MofS-CGCNN/ML/data/SSD/clean_cifs/PAMTII_clean'
_cell_length_a 18.82260
_cell_length_b 18.82260
_cell_length_c 18.82260
_cell_angle_alpha 62.89810
_cell_angle_beta  62.89810
_cell_angle_gamma 62.89810
_space_group_name_H-M_alt      'P 1'


loop_
_space_group_symop_operation_xyz
  'x, y, z' 

loop_
_atom_site_label
_atom_site_fract_x
_atom_site_fract_y
_atom_site_fract_z
_atom_site_type_symbol
Er     0.00444  0.44068  0.43372    Er
O      0.01738  0.67498  0.56208     O
H       0.0453   0.7739   0.5952     H
O      0.07002  0.43322  0.54722     O
O      0.07871  0.59521  0.43021     O
C      0.08839  0.63119  0.57179     C
C       0.1019   0.7456   0.5906     C
O      0.10472  0.50602  0.36832     O
O      0.10709  0.33639  0.49199     O
O      0.11722  0.55532  0.57872     O
C      0.11741  0.36351  0.53501     C
C      0.11956  0.56096  0.37516     C
H       0.1207   0.8342   0.6059     H
C      0.13728  0.67138  0.57718     C
C       0.1468   0.7817   0.5978     C
H       0.1552   0.3899   0.6373     H
H       0.1658   0.3941   0.8793     H
H       0.1677   0.3964   0.7503     H
C      0.18684  0.31564  0.57144     C
H       0.1943   0.6553   0.3658     H
C      0.19439  0.34179  0.62339     C
C      0.19652  0.58542  0.31022     C
C       0.2183   0.4022   0.8532     C
C        0.221   0.6309   0.5697     C
C      0.22384  0.63504  0.32004     C
H        0.225   0.5181   0.2359     H
C       0.2257   0.3953   0.7204     C
H       0.2261   0.4048   0.9547     H
H       0.2282   0.4399    0.667     H
C       0.2293   0.7406   0.5933     C
H       0.2359    0.225   0.5181     H
C      0.24272  0.24302  0.55242     C
C      0.24302  0.55242  0.24272     C
H        0.247   0.5788    0.561     H
H       0.2497   0.8323   0.6036     H
C       0.2544   0.4094   0.8981     C
C       0.2594   0.4067   0.7707     C
C      0.26211  0.29541  0.65551     C
C       0.2669   0.6677   0.5752     C
O      0.27605  0.31635  0.70715     O
C       0.2796   0.7743   0.6047     C
O      0.29285  0.72395  0.68365     O
C      0.29541  0.65551  0.26211     C
C      0.31022  0.19652  0.58542     C
C      0.31564  0.57144  0.18684     C
O      0.31635  0.70715  0.27605     O
C      0.32004  0.22384  0.63504     C
H       0.3244   0.6417   0.5662     H
O      0.32502  0.43792  0.98262     O
C      0.32862  0.42282  0.86272     C
C       0.3323   0.4248   0.7331     C
H        0.333   0.7718   0.5601     H
O      0.33639  0.49199  0.10709     O
C      0.34179  0.62339  0.19439     C
C      0.34449  0.73789  0.70459     C
H       0.3447   0.6342   0.8057     H
H       0.3583   0.4338   0.6756     H
H       0.3627   0.8448   0.6101     H
C      0.36351  0.53501  0.11741     C
C      0.36496  0.67996  0.77616     C
H       0.3658   0.1943   0.6553     H
O      0.36832  0.10472  0.50602     O
C      0.36881  0.42821  0.91161     C
C       0.3691   0.4303    0.779     C
C      0.37516  0.11956  0.56096     C
C      0.37661  0.80561  0.65821     C
H       0.3899   0.6373   0.1552     H
H       0.3941   0.8793   0.1658     H
C       0.3953   0.7204   0.2257     C
H       0.3964   0.7503   0.1677     H
C       0.4022   0.8532   0.2183     C
O      0.40479  0.56979  0.92129     O
H       0.4048   0.9547   0.2261     H
C       0.4067   0.7707   0.2594     C
C       0.4094   0.8981   0.2544     C
C      0.41458  0.68978  0.80348     C
H       0.4212    0.439    0.753     H
O      0.42128  0.88278  0.44468     O
C      0.42282  0.86272  0.32862     C
C       0.4248   0.7331   0.3323     C
C      0.42821  0.91161  0.36881     C
C      0.42856  0.81316  0.68436     C
O      0.43021  0.07871  0.59521     O
C       0.4303    0.779   0.3691     C
O      0.43322  0.54722  0.07002     O
Er     0.43372  0.00444  0.44068    Er
H       0.4338   0.6756   0.3583     H
O      0.43792  0.98262  0.32502     O
H        0.439    0.753   0.4212     H
C      0.43904  0.62484  0.88044     C
H       0.4399    0.667   0.2282     H
Er     0.44068  0.43372  0.00444    Er
O      0.44468  0.42128  0.88278     O
C      0.44758  0.75728  0.75698     C
O      0.45278  0.92998  0.56678     O
C      0.46499  0.88259  0.63649     C
H       0.4819   0.7641    0.775     H
O      0.49199  0.10709  0.33639     O
O      0.49398  0.63168  0.89528     O
O      0.50602  0.36832  0.10472     O
O      0.50801  0.89291  0.66361     O
H       0.5181   0.2359    0.225     H
C      0.53501  0.11741  0.36351     C
O      0.54722  0.07002  0.43322     O
C      0.55242  0.24272  0.24302     C
O      0.55532  0.57872  0.11722     O
Er     0.55932  0.56628  0.99556    Er
H       0.5601    0.333   0.7718     H
C      0.56096  0.37516  0.11956     C
H        0.561    0.247   0.5788     H
O      0.56208  0.01738  0.67498     O
H       0.5662   0.3244   0.6417     H
Er     0.56628  0.99556  0.55932    Er
O      0.56678  0.45278  0.92998     O
C       0.5697    0.221   0.6309     C
O      0.56979  0.92129  0.40479     O
C      0.57144  0.18684  0.31564     C
C      0.57179  0.08839  0.63119     C
C       0.5752   0.2669   0.6677     C
C      0.57718  0.13728  0.67138     C
O      0.57872  0.11722  0.55532     O
H       0.5788    0.561    0.247     H
C      0.58542  0.31022  0.19652     C
C       0.5906   0.1019   0.7456     C
C       0.5933   0.2293   0.7406     C
H       0.5952   0.0453   0.7739     H
O      0.59521  0.43021  0.07871     O
C       0.5978   0.1468   0.7817     C
H       0.6036   0.2497   0.8323     H
C       0.6047   0.2796   0.7743     C
H       0.6059   0.1207   0.8342     H
H       0.6101   0.3627   0.8448     H
C      0.62339  0.19439  0.34179     C
C      0.62484  0.88044  0.43904     C
C       0.6309   0.5697    0.221     C
C      0.63119  0.57179  0.08839     C
O      0.63168  0.89528  0.49398     O
H       0.6342   0.8057   0.3447     H
C      0.63504  0.32004  0.22384     C
C      0.63649  0.46499  0.88259     C
H       0.6373   0.1552   0.3899     H
H       0.6417   0.5662   0.3244     H
H       0.6553   0.3658   0.1943     H
C      0.65551  0.26211  0.29541     C
C      0.65821  0.37661  0.80561     C
O      0.66361  0.50801  0.89291     O
H        0.667   0.2282   0.4399     H
C       0.6677   0.5752   0.2669     C
C      0.67138  0.57718  0.13728     C
O      0.67498  0.56208  0.01738     O
H       0.6756   0.3583   0.4338     H
C      0.67996  0.77616  0.36496     C
O      0.68365  0.29285  0.72395     O
C      0.68436  0.42856  0.81316     C
C      0.68978  0.80348  0.41458     C
C      0.70459  0.34449  0.73789     C
O      0.70715  0.27605  0.31635     O
C       0.7204   0.2257   0.3953     C
O      0.72395  0.68365  0.29285     O
C       0.7331   0.3323   0.4248     C
C      0.73789  0.70459  0.34449     C
C       0.7406   0.5933   0.2293     C
C       0.7456   0.5906   0.1019     C
H       0.7503   0.1677   0.3964     H
H        0.753   0.4212    0.439     H
C      0.75698  0.44758  0.75728     C
C      0.75728  0.75698  0.44758     C
H       0.7641    0.775   0.4819     H
C       0.7707   0.2594   0.4067     C
H       0.7718   0.5601    0.333     H
H       0.7739   0.5952   0.0453     H
C       0.7743   0.6047   0.2796     C
H        0.775   0.4819   0.7641     H
C      0.77616  0.36496  0.67996     C
C        0.779   0.3691   0.4303     C
C       0.7817   0.5978   0.1468     C
C      0.80348  0.41458  0.68978     C
C      0.80561  0.65821  0.37661     C
H       0.8057   0.3447   0.6342     H
C      0.81316  0.68436  0.42856     C
H       0.8323   0.6036   0.2497     H
H       0.8342   0.6059   0.1207     H
H       0.8448   0.6101   0.3627     H
C       0.8532   0.2183   0.4022     C
C      0.86272  0.32862  0.42282     C
H       0.8793   0.1658   0.3941     H
C      0.88044  0.43904  0.62484     C
C      0.88259  0.63649  0.46499     C
O      0.88278  0.44468  0.42128     O
O      0.89291  0.66361  0.50801     O
O      0.89528  0.49398  0.63168     O
C       0.8981   0.2544   0.4094     C
C      0.91161  0.36881  0.42821     C
O      0.92129  0.40479  0.56979     O
O      0.92998  0.56678  0.45278     O
H       0.9547   0.2261   0.4048     H
O      0.98262  0.32502  0.43792     O
Er     0.99556  0.55932  0.56628    Er
