data_I
_chemical_name_common  '/home/zhangsd/repos/MofS-CGCNN/ML/data/SSD/clean_cifs/PAMTUU_clean'
_cell_length_a 19.01200
_cell_length_b 19.01200
_cell_length_c 19.01200
_cell_angle_alpha 62.95870
_cell_angle_beta  62.95870
_cell_angle_gamma 62.95870
_space_group_name_H-M_alt      'P 1'


loop_
_space_group_symop_operation_xyz
  'x, y, z' 

loop_
_atom_site_label
_atom_site_fract_x
_atom_site_fract_y
_atom_site_fract_z
_atom_site_type_symbol
O      0.00725  0.86765  0.60455     O
O      0.00735  0.39275  0.16515     O
H       0.0165   0.7374   0.7266     H
C      0.03461  0.61791  0.86281     C
O      0.04542  0.57122  0.93202     O
C       0.0509   0.7435   0.7443     C
O      0.05658  0.07808  0.61858     O
H       0.0578    0.749   0.0812     H
Tb     0.05947  0.06695  0.49565    Tb
H       0.0601   0.8089   0.3085     H
C       0.0602   0.8753   0.6206     C
O      0.06141  0.52031  0.17521     O
Tb     0.06695  0.49565  0.05947    Tb
H       0.0675   0.8254     0.14     H
O      0.06798  0.95458  0.42878     O
C       0.0683   0.7228    0.132     C
O      0.07013  0.41983  0.90543     O
C      0.07051  0.68711  0.81561     C
C       0.0712   0.5908   0.1315     C
C       0.0747    0.769   0.1673     C
C       0.0765   0.6421   0.1691     C
O      0.07808  0.61858  0.05658     O
H       0.0812   0.0578    0.749     H
C      0.08346  0.81056  0.69856     C
H       0.0849   0.5516   0.2761     H
C       0.0856    0.606   0.2459     C
C       0.0909   0.7346   0.2377     C
O      0.09457  0.92987  0.58017     O
C       0.0963   0.6524     0.28     C
H       0.1071    0.627   0.3306     H
H        0.108   0.8672   0.3424     H
C       0.1099   0.7711   0.2821     C
C       0.1202   0.6958   0.8436     C
C       0.1247   0.3794   0.9398     C
C       0.1315   0.0712   0.5908     C
C        0.132   0.0683   0.7228     C
C       0.1323   0.8207   0.7267     C
O      0.13235  0.39545  0.99275     O
H       0.1328   0.6576    0.892     H
H        0.134    0.302   0.8477     H
H       0.1366   0.7279   0.3232     H
C      0.13719  0.96539  0.38209     C
H         0.14   0.0675   0.8254     H
C       0.1513   0.7632   0.7979     C
H       0.1523    0.866    0.698     H
C       0.1564   0.8798   0.3042     C
O      0.16515  0.00735  0.39275     O
C       0.1673   0.0747    0.769     C
C       0.1691   0.0765   0.6421     C
O       0.1692   0.8171   0.2083     O
H       0.1746     0.86   0.9325     H
O      0.17521  0.06141  0.52031     O
C       0.1793   0.2733   0.8677     C
O       0.1829   0.7917   0.8308     O
C      0.18439  0.92949  0.31289     C
C      0.18944  0.30144  0.91654     C
H       0.1911   0.6915   0.9399     H
C       0.2021   0.8487   0.2368     C
O       0.2083   0.1692   0.8171     O
C       0.2289   0.7179   0.8901     C
C        0.231   0.8327   0.9253     C
C       0.2368   0.2021   0.8487     C
C       0.2377   0.0909   0.7346     C
C       0.2459   0.0856    0.606     C
H        0.251   0.9188   0.9422     H
C       0.2557   0.9491   0.2565     C
C       0.2565   0.2557   0.9491     C
H       0.2626   0.2734   0.9835     H
C       0.2654   0.7623   0.9091     C
H       0.2721   0.6768   0.8634     H
C       0.2733   0.8677   0.1793     C
H       0.2734   0.9835   0.2626     H
H       0.2761   0.0849   0.5516     H
C       0.2772    0.868   0.9317     C
C         0.28   0.0963   0.6524     C
C       0.2821   0.1099   0.7711     C
C      0.30144  0.91654  0.18944     C
H        0.302   0.8477    0.134     H
C       0.3042   0.1564   0.8798     C
H       0.3085   0.0601   0.8089     H
C      0.31289  0.18439  0.92949     C
H       0.3232   0.1366   0.7279     H
H       0.3306   0.1071    0.627     H
H       0.3424    0.108   0.8672     H
C       0.3476     0.72   0.9037     C
C       0.3579   0.8309   0.9235     C
H        0.373   0.6694   0.8929     H
C       0.3794   0.9398   0.1247     C
O      0.38142  0.94342  0.92192     O
C      0.38209  0.13719  0.96539     C
O      0.39275  0.16515  0.00735     O
C        0.394   0.7541   0.9144     C
O      0.39545  0.99275  0.13235     O
C       0.4092   0.8685   0.9288     C
O      0.41983  0.90543  0.07013     O
O      0.42878  0.06798  0.95458     O
H       0.4484   0.7239   0.9151     H
O      0.47969  0.82479  0.93859     O
Tb     0.49565  0.05947  0.06695    Tb
Tb     0.50435  0.94053  0.93305    Tb
O      0.52031  0.17521  0.06141     O
H       0.5516   0.2761   0.0849     H
O      0.57122  0.93202  0.04542     O
O      0.58017  0.09457  0.92987     O
C       0.5908   0.1315   0.0712     C
O      0.60455  0.00725  0.86765     O
C        0.606   0.2459   0.0856     C
O      0.60725  0.83485  0.99265     O
C      0.61791  0.86281  0.03461     C
O      0.61858  0.05658  0.07808     O
C       0.6206   0.0602   0.8753     C
H        0.627   0.3306   0.1071     H
C       0.6421   0.1691   0.0765     C
C       0.6524     0.28   0.0963     C
H       0.6576    0.892   0.1328     H
H       0.6694   0.8929    0.373     H
H       0.6768   0.8634   0.2721     H
C      0.68711  0.81561  0.07051     C
H       0.6915   0.9399   0.1911     H
C       0.6958   0.8436   0.1202     C
H        0.698   0.1523    0.866     H
C      0.69856  0.08346  0.81056     C
C       0.7179   0.8901   0.2289     C
C         0.72   0.9037   0.3476     C
C       0.7228    0.132   0.0683     C
H       0.7239   0.9151   0.4484     H
H       0.7266   0.0165   0.7374     H
C       0.7267   0.1323   0.8207     C
H       0.7279   0.3232   0.1366     H
C       0.7346   0.2377   0.0909     C
H       0.7374   0.7266   0.0165     H
C       0.7435   0.7443   0.0509     C
C       0.7443   0.0509   0.7435     C
H        0.749   0.0812   0.0578     H
C       0.7541   0.9144    0.394     C
C       0.7623   0.9091   0.2654     C
C       0.7632   0.7979   0.1513     C
C        0.769   0.1673   0.0747     C
C       0.7711   0.2821   0.1099     C
O       0.7917   0.8308   0.1829     O
C       0.7979   0.1513   0.7632     C
H       0.8089   0.3085   0.0601     H
C      0.81056  0.69856  0.08346     C
C      0.81561  0.07051  0.68711     C
O       0.8171   0.2083   0.1692     O
C       0.8207   0.7267   0.1323     C
O      0.82479  0.93859  0.47969     O
H       0.8254     0.14   0.0675     H
O       0.8308   0.1829   0.7917     O
C       0.8309   0.9235   0.3579     C
C       0.8327   0.9253    0.231     C
O      0.83485  0.99265  0.60725     O
C       0.8436   0.1202   0.6958     C
H       0.8477    0.134    0.302     H
C       0.8487   0.2368   0.2021     C
H         0.86   0.9325   0.1746     H
C      0.86281  0.03461  0.61791     C
H       0.8634   0.2721   0.6768     H
H        0.866    0.698   0.1523     H
H       0.8672   0.3424    0.108     H
O      0.86765  0.60455  0.00725     O
C       0.8677   0.1793   0.2733     C
C        0.868   0.9317   0.2772     C
C       0.8685   0.9288   0.4092     C
C       0.8753   0.6206   0.0602     C
C       0.8798   0.3042   0.1564     C
C       0.8901   0.2289   0.7179     C
H        0.892   0.1328   0.6576     H
H       0.8929    0.373   0.6694     H
C       0.9037   0.3476     0.72     C
O      0.90543  0.07013  0.41983     O
C       0.9091   0.2654   0.7623     C
C       0.9144    0.394   0.7541     C
H       0.9151   0.4484   0.7239     H
C      0.91654  0.18944  0.30144     C
H       0.9188   0.9422    0.251     H
O      0.92192  0.38142  0.94342     O
C       0.9235   0.3579   0.8309     C
C       0.9253    0.231   0.8327     C
C       0.9288   0.4092   0.8685     C
C      0.92949  0.31289  0.18439     C
O      0.92987  0.58017  0.09457     O
C       0.9317   0.2772    0.868     C
O      0.93202  0.04542  0.57122     O
H       0.9325   0.1746     0.86     H
Tb     0.93305  0.50435  0.94053    Tb
O      0.93859  0.47969  0.82479     O
C       0.9398   0.1247   0.3794     C
H       0.9399   0.1911   0.6915     H
Tb     0.94053  0.93305  0.50435    Tb
H       0.9422    0.251   0.9188     H
O      0.94342  0.92192  0.38142     O
C       0.9491   0.2565   0.2557     C
O      0.95458  0.42878  0.06798     O
C      0.96539  0.38209  0.13719     C
H       0.9835   0.2626   0.2734     H
O      0.99265  0.60725  0.83485     O
O      0.99275  0.13235  0.39545     O
