data_I
_chemical_name_common  '/home/zhangsd/repos/MofS-CGCNN/ML/data/SSD/clean_cifs/PAPVEJ_clean'
_cell_length_a  9.00680
_cell_length_b 14.80350
_cell_length_c 22.98370
_cell_angle_alpha 90.00000
_cell_angle_beta  90.00000
_cell_angle_gamma 92.78700
_space_group_name_H-M_alt      'P 1'


loop_
_space_group_symop_operation_xyz
  'x, y, z' 

loop_
_atom_site_label
_atom_site_fract_x
_atom_site_fract_y
_atom_site_fract_z
_atom_site_type_symbol
H       0.0004   0.6894   0.8945     H
C       0.0048   0.6374  0.47924     C
H       0.0053    0.151   0.3799     H
C       0.0145   0.2656  0.53759     C
O       0.0192  0.04471  0.05593     O
C       0.0195   0.8303  0.04394     C
C       0.0301   0.7307   0.0563     C
C       0.0351    0.797  0.70107     C
C       0.0422   0.2593  0.18616     C
C       0.0459   0.4105  0.89868     C
C       0.0478   0.8723  0.41065     C
C       0.0574   0.0833  0.55823     C
C        0.059   0.5462  0.06883     C
C       0.0635   0.3174  0.90421     C
H       0.0672   0.4841   0.0727     H
C       0.0698   0.7811  0.41965     C
H       0.0711   0.0224   0.5652     H
C       0.0787    0.825   0.6394     C
C       0.0844   0.2875  0.12477     C
O       0.0888  0.39985  0.48689     O
C       0.1016   0.7321  0.79358     C
H       0.1051    0.904   0.3831     H
H       0.1057   0.4439   0.8727     H
O       0.1066  0.13794  0.95307     O
C       0.1087   0.1945  0.27869     C
C       0.1095   0.0466  0.09748     C
H       0.1104   0.7733   0.6184     H
O        0.116  0.59987  0.45982     O
H       0.1174   0.2361   0.1038     H
C       0.1211    0.219  0.50714     C
H       0.1283   0.2443   0.7276     H
H       0.1321   0.7138   0.2405     H
C       0.1369   0.6855  0.02547     C
O        0.138  0.87232  0.03005     O
C       0.1421    0.129  0.51692     C
C       0.1427    0.761  0.73743     C
C       0.1491    0.224  0.22272     C
C       0.1507   0.5938  0.03123     C
H       0.1585   0.8703   0.6408     H
H        0.163   0.3337   0.1261     H
H       0.1635   0.3416   0.7028     H
H       0.1686   0.6406   0.8547     H
H       0.1734   0.1045   0.3411     H
H       0.1762   0.8102    0.216     H
H       0.1794   0.2498   0.4795     H
H        0.184   0.2567   0.6634     H
H       0.1919   0.7247   0.1767     H
C       0.1923     0.28   0.7023     C
S      0.19418  0.25983  0.86292     S
C          0.2   0.7477   0.2156     C
H       0.2004    0.718   0.0004     H
H        0.203   0.3758   0.7937     H
S      0.20335  0.72292  0.37834     S
H       0.2081   0.8369   0.3076     H
Er     0.21016  0.00396  0.98161    Er
H        0.213   0.0993   0.4958     H
C       0.2156   0.6886  0.83151     C
H       0.2215   0.5645   0.0098     H
C       0.2216   0.1514  0.31723     C
O       0.2453   0.0392    0.088     O
O       0.2547   0.4608    0.588     O
C       0.2784   0.3486  0.81723     C
H       0.2785   0.9355   0.5098     H
C       0.2844   0.8114  0.33151     C
H        0.287   0.4007   0.9958     H
Er     0.28984  0.49604  0.48161    Er
H       0.2919   0.6631   0.8076     H
S      0.29665  0.77708  0.87834     S
H        0.297   0.1242   0.2937     H
H       0.2996    0.782   0.5004     H
C          0.3   0.7523   0.7156     C
S      0.30582  0.24017  0.36292     S
C       0.3077     0.22   0.2023     C
H       0.3081   0.7753   0.6767     H
H        0.316   0.2433   0.1634     H
H       0.3206   0.2502   0.9795     H
H       0.3238   0.6898    0.716     H
H       0.3266   0.3955   0.8411     H
H       0.3314   0.8594   0.3547     H
H       0.3365   0.1584   0.2028     H
H        0.337   0.1663   0.6261     H
H       0.3415   0.6297   0.1408     H
C       0.3493   0.9062  0.53123     C
C       0.3509    0.276  0.72272     C
C       0.3573    0.739  0.23743     C
C       0.3579    0.371  0.01692     C
O        0.362  0.62768  0.53005     O
C       0.3631   0.8145  0.52547     C
H       0.3679   0.7862   0.7405     H
H       0.3717   0.2557   0.2276     H
C       0.3789    0.281  0.00714     C
H       0.3826   0.2639   0.6038     H
O        0.384  0.90013  0.95982     O
H       0.3896   0.7267   0.1184     H
C       0.3905   0.4534  0.59748     C
C       0.3913   0.3055  0.77869     C
O       0.3934  0.36206  0.45307     O
H       0.3943   0.0561   0.3727     H
H       0.3949    0.596   0.8831     H
C       0.3984   0.7679  0.29358     C
O       0.4112  0.10015  0.98689     O
C       0.4156   0.2125  0.62477     C
C       0.4213    0.675   0.1394     C
H       0.4289   0.4776   0.0652     H
C       0.4302   0.7189  0.91965     C
H       0.4328   0.0159   0.5727     H
C       0.4365   0.1826  0.40421     C
C        0.441   0.9538  0.56883     C
C       0.4426   0.4167  0.05823     C
C       0.4522   0.6277  0.91065     C
C       0.4541   0.0895  0.39868     C
C       0.4578   0.2407  0.68616     C
C       0.4649    0.703  0.20107     C
C       0.4699   0.7693   0.5563     C
C       0.4805   0.6697  0.54394     C
O       0.4808  0.45529  0.55593     O
C       0.4855   0.2344  0.03759     C
H       0.4947    0.349   0.8799     H
C       0.4952   0.8626  0.97924     C
H       0.4996   0.8106   0.3945     H
H       0.5004   0.1894   0.6055     H
C       0.5048   0.1374  0.02076     C
H       0.5053    0.651   0.1201     H
C       0.5145   0.7656  0.96241     C
O       0.5192  0.54471  0.44407     O
C       0.5195   0.3303  0.45606     C
C       0.5301   0.2307   0.4437     C
C       0.5351    0.297  0.79893     C
C       0.5422   0.7593  0.31384     C
C       0.5459   0.9105  0.60132     C
C       0.5478   0.3723  0.08935     C
C       0.5574   0.5833  0.94177     C
C        0.559   0.0462  0.43117     C
C       0.5635   0.8174  0.59579     C
H       0.5672   0.9841   0.4273     H
C       0.5698   0.2811  0.08035     C
H       0.5711   0.5224   0.9348     H
C       0.5787    0.325   0.8606     C
C       0.5844   0.7875  0.37523     C
O       0.5888  0.89985  0.01311     O
C       0.6016   0.2321  0.70642     C
H       0.6051    0.404   0.1169     H
H       0.6057   0.9439   0.6273     H
O       0.6066  0.63794  0.54693     O
C       0.6087   0.6945  0.22131     C
C       0.6095   0.5466  0.40252     C
H       0.6104   0.2733   0.8816     H
O        0.616  0.09987  0.04018     O
H       0.6174   0.7361   0.3962     H
C       0.6211    0.719  0.99286     C
H       0.6283   0.7443   0.7724     H
H       0.6321   0.2138   0.2595     H
C       0.6369   0.1855  0.47453     C
O        0.638  0.37232  0.46995     O
C       0.6421    0.629  0.98308     C
C       0.6427    0.261  0.76257     C
C       0.6491    0.724  0.27728     C
C       0.6507   0.0938  0.46877     C
H       0.6585   0.3703   0.8592     H
H        0.663   0.8337   0.3739     H
H       0.6635   0.8416   0.7972     H
H       0.6686   0.1406   0.6453     H
H       0.6734   0.6045   0.1589     H
H       0.6762   0.3102    0.284     H
H       0.6794   0.7498   0.0205     H
H        0.684   0.7567   0.8366     H
H       0.6919   0.2247   0.3233     H
C       0.6923     0.78   0.7977     C
S      0.69418  0.75983  0.63708     S
C          0.7   0.2477   0.2844     C
H       0.7004    0.218   0.4996     H
H        0.703   0.8758   0.7063     H
S      0.70335  0.22292  0.12166     S
H       0.7081   0.3369   0.1924     H
Er     0.71016  0.50396  0.51839    Er
H        0.713   0.5993   0.0042     H
C       0.7156   0.1886  0.66849     C
H       0.7215   0.0645   0.4902     H
C       0.7216   0.6514  0.18277     C
O       0.7453   0.5392    0.412     O
O       0.7547   0.9608    0.912     O
C       0.7784   0.8486  0.68277     C
H       0.7785   0.4355   0.9902     H
C       0.7844   0.3114  0.16849     C
H        0.787   0.9007   0.5042     H
Er     0.78984  0.99604  0.01839    Er
H       0.7919   0.1631   0.6924     H
S      0.79665  0.27708  0.62166     S
H        0.797   0.6242   0.2063     H
H       0.7996    0.282   0.9996     H
C          0.8   0.2523   0.7844     C
S      0.80582  0.74017  0.13708     S
C       0.8077     0.72   0.2977     C
H       0.8081   0.2753   0.8233     H
H        0.816   0.7433   0.3366     H
H       0.8206   0.7502   0.5205     H
H       0.8238   0.1898    0.784     H
H       0.8266   0.8955   0.6589     H
H       0.8314   0.3594   0.1453     H
H       0.8365   0.6584   0.2972     H
H        0.837   0.6663   0.8739     H
H       0.8415   0.1297   0.3592     H
C       0.8493   0.4062  0.96877     C
C       0.8509    0.776  0.77728     C
C       0.8573    0.239  0.26257     C
C       0.8579    0.871  0.48308     C
O        0.862  0.12768  0.96995     O
C       0.8631   0.3145  0.97453     C
H       0.8679   0.2862   0.7595     H
H       0.8717   0.7557   0.2724     H
C       0.8789    0.781  0.49286     C
H       0.8826   0.7639   0.8962     H
O        0.884  0.40013  0.54018     O
H       0.8896   0.2267   0.3816     H
C       0.8905   0.9534  0.90252     C
C       0.8913   0.8055  0.72131     C
O       0.8934  0.86206  0.04693     O
H       0.8943   0.5561   0.1273     H
H       0.8949    0.096   0.6169     H
C       0.8984   0.2679  0.20642     C
O       0.9112  0.60015  0.51311     O
C       0.9156   0.7125  0.87523     C
C       0.9213    0.175   0.3606     C
H       0.9289   0.9776   0.4348     H
C       0.9302   0.2189  0.58035     C
H       0.9328   0.5159   0.9273     H
C       0.9365   0.6826  0.09579     C
C        0.941   0.4538  0.93117     C
C       0.9426   0.9167  0.44177     C
C       0.9522   0.1277  0.58935     C
C       0.9541   0.5895  0.10132     C
C       0.9578   0.7407  0.81384     C
C       0.9649    0.203  0.29893     C
C       0.9699   0.2693   0.9437     C
C       0.9805   0.1697  0.95606     C
O       0.9808  0.95529  0.94407     O
C       0.9855   0.7344  0.46241     C
H       0.9947    0.849   0.6201     H
C       0.9952   0.3626  0.52076     C
H       0.9996   0.3106   0.1055     H
