data_I
_chemical_name_common  '/home/zhangsd/repos/MofS-CGCNN/ML/data/SSD/clean_cifs/PAQJUM_clean'
_cell_length_a 12.72600
_cell_length_b 12.72600
_cell_length_c 30.93900
_cell_angle_alpha 90.00000
_cell_angle_beta  90.00000
_cell_angle_gamma 120.00000
_space_group_name_H-M_alt      'P 1'


loop_
_space_group_symop_operation_xyz
  'x, y, z' 

loop_
_atom_site_label
_atom_site_fract_x
_atom_site_fract_y
_atom_site_fract_z
_atom_site_type_symbol
P      0.00127  0.24445   0.7086     P
O      0.00226  0.64978   0.9934     O
Al     0.00392   0.2467   0.2954    Al
O      0.00412  0.70555   0.2472     O
P      0.00684   0.2445  0.55223     P
Al     0.00719  0.24283  0.45021    Al
O      0.00779  0.28043  0.50499     O
O      0.00923  0.35294  0.91445     O
O      0.01037   0.3241  0.24778     O
O      0.01688  0.68581  0.32674     O
O      0.01914  0.33559  0.33993     O
O       0.0196  0.67704  0.41889     O
O      0.03476  0.66255  0.91387     O
O      0.03888   0.3681  0.41947     O
O      0.05291  0.39403  0.17165     O
O       0.0607  0.67446  0.16168     O
O      0.07201  0.53326  0.23103     O
O      0.07535  0.53109  0.36988     O
O      0.08658  0.88578  0.44161     O
Al     0.08663  0.42389  0.96207    Al
P      0.08884  0.42901  0.21889     P
P      0.08888  0.42349  0.37527     P
P      0.09015  0.66794  0.95807     P
Al     0.09051  0.43103  0.11687    Al
Al     0.09055  0.67059  0.37127    Al
O      0.09283  0.88566  0.29395     O
P      0.09568  0.67351  0.11444     P
Al      0.0977  0.67386  0.21646    Al
O      0.11422  0.20081  0.44161     O
O      0.11434  0.20717  0.29395     O
O       0.1224  0.25798  0.70321     O
O      0.12616  0.57384  0.96062     O
O      0.12792  0.26132  0.56436     O
O      0.13253  0.58008  0.10827     O
O      0.13341  0.87208  0.56436     O
O      0.13558   0.8776  0.70321     O
O      0.19775  0.78907  0.96346     O
O      0.19993  0.79458   0.1023     O
O      0.20081  0.08658  0.55839     O
O      0.20542  0.40534   0.1023     O
O      0.20717  0.09283  0.70605     O
O      0.21093  0.40869  0.96346     O
O      0.21899   0.4595  0.37272     O
O      0.21911  0.46586  0.22506     O
Al     0.23563  0.99281  0.45021    Al
P      0.23765  0.99316  0.55223     P
O       0.2405  0.78101  0.37272     O
Al     0.24278  0.99608   0.2954    Al
Al     0.24283  0.23563  0.54979    Al
P      0.24318  0.99873   0.7086     P
P      0.24445  0.24318   0.2914     P
P       0.2445  0.23765  0.44777     P
Al      0.2467  0.24278   0.7046    Al
O      0.24675  0.78089  0.22506     O
O      0.25798  0.13558  0.29679     O
O      0.26132  0.13341  0.43564     O
O      0.27263  0.99221  0.50499     O
O      0.28043  0.27263  0.49501     O
O      0.29445  0.29857   0.2472     O
O      0.29857  0.00412   0.7528     O
O      0.31373  0.98963  0.24778     O
O      0.31419  0.33108  0.32674     O
O      0.31645  0.98086  0.33993     O
O      0.32296  0.34257  0.41889     O
O       0.3241  0.31373  0.75222     O
O      0.32554  0.38624  0.16168     O
Al     0.32614  0.42384  0.21646    Al
P      0.32649  0.42217  0.11444     P
O      0.32921  0.96112  0.41947     O
Al     0.32941  0.41997  0.37127    Al
O      0.33108  0.01688  0.67326     O
P      0.33206  0.42222  0.95807     P
P       0.3346  0.91112  0.37527     P
O      0.33559  0.31645  0.66007     O
Al     0.33725  0.91337  0.96207    Al
O      0.33745  0.37222  0.91387     O
P      0.34018  0.91116  0.21889     P
Al     0.34053  0.90949  0.11687    Al
O      0.34113  0.94709  0.17165     O
O      0.34257   0.0196  0.58111     O
O       0.3437  0.99077  0.91445     O
O      0.35022  0.35247   0.9934     O
O      0.35247  0.00226   0.0066     O
O      0.35294   0.3437  0.08555     O
O       0.3681  0.32921  0.58053     O
O      0.37222  0.03476  0.08613     O
O      0.38624   0.0607  0.83832     O
O      0.39403  0.34113  0.82835     O
O      0.40534  0.19993   0.8977     O
O      0.40869  0.19775  0.03654     O
O      0.41992  0.55244  0.10827     O
Al     0.41997  0.09055  0.62873    Al
P      0.42217  0.09568  0.88556     P
P      0.42222  0.09015  0.04193     P
P      0.42349   0.3346  0.62473     P
Al     0.42384   0.0977  0.78354    Al
Al     0.42389  0.33725  0.03793    Al
O      0.42616  0.55233  0.96062     O
P      0.42901  0.34018  0.78111     P
Al     0.43103  0.34053  0.88313    Al
O      0.44756  0.86747  0.10827     O
O      0.44767  0.87384  0.96062     O
O      0.45573  0.92465  0.36988     O
O       0.4595   0.2405  0.62728     O
O      0.46125  0.92799  0.23103     O
O      0.46586  0.24675  0.77494     O
O      0.46674  0.53875  0.23103     O
O      0.46891  0.54427  0.36988     O
O      0.53109  0.45573  0.63012     O
O      0.53326  0.46125  0.76897     O
O      0.53414  0.75325  0.22506     O
O      0.53875  0.07201  0.76897     O
O       0.5405   0.7595  0.37272     O
O      0.54427  0.07535  0.63012     O
O      0.55233  0.12616  0.03938     O
O      0.55244  0.13253  0.89173     O
Al     0.56897  0.65947  0.11687    Al
P      0.57099  0.65982  0.21889     P
O      0.57384  0.44767  0.03938     O
Al     0.57611  0.66275  0.96207    Al
Al     0.57616   0.9023  0.21646    Al
P      0.57651   0.6654  0.37527     P
P      0.57778  0.90985  0.95807     P
P      0.57783  0.90432  0.11444     P
Al     0.58003  0.90945  0.37127    Al
O      0.58008  0.44756  0.89173     O
O      0.59131  0.80225  0.96346     O
O      0.59466  0.80007   0.1023     O
O      0.60597  0.65887  0.17165     O
O      0.61376   0.9393  0.16168     O
O      0.62778  0.96524  0.91387     O
O       0.6319  0.67079  0.41947     O
O      0.64706   0.6563  0.91445     O
O      0.64753  0.99774   0.9934     O
O      0.64978  0.64753   0.0066     O
O       0.6563  0.00923  0.08555     O
O      0.65743   0.9804  0.41889     O
O      0.65887  0.05291  0.82835     O
Al     0.65947  0.09051  0.88313    Al
P      0.65982  0.08884  0.78111     P
O      0.66255  0.62778  0.08613     O
Al     0.66275  0.08663  0.03793    Al
O      0.66441  0.68355  0.33993     O
P       0.6654  0.08888  0.62473     P
P      0.66794  0.57778  0.04193     P
O      0.66892  0.98312  0.32674     O
Al     0.67059  0.58003  0.62873    Al
O      0.67079  0.03888  0.58053     O
P      0.67351  0.57783  0.88556     P
Al     0.67386  0.57616  0.78354    Al
O      0.67446  0.61376  0.83832     O
O       0.6759  0.68627  0.24778     O
O      0.67704  0.65743  0.58111     O
O      0.68355  0.01914  0.66007     O
O      0.68581  0.66892  0.67326     O
O      0.68627  0.01037  0.75222     O
O      0.70143  0.99588   0.2472     O
O      0.70555  0.70143   0.7528     O
O      0.71957  0.72737  0.50499     O
O      0.72737  0.00779  0.49501     O
O      0.73868  0.86659  0.56436     O
O      0.74202  0.86442  0.70321     O
O      0.75325  0.21911  0.77494     O
Al      0.7533  0.75722   0.2954    Al
P       0.7555  0.76235  0.55223     P
P      0.75555  0.75682   0.7086     P
P      0.75682  0.00127   0.2914     P
Al     0.75717  0.76437  0.45021    Al
Al     0.75722  0.00392   0.7046    Al
O       0.7595  0.21899  0.62728     O
P      0.76235  0.00684  0.44777     P
Al     0.76437  0.00719  0.54979    Al
O      0.78089  0.53414  0.77494     O
O      0.78101   0.5405  0.62728     O
O      0.78907  0.59131  0.03654     O
O      0.79283  0.90717  0.29395     O
O      0.79458  0.59466   0.8977     O
O      0.79919  0.91342  0.44161     O
O      0.80007  0.20542   0.8977     O
O      0.80225  0.21093  0.03654     O
O      0.86442   0.1224  0.29679     O
O      0.86659  0.12792  0.43564     O
O      0.86747  0.41992  0.89173     O
O      0.87208  0.73868  0.43564     O
O      0.87384  0.42616  0.03938     O
O       0.8776  0.74202  0.29679     O
O      0.88566  0.79283  0.70605     O
O      0.88578  0.79919  0.55839     O
Al      0.9023  0.32614  0.78354    Al
P      0.90432  0.32649  0.88556     P
O      0.90717  0.11434  0.70605     O
Al     0.90945  0.32941  0.62873    Al
Al     0.90949  0.56897  0.88313    Al
P      0.90985  0.33206  0.04193     P
P      0.91112  0.57651  0.62473     P
P      0.91116  0.57099  0.78111     P
Al     0.91337  0.57611  0.03793    Al
O      0.91342  0.11422  0.55839     O
O      0.92465  0.46891  0.63012     O
O      0.92799  0.46674  0.76897     O
O       0.9393  0.32554  0.83832     O
O      0.94709  0.60597  0.82835     O
O      0.96112   0.6319  0.58053     O
O      0.96524  0.33745  0.08613     O
O       0.9804  0.32296  0.58111     O
O      0.98086  0.66441  0.66007     O
O      0.98312  0.31419  0.67326     O
O      0.98963   0.6759  0.75222     O
O      0.99077  0.64706  0.08555     O
O      0.99221  0.71957  0.49501     O
Al     0.99281  0.75717  0.54979    Al
P      0.99316   0.7555  0.44777     P
O      0.99588  0.29445   0.7528     O
Al     0.99608   0.7533   0.7046    Al
O      0.99774  0.35022   0.0066     O
P      0.99873  0.75555   0.2914     P
