data_I
_chemical_name_common  '/home/zhangsd/repos/MofS-CGCNN/ML/data/SSD/clean_cifs/PENYIR_clean'
_cell_length_a  9.09820
_cell_length_b 11.85490
_cell_length_c 12.01130
_cell_angle_alpha 103.12800
_cell_angle_beta  90.77500
_cell_angle_gamma 91.88700
_space_group_name_H-M_alt      'P 1'


loop_
_space_group_symop_operation_xyz
  'x, y, z' 

loop_
_atom_site_label
_atom_site_fract_x
_atom_site_fract_y
_atom_site_fract_z
_atom_site_type_symbol
O       0.0378   0.3111    0.519     O
F       0.0417  0.89542  0.99232     F
F       0.0654  0.47835  0.40054     F
O       0.0749   0.9924   0.8134     O
V       0.1012  0.05789  0.11035     V
V      0.10703  0.60684  0.56089     V
P      0.19803  0.34611  0.56117     P
O       0.2199   0.9536   0.1843     O
O       0.2268   0.2937   0.6646     O
O       0.2278    0.478    0.593     O
P      0.22867  0.04235  0.85907     P
O       0.2491   0.0636    0.989     O
O       0.2528   0.1559   0.8198     O
H       0.2544   0.2959   0.3701     H
O       0.2609   0.6587   0.4683     O
H       0.3047   0.1984   0.4326     H
C       0.3061   0.2831   0.4389     C
H       0.3129   0.8574   0.8075     H
H       0.3437   0.9248   0.7092     H
C        0.351   0.9318   0.7929     C
H       0.3623   0.4148   0.8469     H
O       0.3719   0.0075   0.3663     O
O        0.372   0.0918    0.602     O
P      0.37561  0.96021  0.23712     P
O       0.3876    0.856   0.5132     O
V      0.39203  0.23332  0.73618     V
P      0.40715  0.72522  0.47226     P
O        0.415   0.3615   0.8585     O
O       0.4406   0.8398   0.2044     O
H       0.4428   0.1337   0.1932     H
C        0.468   0.3238   0.4333     C
O       0.4709   0.6923   0.3524     O
H       0.4733   0.4096   0.4514     H
H       0.4762   0.0282    0.089     H
C       0.4848   0.0559   0.1731     C
H       0.4987   0.7035   0.6461     H
V          0.5      0.0      0.5     V
H       0.5013   0.2965   0.3539     H
C       0.5152   0.9441   0.8269     C
H       0.5238   0.9718    0.911     H
H       0.5267   0.5904   0.5486     H
O       0.5291   0.3077   0.6476     O
C        0.532   0.6762   0.5667     C
H       0.5572   0.8663   0.8068     H
O       0.5594   0.1602   0.7956     O
O        0.585   0.6385   0.1415     O
P      0.59285  0.27478  0.52774     P
V      0.60797  0.76668  0.26382     V
O       0.6124    0.144   0.4868     O
P      0.62439  0.03979  0.76288     P
O        0.628   0.9082    0.398     O
O       0.6281   0.9925   0.6337     O
H       0.6377   0.5852   0.1531     H
C        0.649   0.0682   0.2071     C
H       0.6563   0.0752   0.2908     H
H       0.6871   0.1426   0.1925     H
C       0.6939   0.7169   0.5611     C
H       0.6953   0.8016   0.5674     H
O       0.7391   0.3413   0.5317     O
H       0.7456   0.7041   0.6299     H
O       0.7472   0.8441   0.1802     O
O       0.7509   0.9364    0.011     O
P      0.77133  0.95765  0.14093     P
O       0.7722    0.522    0.407     O
O       0.7732   0.7063   0.3354     O
O       0.7801   0.0464   0.8157     O
P      0.80197  0.65389  0.43883     P
V      0.89297  0.39316  0.43911     V
V       0.8988  0.94211  0.88965     V
O       0.9251   0.0076   0.1866     O
F       0.9346  0.52165  0.59946     F
F       0.9583  0.10458  0.00768     F
O       0.9622   0.6889    0.481     O
