data_I
_chemical_name_common  '/home/zhangsd/repos/MofS-CGCNN/ML/data/SSD/clean_cifs/PEPLIG_clean'
_cell_length_a  6.78580
_cell_length_b 12.61800
_cell_length_c 17.08600
_cell_angle_alpha 90.00000
_cell_angle_beta  90.00000
_cell_angle_gamma 90.00000
_space_group_name_H-M_alt      'P 1'


loop_
_space_group_symop_operation_xyz
  'x, y, z' 

loop_
_atom_site_label
_atom_site_fract_x
_atom_site_fract_y
_atom_site_fract_z
_atom_site_type_symbol
H       0.0302   0.0963   0.7889     H
H       0.0315   0.0655   0.1921     H
H       0.0453   0.9955   0.6767     H
H       0.0505   0.9636   0.3056     H
V      0.05886   0.7654  0.49926     V
O        0.059    0.365  0.92387     O
O        0.062   0.3449  0.08833     O
C       0.0695   0.4725   0.2199     C
C       0.0744   0.5033   0.7974     C
C        0.081    0.533   0.2881     C
C       0.0827   0.5634   0.7301     C
O       0.1096   0.6505  0.42316     O
O       0.1098   0.6701   0.5893     O
O       0.2224  0.18534  0.99604     O
C       0.2274   0.3625   0.1174     C
C       0.2298   0.3846   0.8968     C
C       0.2393   0.4256   0.1907     C
C       0.2397    0.455   0.8268     C
C       0.2603    0.545   0.3268     C
C       0.2607   0.5744   0.6907     C
C       0.2702   0.6154   0.3968     C
C       0.2726   0.6375   0.6174     C
O       0.2776  0.81466  0.49604     O
O       0.3902   0.3299   0.0893     O
O       0.3904   0.3495  0.92316     O
C       0.4173   0.4366   0.2301     C
C        0.419    0.467   0.7881     C
C       0.4256   0.4967   0.2974     C
C       0.4305   0.5275   0.7199     C
O        0.438   0.6551  0.58833     O
O        0.441    0.635  0.42387     O
V      0.44114   0.2346  0.99926     V
H       0.4495   0.0364   0.8056     H
H       0.4547   0.0045   0.1767     H
H       0.4685   0.9345   0.6921     H
H       0.4698   0.9037   0.2889     H
H       0.5302   0.4037   0.2111     H
H       0.5315   0.4345   0.8079     H
H       0.5453   0.5045   0.3233     H
H       0.5505   0.5364   0.6944     H
V      0.55886   0.7346  0.50074     V
O        0.559    0.135  0.07613     O
O        0.562   0.1551  0.91167     O
C       0.5695   0.0275   0.7801     C
C       0.5744   0.9967   0.2026     C
C        0.581    0.967   0.7119     C
C       0.5827   0.9366   0.2699     C
O       0.6096   0.8495  0.57684     O
O       0.6098   0.8299   0.4107     O
O       0.7224  0.31466  0.00396     O
C       0.7274   0.1375   0.8826     C
C       0.7298   0.1154   0.1032     C
C       0.7393   0.0744   0.8093     C
C       0.7397    0.045   0.1732     C
C       0.7603    0.955   0.6732     C
C       0.7607   0.9256   0.3093     C
C       0.7702   0.8846   0.6032     C
C       0.7726   0.8625   0.3826     C
O       0.7776  0.68534  0.50396     O
O       0.8902   0.1701   0.9107     O
O       0.8904   0.1505  0.07684     O
C       0.9173   0.0634   0.7699     C
C        0.919    0.033   0.2119     C
C       0.9256   0.0033   0.7026     C
C       0.9305   0.9725   0.2801     C
O        0.938   0.8449  0.41167     O
O        0.941    0.865  0.57613     O
V      0.94114   0.2654  0.00074     V
H       0.9495   0.4636   0.1944     H
H       0.9547   0.4955   0.8233     H
H       0.9685   0.5655   0.3079     H
H       0.9698   0.5963   0.7111     H
