data_I
_chemical_name_common  '/home/zhangsd/repos/MofS-CGCNN/ML/data/SSD/clean_cifs/PEPLOM_clean'
_cell_length_a  6.79600
_cell_length_b 10.21400
_cell_length_c 18.41000
_cell_angle_alpha 90.00000
_cell_angle_beta  90.00000
_cell_angle_gamma 90.00000
_space_group_name_H-M_alt      'P 1'


loop_
_space_group_symop_operation_xyz
  'x, y, z' 

loop_
_atom_site_label
_atom_site_fract_x
_atom_site_fract_y
_atom_site_fract_z
_atom_site_type_symbol
C       0.0072   0.0477   0.0697     C
C       0.0072   0.0477   0.4303     C
C       0.0138   0.1084   0.1437     C
C       0.0138   0.1084   0.3563     C
O        0.016   0.3284     0.25     O
O       0.1483   0.8603   0.6725     O
O       0.1483   0.8603   0.8275     O
C         0.17   0.9648    0.535     C
C         0.17   0.9648    0.965     C
C        0.177   0.0139   0.0346     C
C        0.177   0.0139   0.4654     C
O       0.1807   0.1242   0.1717     O
O       0.1807   0.1242   0.3283     O
V       0.1993   0.7323     0.75     V
H       0.2026    0.524   0.5579     H
H       0.2026    0.524   0.9421     H
H       0.2141   0.4401   0.0584     H
H       0.2141   0.4401   0.4416     H
H       0.2859   0.9401   0.5584     H
H       0.2859   0.9401   0.9416     H
H       0.2974    0.024   0.0579     H
H       0.2974    0.024   0.4421     H
V       0.3007   0.2323     0.25     V
O       0.3193   0.6242   0.6717     O
O       0.3193   0.6242   0.8283     O
C        0.323   0.5139   0.5346     C
C        0.323   0.5139   0.9654     C
C         0.33   0.4648    0.035     C
C         0.33   0.4648    0.465     C
O       0.3517   0.3603   0.1725     O
O       0.3517   0.3603   0.3275     O
O        0.484   0.8284     0.75     O
C       0.4862   0.6084   0.6437     C
C       0.4862   0.6084   0.8563     C
C       0.4928   0.5477   0.5697     C
C       0.4928   0.5477   0.9303     C
C       0.5072   0.4523   0.0697     C
C       0.5072   0.4523   0.4303     C
C       0.5138   0.3916   0.1437     C
C       0.5138   0.3916   0.3563     C
O        0.516   0.1716     0.25     O
O       0.6483   0.6397   0.6725     O
O       0.6483   0.6397   0.8275     O
C         0.67   0.5352    0.535     C
C         0.67   0.5352    0.965     C
C        0.677   0.4861   0.0346     C
C        0.677   0.4861   0.4654     C
O       0.6807   0.3758   0.1717     O
O       0.6807   0.3758   0.3283     O
V       0.6993   0.7677     0.75     V
H       0.7026    0.976   0.5579     H
H       0.7026    0.976   0.9421     H
H       0.7141   0.0599   0.0584     H
H       0.7141   0.0599   0.4416     H
H       0.7859   0.5599   0.5584     H
H       0.7859   0.5599   0.9416     H
H       0.7974    0.476   0.0579     H
H       0.7974    0.476   0.4421     H
V       0.8007   0.2677     0.25     V
O       0.8193   0.8758   0.6717     O
O       0.8193   0.8758   0.8283     O
C        0.823   0.9861   0.5346     C
C        0.823   0.9861   0.9654     C
C         0.83   0.0352    0.035     C
C         0.83   0.0352    0.465     C
O       0.8517   0.1397   0.1725     O
O       0.8517   0.1397   0.3275     O
O        0.984   0.6716     0.75     O
C       0.9862   0.8916   0.6437     C
C       0.9862   0.8916   0.8563     C
C       0.9928   0.9523   0.5697     C
C       0.9928   0.9523   0.9303     C
