data_I
_chemical_name_common  '/home/zhangsd/repos/MofS-CGCNN/ML/data/SSD/clean_cifs/PEPLEC_clean'
_cell_length_a  6.78490
_cell_length_b 13.03090
_cell_length_c 16.85100
_cell_angle_alpha 90.00000
_cell_angle_beta  90.00000
_cell_angle_gamma 90.00000
_space_group_name_H-M_alt      'P 1'


loop_
_space_group_symop_operation_xyz
  'x, y, z' 

loop_
_atom_site_label
_atom_site_fract_x
_atom_site_fract_y
_atom_site_fract_z
_atom_site_type_symbol
H       0.0304   0.4172   0.2961     H
H       0.0342   0.4296   0.6975     H
H       0.0496   0.5293   0.8111     H
H       0.0514   0.5207    0.185     H
V      0.05922  0.73536  0.99966     V
O       0.0596  0.15103  0.58604     O
O       0.0604  0.14397  0.41872     O
C       0.0693   0.0106  0.29006     C
C       0.0703   0.0195  0.71457     C
C       0.0798   0.9591  0.78213     C
C       0.0822   0.9492  0.22343     C
O       0.1099  0.83489  0.08593     O
O        0.111  0.84023  0.91691     O
O      0.22116   0.3129  0.49881     O
C        0.228   0.1247  0.39051     C
C       0.2296   0.1323  0.61301     C
C       0.2393   0.0652  0.68537     C
C       0.2396   0.0574  0.31955     C
C       0.2604   0.9426  0.81955     C
C       0.2607   0.9348  0.18537     C
C       0.2704   0.8677  0.11301     C
C        0.272   0.8753  0.89051     C
O      0.27884   0.6871  0.99881     O
O        0.389  0.15977  0.41691     O
O       0.3901  0.16511  0.58593     O
C       0.4178   0.0508  0.72343     C
C       0.4202   0.0409  0.28213     C
C       0.4297   0.9805  0.21457     C
C       0.4307   0.9894  0.79006     C
O       0.4396  0.85603  0.91872     O
O       0.4404  0.84897  0.08604     O
V      0.44078  0.26464  0.49966     V
H       0.4486   0.4793    0.685     H
H       0.4504   0.4707   0.3111     H
H       0.4658   0.5704   0.1975     H
H       0.4696   0.5828   0.7961     H
H       0.5304   0.0828   0.7039     H
H       0.5342   0.0704   0.3025     H
H       0.5496   0.9707   0.1889     H
H       0.5514   0.9793    0.815     H
V      0.55922  0.76464  0.00034     V
O       0.5596  0.34897  0.41396     O
O       0.5604  0.35603  0.58128     O
C       0.5693   0.4894  0.70994     C
C       0.5703   0.4805  0.28543     C
C       0.5798   0.5409  0.21787     C
C       0.5822   0.5508  0.77657     C
O       0.6099  0.66511  0.91407     O
O        0.611  0.65977  0.08309     O
O      0.72116   0.1871  0.50119     O
C        0.728   0.3753  0.60949     C
C       0.7296   0.3677  0.38699     C
C       0.7393   0.4348  0.31463     C
C       0.7396   0.4426  0.68045     C
C       0.7604   0.5574  0.18045     C
C       0.7607   0.5652  0.81463     C
C       0.7704   0.6323  0.88699     C
C        0.772   0.6247  0.10949     C
O      0.77884   0.8129  0.00119     O
O        0.889  0.34023  0.58309     O
O       0.8901  0.33489  0.41407     O
C       0.9178   0.4492  0.27657     C
C       0.9202   0.4591  0.71787     C
C       0.9297   0.5195  0.78543     C
C       0.9307   0.5106  0.20994     C
O       0.9396  0.64397  0.08128     O
O       0.9404  0.65103  0.91396     O
V      0.94078  0.23536  0.50034     V
H       0.9486   0.0207    0.315     H
H       0.9504   0.0293   0.6889     H
H       0.9658   0.9296   0.8025     H
H       0.9696   0.9172   0.2039     H
