data_I
_chemical_name_common  '/home/zhangsd/repos/MofS-CGCNN/ML/data/SSD/clean_cifs/PEQRUZ_clean'
_cell_length_a 13.32970
_cell_length_b 16.32130
_cell_length_c 16.32130
_cell_angle_alpha 80.40100
_cell_angle_beta  65.89870
_cell_angle_gamma 65.89870
_space_group_name_H-M_alt      'P 1'


loop_
_space_group_symop_operation_xyz
  'x, y, z' 

loop_
_atom_site_label
_atom_site_fract_x
_atom_site_fract_y
_atom_site_fract_z
_atom_site_type_symbol
O      0.00333  0.09664   0.0845     O
O      0.00537  0.93487  0.91599     O
H        0.006   0.8289   0.5111     H
C      0.02288  0.06501  0.67123     C
H       0.0317   0.8398   0.2696     H
C      0.03275  0.37854  0.38216     C
C        0.044   0.1299   0.6075     C
H       0.0489   0.8767   0.7689     H
H       0.0513   0.3398   0.2304     H
O      0.05935   0.4182   0.4262     O
H       0.0678   0.7311   0.3767     H
O      0.06857  0.89995  0.11051     O
Na     0.07419   0.5696  0.59248    Na
O      0.07903  0.10005  0.88949     O
H       0.0849   0.0111   0.6711     H
C       0.1086  0.79876  0.25924     C
C      0.11291  0.89009  0.89149     C
C      0.11409  0.82431  0.76671     C
C      0.11784  0.29876  0.24076     C
H       0.1199   0.1181   0.5639     H
H       0.1215   0.7696   0.6602     H
C      0.12988  0.30261  0.31863     C
C       0.1308  0.73329  0.32431     C
Co     0.13702      0.0      0.0    Co
H       0.1411   0.1602   0.7304     H
C      0.15736  0.75924  0.70124     C
C      0.16129  0.12146  0.88216     C
C      0.16491  0.87854  0.11784     C
C      0.16537  0.81235  0.82671     C
C       0.1666  0.20124  0.74076     C
O      0.17136  0.58401  0.43487     O
H       0.1756   0.2689   0.6233     H
C      0.18249  0.19739  0.81863     C
H       0.1836   0.2745   0.4653     H
O      0.18447  0.90336   0.9155     O
C       0.1884  0.26671  0.67569     C
O      0.19024  0.41599  0.56513     O
H       0.1945   0.2311   0.1233     H
C      0.19851  0.80261  0.18137     C
C      0.20511  0.23329  0.17569     C
H       0.2081   0.2255   0.9653     H
C       0.2177  0.26218  0.83742     C
O      0.21852  0.61051  0.60005     O
C      0.22588   0.2664  0.92024     C
O      0.22755   0.0818   0.9262     O
C      0.22772  0.32671  0.68765     C
C      0.22988  0.23782  0.33742     C
O      0.23555   0.9182   0.0738     O
Na     0.23627   0.4304  0.40752    Na
C      0.24054  0.32743  0.77029     C
C      0.24208  0.67329  0.31235     C
C      0.24228   0.2336  0.42024     C
C      0.25112  0.68137  0.69739     C
C        0.253  0.39149  0.60991     C
C       0.2544  0.60851  0.39009     C
C      0.25912  0.32877  0.93499     C
C      0.26083  0.72971  0.82743     C
H       0.2671   0.3289   0.9889     H
C       0.2736  0.39263  0.78977     C
C       0.2814   0.3925   0.8701     C
H        0.287   0.7531   0.9355     H
H       0.2901   0.4355   0.7469     H
C      0.29345  0.61784  0.62146     C
H       0.3019   0.4361   0.8819     H
C      0.30443  0.17329  0.18765     C
C      0.30512  0.66258  0.76218     C
C      0.31337  0.71023  0.89263     C
C       0.3173  0.73782  0.16258     C
C      0.31797  0.17257  0.27029     C
O      0.33783   0.4155  0.59664     O
C      0.33789  0.17123  0.43499     C
C      0.33826  0.67257  0.22971     C
H        0.346   0.1711   0.4889     H
O      0.34997   0.5845  0.40336     O
O      0.35623  0.08401  0.06513     O
Co     0.38702      0.5      0.5    Co
Na     0.39379   0.9304  0.09248    Na
C      0.39449  0.10851  0.10991     C
C      0.39612  0.57976   0.7664     C
H       0.3989   0.7745   0.0347     H
C       0.4015   0.6299   0.8925     C
O      0.40375   0.5738   0.5818     O
C      0.41252   0.7336  0.07976     C
C      0.41623  0.10737  0.28977     C
Na     0.41667   0.0696  0.90752    Na
H       0.4234   0.5347   0.7255     H
C       0.4239   0.1075   0.3701     C
O      0.42908  0.38949  0.39995     O
H       0.4338   0.6181   0.9361     H
C      0.44411  0.56501  0.82877     C
C        0.456  0.60737  0.21023     C
H       0.4725   0.5645   0.2531     H
H       0.4756   0.0645   0.2469     H
H        0.488   0.0639   0.3819     H
O      0.50333   0.0845  0.09664     O
O      0.50537  0.91599  0.93487     O
H        0.506   0.5111   0.8289     H
C      0.52288  0.67123  0.06501     C
H       0.5317   0.2696   0.8398     H
C      0.53275  0.38216  0.37854     C
C        0.544   0.6075   0.1299     C
H       0.5489   0.7689   0.8767     H
H       0.5513   0.2304   0.3398     H
O      0.55935   0.4262   0.4182     O
H       0.5678   0.3767   0.7311     H
O      0.56857  0.11051  0.89995     O
Na     0.57419  0.59248   0.5696    Na
O      0.57903  0.88949  0.10005     O
H       0.5849   0.6711   0.0111     H
C       0.6086  0.25924  0.79876     C
C      0.61291  0.89149  0.89009     C
C      0.61409  0.76671  0.82431     C
C      0.61784  0.24076  0.29876     C
H       0.6199   0.5639   0.1181     H
H       0.6215   0.6602   0.7696     H
C      0.62988  0.31863  0.30261     C
C       0.6308  0.32431  0.73329     C
Co     0.63702      0.0      0.0    Co
H       0.6411   0.7304   0.1602     H
C      0.65736  0.70124  0.75924     C
C      0.66129  0.88216  0.12146     C
C      0.66491  0.11784  0.87854     C
C      0.66537  0.82671  0.81235     C
C       0.6666  0.74076  0.20124     C
O      0.67136  0.43487  0.58401     O
H       0.6756   0.6233   0.2689     H
C      0.68249  0.81863  0.19739     C
H       0.6836   0.4653   0.2745     H
O      0.68447   0.9155  0.90336     O
C       0.6884  0.67569  0.26671     C
O      0.69024  0.56513  0.41599     O
H       0.6945   0.1233   0.2311     H
C      0.69851  0.18137  0.80261     C
C      0.70511  0.17569  0.23329     C
H       0.7081   0.9653   0.2255     H
C       0.7177  0.83742  0.26218     C
O      0.71852  0.60005  0.61051     O
C      0.72588  0.92024   0.2664     C
O      0.72755   0.9262   0.0818     O
C      0.72772  0.68765  0.32671     C
C      0.72988  0.33742  0.23782     C
O      0.73555   0.0738   0.9182     O
Na     0.73627  0.40752   0.4304    Na
C      0.74054  0.77029  0.32743     C
C      0.74208  0.31235  0.67329     C
C      0.74228  0.42024   0.2336     C
C      0.75112  0.69739  0.68137     C
C        0.753  0.60991  0.39149     C
C       0.7544  0.39009  0.60851     C
C      0.75912  0.93499  0.32877     C
C      0.76083  0.82743  0.72971     C
H       0.7671   0.9889   0.3289     H
C       0.7736  0.78977  0.39263     C
C       0.7814   0.8701   0.3925     C
H        0.787   0.9355   0.7531     H
H       0.7901   0.7469   0.4355     H
C      0.79345  0.62146  0.61784     C
H       0.8019   0.8819   0.4361     H
C      0.80443  0.18765  0.17329     C
C      0.80512  0.76218  0.66258     C
C      0.81337  0.89263  0.71023     C
C       0.8173  0.16258  0.73782     C
C      0.81797  0.27029  0.17257     C
O      0.83783  0.59664   0.4155     O
C      0.83789  0.43499  0.17123     C
C      0.83826  0.22971  0.67257     C
H        0.846   0.4889   0.1711     H
O      0.84997  0.40336   0.5845     O
O      0.85623  0.06513  0.08401     O
Co     0.88702      0.5      0.5    Co
Na     0.89379  0.09248   0.9304    Na
C      0.89449  0.10991  0.10851     C
C      0.89612   0.7664  0.57976     C
H       0.8989   0.0347   0.7745     H
C       0.9015   0.8925   0.6299     C
O      0.90375   0.5818   0.5738     O
C      0.91252  0.07976   0.7336     C
C      0.91623  0.28977  0.10737     C
Na     0.91667  0.90752   0.0696    Na
H       0.9234   0.7255   0.5347     H
C       0.9239   0.3701   0.1075     C
O      0.92908  0.39995  0.38949     O
H       0.9338   0.9361   0.6181     H
C      0.94411  0.82877  0.56501     C
C        0.956  0.21023  0.60737     C
H       0.9725   0.2531   0.5645     H
H       0.9756   0.2469   0.0645     H
H        0.988   0.3819   0.0639     H
