data_I
_chemical_name_common  '/home/zhangsd/repos/MofS-CGCNN/ML/data/SSD/clean_cifs/PEVQOY_clean_h'
_cell_length_a 25.54300
_cell_length_b 25.54300
_cell_length_c 25.54300
_cell_angle_alpha 90.00000
_cell_angle_beta  90.00000
_cell_angle_gamma 90.00000
_space_group_name_H-M_alt      'P 1'


loop_
_space_group_symop_operation_xyz
  'x, y, z' 

loop_
_atom_site_label
_atom_site_fract_x
_atom_site_fract_y
_atom_site_fract_z
_atom_site_type_symbol
C       0.0238   0.2223   0.2223     C
C       0.0238   0.2223   0.7777     C
C       0.0238   0.2777   0.2777     C
C       0.0238   0.2777   0.7223     C
C       0.0238   0.7223   0.2777     C
C       0.0238   0.7223   0.7223     C
C       0.0238   0.7777   0.2223     C
C       0.0238   0.7777   0.7777     C
H         0.04  0.19289  0.19289     H
H         0.04  0.19289  0.80711     H
H         0.04  0.30711  0.30711     H
H         0.04  0.30711  0.69289     H
H         0.04  0.69289  0.30711     H
H         0.04  0.69289  0.69289     H
H         0.04  0.80711  0.19289     H
H         0.04  0.80711  0.80711     H
C       0.0552     0.25     0.25     C
C       0.0552     0.25     0.75     C
C       0.0552     0.75     0.25     C
C       0.0552     0.75     0.75     C
C       0.1126     0.25     0.25     C
C       0.1126     0.25     0.75     C
C       0.1126     0.75     0.25     C
C       0.1126     0.75     0.75     C
O       0.1343   0.2176   0.2176     O
O       0.1343   0.2176   0.7824     O
O       0.1343   0.2824   0.2824     O
O       0.1343   0.2824   0.7176     O
O       0.1343   0.7176   0.2824     O
O       0.1343   0.7176   0.7176     O
O       0.1343   0.7824   0.2176     O
O       0.1343   0.7824   0.7824     O
H      0.19289     0.04  0.19289     H
H      0.19289     0.04  0.80711     H
H      0.19289  0.19289     0.04     H
H      0.19289  0.19289     0.96     H
H      0.19289  0.30711     0.46     H
H      0.19289  0.30711     0.54     H
H      0.19289     0.46  0.30711     H
H      0.19289     0.46  0.69289     H
H      0.19289     0.54  0.30711     H
H      0.19289     0.54  0.69289     H
H      0.19289  0.69289     0.46     H
H      0.19289  0.69289     0.54     H
H      0.19289  0.80711     0.04     H
H      0.19289  0.80711     0.96     H
H      0.19289     0.96  0.19289     H
H      0.19289     0.96  0.80711     H
Zn     0.20632  0.20632  0.20632    Zn
Zn     0.20632  0.20632  0.79368    Zn
Zn     0.20632  0.29368  0.29368    Zn
Zn     0.20632  0.29368  0.70632    Zn
Zn     0.20632  0.70632  0.29368    Zn
Zn     0.20632  0.70632  0.70632    Zn
Zn     0.20632  0.79368  0.20632    Zn
Zn     0.20632  0.79368  0.79368    Zn
O       0.2176   0.1343   0.2176     O
O       0.2176   0.1343   0.7824     O
O       0.2176   0.2176   0.1343     O
O       0.2176   0.2176   0.8657     O
O       0.2176   0.2824   0.3657     O
O       0.2176   0.2824   0.6343     O
O       0.2176   0.3657   0.2824     O
O       0.2176   0.3657   0.7176     O
O       0.2176   0.6343   0.2824     O
O       0.2176   0.6343   0.7176     O
O       0.2176   0.7176   0.3657     O
O       0.2176   0.7176   0.6343     O
O       0.2176   0.7824   0.1343     O
O       0.2176   0.7824   0.8657     O
O       0.2176   0.8657   0.2176     O
O       0.2176   0.8657   0.7824     O
C       0.2223   0.0238   0.2223     C
C       0.2223   0.0238   0.7777     C
C       0.2223   0.2223   0.0238     C
C       0.2223   0.2223   0.9762     C
C       0.2223   0.2777   0.4762     C
C       0.2223   0.2777   0.5238     C
C       0.2223   0.4762   0.2777     C
C       0.2223   0.4762   0.7223     C
C       0.2223   0.5238   0.2777     C
C       0.2223   0.5238   0.7223     C
C       0.2223   0.7223   0.4762     C
C       0.2223   0.7223   0.5238     C
C       0.2223   0.7777   0.0238     C
C       0.2223   0.7777   0.9762     C
C       0.2223   0.9762   0.2223     C
C       0.2223   0.9762   0.7777     C
C         0.25   0.0552     0.25     C
C         0.25   0.0552     0.75     C
C         0.25   0.1126     0.25     C
C         0.25   0.1126     0.75     C
C         0.25     0.25   0.0552     C
C         0.25     0.25   0.1126     C
O         0.25     0.25     0.25     O
C         0.25     0.25   0.3874     C
C         0.25     0.25   0.4448     C
C         0.25     0.25   0.5552     C
C         0.25     0.25   0.6126     C
O         0.25     0.25     0.75     O
C         0.25     0.25   0.8874     C
C         0.25     0.25   0.9448     C
C         0.25   0.3874     0.25     C
C         0.25   0.3874     0.75     C
C         0.25   0.4448     0.25     C
C         0.25   0.4448     0.75     C
C         0.25   0.5552     0.25     C
C         0.25   0.5552     0.75     C
C         0.25   0.6126     0.25     C
C         0.25   0.6126     0.75     C
C         0.25     0.75   0.0552     C
C         0.25     0.75   0.1126     C
O         0.25     0.75     0.25     O
C         0.25     0.75   0.3874     C
C         0.25     0.75   0.4448     C
C         0.25     0.75   0.5552     C
C         0.25     0.75   0.6126     C
O         0.25     0.75     0.75     O
C         0.25     0.75   0.8874     C
C         0.25     0.75   0.9448     C
C         0.25   0.8874     0.25     C
C         0.25   0.8874     0.75     C
C         0.25   0.9448     0.25     C
C         0.25   0.9448     0.75     C
C       0.2777   0.0238   0.2777     C
C       0.2777   0.0238   0.7223     C
C       0.2777   0.2223   0.4762     C
C       0.2777   0.2223   0.5238     C
C       0.2777   0.2777   0.0238     C
C       0.2777   0.2777   0.9762     C
C       0.2777   0.4762   0.2223     C
C       0.2777   0.4762   0.7777     C
C       0.2777   0.5238   0.2223     C
C       0.2777   0.5238   0.7777     C
C       0.2777   0.7223   0.0238     C
C       0.2777   0.7223   0.9762     C
C       0.2777   0.7777   0.4762     C
C       0.2777   0.7777   0.5238     C
C       0.2777   0.9762   0.2777     C
C       0.2777   0.9762   0.7223     C
O       0.2824   0.1343   0.2824     O
O       0.2824   0.1343   0.7176     O
O       0.2824   0.2176   0.3657     O
O       0.2824   0.2176   0.6343     O
O       0.2824   0.2824   0.1343     O
O       0.2824   0.2824   0.8657     O
O       0.2824   0.3657   0.2176     O
O       0.2824   0.3657   0.7824     O
O       0.2824   0.6343   0.2176     O
O       0.2824   0.6343   0.7824     O
O       0.2824   0.7176   0.1343     O
O       0.2824   0.7176   0.8657     O
O       0.2824   0.7824   0.3657     O
O       0.2824   0.7824   0.6343     O
O       0.2824   0.8657   0.2824     O
O       0.2824   0.8657   0.7176     O
Zn     0.29368  0.20632  0.29368    Zn
Zn     0.29368  0.20632  0.70632    Zn
Zn     0.29368  0.29368  0.20632    Zn
Zn     0.29368  0.29368  0.79368    Zn
Zn     0.29368  0.70632  0.20632    Zn
Zn     0.29368  0.70632  0.79368    Zn
Zn     0.29368  0.79368  0.29368    Zn
Zn     0.29368  0.79368  0.70632    Zn
H      0.30711     0.04  0.30711     H
H      0.30711     0.04  0.69289     H
H      0.30711  0.19289     0.46     H
H      0.30711  0.19289     0.54     H
H      0.30711  0.30711     0.04     H
H      0.30711  0.30711     0.96     H
H      0.30711     0.46  0.19289     H
H      0.30711     0.46  0.80711     H
H      0.30711     0.54  0.19289     H
H      0.30711     0.54  0.80711     H
H      0.30711  0.69289     0.04     H
H      0.30711  0.69289     0.96     H
H      0.30711  0.80711     0.46     H
H      0.30711  0.80711     0.54     H
H      0.30711     0.96  0.30711     H
H      0.30711     0.96  0.69289     H
O       0.3657   0.2176   0.2824     O
O       0.3657   0.2176   0.7176     O
O       0.3657   0.2824   0.2176     O
O       0.3657   0.2824   0.7824     O
O       0.3657   0.7176   0.2176     O
O       0.3657   0.7176   0.7824     O
O       0.3657   0.7824   0.2824     O
O       0.3657   0.7824   0.7176     O
C       0.3874     0.25     0.25     C
C       0.3874     0.25     0.75     C
C       0.3874     0.75     0.25     C
C       0.3874     0.75     0.75     C
C       0.4448     0.25     0.25     C
C       0.4448     0.25     0.75     C
C       0.4448     0.75     0.25     C
C       0.4448     0.75     0.75     C
H         0.46  0.19289  0.30711     H
H         0.46  0.19289  0.69289     H
H         0.46  0.30711  0.19289     H
H         0.46  0.30711  0.80711     H
H         0.46  0.69289  0.19289     H
H         0.46  0.69289  0.80711     H
H         0.46  0.80711  0.30711     H
H         0.46  0.80711  0.69289     H
C       0.4762   0.2223   0.2777     C
C       0.4762   0.2223   0.7223     C
C       0.4762   0.2777   0.2223     C
C       0.4762   0.2777   0.7777     C
C       0.4762   0.7223   0.2223     C
C       0.4762   0.7223   0.7777     C
C       0.4762   0.7777   0.2777     C
C       0.4762   0.7777   0.7223     C
C       0.5238   0.2223   0.2777     C
C       0.5238   0.2223   0.7223     C
C       0.5238   0.2777   0.2223     C
C       0.5238   0.2777   0.7777     C
C       0.5238   0.7223   0.2223     C
C       0.5238   0.7223   0.7777     C
C       0.5238   0.7777   0.2777     C
C       0.5238   0.7777   0.7223     C
H         0.54  0.19289  0.30711     H
H         0.54  0.19289  0.69289     H
H         0.54  0.30711  0.19289     H
H         0.54  0.30711  0.80711     H
H         0.54  0.69289  0.19289     H
H         0.54  0.69289  0.80711     H
H         0.54  0.80711  0.30711     H
H         0.54  0.80711  0.69289     H
C       0.5552     0.25     0.25     C
C       0.5552     0.25     0.75     C
C       0.5552     0.75     0.25     C
C       0.5552     0.75     0.75     C
C       0.6126     0.25     0.25     C
C       0.6126     0.25     0.75     C
C       0.6126     0.75     0.25     C
C       0.6126     0.75     0.75     C
O       0.6343   0.2176   0.2824     O
O       0.6343   0.2176   0.7176     O
O       0.6343   0.2824   0.2176     O
O       0.6343   0.2824   0.7824     O
O       0.6343   0.7176   0.2176     O
O       0.6343   0.7176   0.7824     O
O       0.6343   0.7824   0.2824     O
O       0.6343   0.7824   0.7176     O
H      0.69289     0.04  0.30711     H
H      0.69289     0.04  0.69289     H
H      0.69289  0.19289     0.46     H
H      0.69289  0.19289     0.54     H
H      0.69289  0.30711     0.04     H
H      0.69289  0.30711     0.96     H
H      0.69289     0.46  0.19289     H
H      0.69289     0.46  0.80711     H
H      0.69289     0.54  0.19289     H
H      0.69289     0.54  0.80711     H
H      0.69289  0.69289     0.04     H
H      0.69289  0.69289     0.96     H
H      0.69289  0.80711     0.46     H
H      0.69289  0.80711     0.54     H
H      0.69289     0.96  0.30711     H
H      0.69289     0.96  0.69289     H
Zn     0.70632  0.20632  0.29368    Zn
Zn     0.70632  0.20632  0.70632    Zn
Zn     0.70632  0.29368  0.20632    Zn
Zn     0.70632  0.29368  0.79368    Zn
Zn     0.70632  0.70632  0.20632    Zn
Zn     0.70632  0.70632  0.79368    Zn
Zn     0.70632  0.79368  0.29368    Zn
Zn     0.70632  0.79368  0.70632    Zn
O       0.7176   0.1343   0.2824     O
O       0.7176   0.1343   0.7176     O
O       0.7176   0.2176   0.3657     O
O       0.7176   0.2176   0.6343     O
O       0.7176   0.2824   0.1343     O
O       0.7176   0.2824   0.8657     O
O       0.7176   0.3657   0.2176     O
O       0.7176   0.3657   0.7824     O
O       0.7176   0.6343   0.2176     O
O       0.7176   0.6343   0.7824     O
O       0.7176   0.7176   0.1343     O
O       0.7176   0.7176   0.8657     O
O       0.7176   0.7824   0.3657     O
O       0.7176   0.7824   0.6343     O
O       0.7176   0.8657   0.2824     O
O       0.7176   0.8657   0.7176     O
C       0.7223   0.0238   0.2777     C
C       0.7223   0.0238   0.7223     C
C       0.7223   0.2223   0.4762     C
C       0.7223   0.2223   0.5238     C
C       0.7223   0.2777   0.0238     C
C       0.7223   0.2777   0.9762     C
C       0.7223   0.4762   0.2223     C
C       0.7223   0.4762   0.7777     C
C       0.7223   0.5238   0.2223     C
C       0.7223   0.5238   0.7777     C
C       0.7223   0.7223   0.0238     C
C       0.7223   0.7223   0.9762     C
C       0.7223   0.7777   0.4762     C
C       0.7223   0.7777   0.5238     C
C       0.7223   0.9762   0.2777     C
C       0.7223   0.9762   0.7223     C
C         0.75   0.0552     0.25     C
C         0.75   0.0552     0.75     C
C         0.75   0.1126     0.25     C
C         0.75   0.1126     0.75     C
C         0.75     0.25   0.0552     C
C         0.75     0.25   0.1126     C
O         0.75     0.25     0.25     O
C         0.75     0.25   0.3874     C
C         0.75     0.25   0.4448     C
C         0.75     0.25   0.5552     C
C         0.75     0.25   0.6126     C
O         0.75     0.25     0.75     O
C         0.75     0.25   0.8874     C
C         0.75     0.25   0.9448     C
C         0.75   0.3874     0.25     C
C         0.75   0.3874     0.75     C
C         0.75   0.4448     0.25     C
C         0.75   0.4448     0.75     C
C         0.75   0.5552     0.25     C
C         0.75   0.5552     0.75     C
C         0.75   0.6126     0.25     C
C         0.75   0.6126     0.75     C
C         0.75     0.75   0.0552     C
C         0.75     0.75   0.1126     C
O         0.75     0.75     0.25     O
C         0.75     0.75   0.3874     C
C         0.75     0.75   0.4448     C
C         0.75     0.75   0.5552     C
C         0.75     0.75   0.6126     C
O         0.75     0.75     0.75     O
C         0.75     0.75   0.8874     C
C         0.75     0.75   0.9448     C
C         0.75   0.8874     0.25     C
C         0.75   0.8874     0.75     C
C         0.75   0.9448     0.25     C
C         0.75   0.9448     0.75     C
C       0.7777   0.0238   0.2223     C
C       0.7777   0.0238   0.7777     C
C       0.7777   0.2223   0.0238     C
C       0.7777   0.2223   0.9762     C
C       0.7777   0.2777   0.4762     C
C       0.7777   0.2777   0.5238     C
C       0.7777   0.4762   0.2777     C
C       0.7777   0.4762   0.7223     C
C       0.7777   0.5238   0.2777     C
C       0.7777   0.5238   0.7223     C
C       0.7777   0.7223   0.4762     C
C       0.7777   0.7223   0.5238     C
C       0.7777   0.7777   0.0238     C
C       0.7777   0.7777   0.9762     C
C       0.7777   0.9762   0.2223     C
C       0.7777   0.9762   0.7777     C
O       0.7824   0.1343   0.2176     O
O       0.7824   0.1343   0.7824     O
O       0.7824   0.2176   0.1343     O
O       0.7824   0.2176   0.8657     O
O       0.7824   0.2824   0.3657     O
O       0.7824   0.2824   0.6343     O
O       0.7824   0.3657   0.2824     O
O       0.7824   0.3657   0.7176     O
O       0.7824   0.6343   0.2824     O
O       0.7824   0.6343   0.7176     O
O       0.7824   0.7176   0.3657     O
O       0.7824   0.7176   0.6343     O
O       0.7824   0.7824   0.1343     O
O       0.7824   0.7824   0.8657     O
O       0.7824   0.8657   0.2176     O
O       0.7824   0.8657   0.7824     O
Zn     0.79368  0.20632  0.20632    Zn
Zn     0.79368  0.20632  0.79368    Zn
Zn     0.79368  0.29368  0.29368    Zn
Zn     0.79368  0.29368  0.70632    Zn
Zn     0.79368  0.70632  0.29368    Zn
Zn     0.79368  0.70632  0.70632    Zn
Zn     0.79368  0.79368  0.20632    Zn
Zn     0.79368  0.79368  0.79368    Zn
H      0.80711     0.04  0.19289     H
H      0.80711     0.04  0.80711     H
H      0.80711  0.19289     0.04     H
H      0.80711  0.19289     0.96     H
H      0.80711  0.30711     0.46     H
H      0.80711  0.30711     0.54     H
H      0.80711     0.46  0.30711     H
H      0.80711     0.46  0.69289     H
H      0.80711     0.54  0.30711     H
H      0.80711     0.54  0.69289     H
H      0.80711  0.69289     0.46     H
H      0.80711  0.69289     0.54     H
H      0.80711  0.80711     0.04     H
H      0.80711  0.80711     0.96     H
H      0.80711     0.96  0.19289     H
H      0.80711     0.96  0.80711     H
O       0.8657   0.2176   0.2176     O
O       0.8657   0.2176   0.7824     O
O       0.8657   0.2824   0.2824     O
O       0.8657   0.2824   0.7176     O
O       0.8657   0.7176   0.2824     O
O       0.8657   0.7176   0.7176     O
O       0.8657   0.7824   0.2176     O
O       0.8657   0.7824   0.7824     O
C       0.8874     0.25     0.25     C
C       0.8874     0.25     0.75     C
C       0.8874     0.75     0.25     C
C       0.8874     0.75     0.75     C
C       0.9448     0.25     0.25     C
C       0.9448     0.25     0.75     C
C       0.9448     0.75     0.25     C
C       0.9448     0.75     0.75     C
H         0.96  0.19289  0.19289     H
H         0.96  0.19289  0.80711     H
H         0.96  0.30711  0.30711     H
H         0.96  0.30711  0.69289     H
H         0.96  0.69289  0.30711     H
H         0.96  0.69289  0.69289     H
H         0.96  0.80711  0.19289     H
H         0.96  0.80711  0.80711     H
C       0.9762   0.2223   0.2223     C
C       0.9762   0.2223   0.7777     C
C       0.9762   0.2777   0.2777     C
C       0.9762   0.2777   0.7223     C
C       0.9762   0.7223   0.2777     C
C       0.9762   0.7223   0.7223     C
C       0.9762   0.7777   0.2223     C
C       0.9762   0.7777   0.7777     C
