data_I
_chemical_name_common  '/home/zhangsd/repos/MofS-CGCNN/ML/data/SSD/clean_cifs/PIGHIX01_clean'
_cell_length_a 13.33300
_cell_length_b 22.71040
_cell_length_c 18.46810
_cell_angle_alpha 90.00000
_cell_angle_beta  109.12700
_cell_angle_gamma 90.00000
_space_group_name_H-M_alt      'P 1'


loop_
_space_group_symop_operation_xyz
  'x, y, z' 

loop_
_atom_site_label
_atom_site_fract_x
_atom_site_fract_y
_atom_site_fract_z
_atom_site_type_symbol
C       0.0012  0.21731   0.6355     C
C       0.0012  0.28269   0.1355     C
H       0.0039   0.6448   0.3829     H
H       0.0039   0.8552   0.8829     H
C       0.0067  0.03139   0.9996     C
C       0.0067  0.46861   0.4996     C
N       0.0135  0.22916  0.10587     N
N       0.0135  0.27084  0.60587     N
C       0.0137  0.68192   0.3637     C
C       0.0137  0.81808   0.8637     C
C       0.0169  0.62932   0.5618     C
C       0.0169  0.87068   0.0618     C
C       0.0193  0.56447   0.5635     C
C       0.0193  0.93553   0.0635     C
C       0.0219  0.11038   0.6294     C
C       0.0219  0.38962   0.1294     C
C       0.0219   0.6052   0.8097     C
C       0.0219   0.8948   0.3097     C
H       0.0288   0.5677   0.7905     H
H       0.0288   0.9323   0.2905     H
C       0.0349  0.16699   0.6033     C
C       0.0349  0.33301   0.1033     C
H       0.0358   0.0505    0.047     H
H       0.0358   0.4495    0.547     H
H       0.0401   0.5455   0.6114     H
H       0.0401   0.9545   0.1114     H
C       0.0427   0.7109   0.8057     C
C       0.0427   0.7891   0.3057     C
H       0.0483   0.0244   0.6083     H
H       0.0483   0.4756   0.1083     H
C       0.0532   0.6525   0.7794     C
C       0.0532   0.8475   0.2794     C
C       0.0549  0.06338   0.5932     C
C       0.0549  0.43662   0.0932     C
O      0.05509    0.153  0.99465     O
O      0.05509    0.347  0.49465     O
C       0.0565   0.6848   0.3042     C
C       0.0565   0.8152   0.8042     C
Cu     0.06278  0.23727  0.01493    Cu
Cu     0.06278  0.26273  0.51493    Cu
C       0.0719   0.7377   0.2762     C
C       0.0719   0.7623   0.7762     C
H       0.0745     0.65   0.2837     H
H       0.0745     0.85   0.7837     H
N       0.0759  0.17719  0.54651     N
N       0.0759  0.32281  0.04651     N
H       0.0828   0.6472     0.74     H
H       0.0828   0.8528     0.24     H
O       0.0849  0.65651  0.61273     O
O       0.0849  0.84349  0.11273     O
C       0.0961  0.07412   0.5365     C
C       0.0961  0.42588   0.0365     C
H       0.1021     0.74   0.2369     H
H       0.1021     0.76   0.7369     H
C       0.1056  0.13173   0.5137     C
C       0.1056  0.36827   0.0137     C
O        0.117  0.24255  0.43308     O
O        0.117  0.25745  0.93308     O
H       0.1183   0.0426   0.5125     H
H       0.1183   0.4574   0.0125     H
H       0.1339   0.1384    0.474     H
H       0.1339   0.3616    0.974     H
H       0.1651   0.1976   0.3248     H
H       0.1651   0.3024   0.8248     H
C       0.1836  0.23539  0.90587     C
C       0.1836  0.26461  0.40587     C
H        0.191   0.0259   0.7557     H
H        0.191   0.4741   0.2557     H
C       0.1952  0.23516  0.33822     C
C       0.1952  0.26484  0.83822     C
C       0.2033  0.02125   0.8085     C
C       0.2033  0.47875   0.3085     C
H       0.2052   0.1081   0.8318     H
H       0.2052   0.3919   0.3318     H
H        0.207   0.5667   0.3076     H
H        0.207   0.9333   0.8076     H
C        0.212  0.07062   0.8545     C
C        0.212  0.42938   0.3545     C
C       0.2124  0.53347    0.339     C
C       0.2124  0.96653    0.839     C
H       0.2286   0.1952    0.214     H
H       0.2286   0.3048    0.714     H
N       0.2296  0.06678  0.92918     N
N       0.2296  0.43322  0.42918     N
C         0.23  0.54018    0.418     C
C         0.23  0.95982    0.918     C
H       0.2358   0.6304   0.4301     H
H       0.2358   0.8696   0.9301     H
C       0.2395  0.01195  0.96074     C
C       0.2395  0.48805  0.46074     C
O      0.23975  0.19043  0.93012     O
O      0.23975  0.30957  0.43012     O
C       0.2413  0.59516   0.4578     C
C       0.2413  0.90484   0.9578     C
C       0.2466   0.2404  0.79538     C
C       0.2466   0.2596  0.29538     C
Cu     0.25066  0.13083  0.00728    Cu
Cu     0.25066  0.36917  0.50728    Cu
C       0.2583  0.23271  0.22823     C
C       0.2583  0.26729  0.72823     C
C       0.2594  0.59758   0.5337     C
C       0.2594  0.90242   0.0337     C
C       0.2604  0.00911  0.04184     C
C       0.2604  0.49089  0.54184     C
O      0.26457  0.18533  0.09035     O
O      0.26457  0.31467  0.59035     O
H       0.2653   0.6345   0.5578     H
H       0.2653   0.8655   0.0578     H
C         0.27  0.54504   0.5788     C
C         0.27  0.95496   0.0788     C
N       0.2702   0.0618  0.07859     N
N       0.2702   0.4382  0.57859     N
H       0.2773   0.2031   0.8099     H
H       0.2773   0.2969   0.3099     H
C       0.2867  0.06097  0.15356     C
C       0.2867  0.43903  0.65356     C
C       0.2869  0.54396   0.6581     C
C       0.2869  0.95604   0.1581     C
H       0.2922   0.5793   0.6857     H
H       0.2922   0.9207   0.1857     H
H       0.2927   0.0969   0.1799     H
H       0.2927   0.4031   0.6799     H
C       0.2953  0.00871   0.1942     C
C       0.2953  0.49129   0.6942     C
H        0.307   0.0098   0.2472     H
H        0.307   0.4902   0.7472     H
C       0.3088  0.24201  0.68512     C
C       0.3088  0.25799  0.18512     C
C       0.3222   0.2294  0.11711     C
C       0.3222   0.2706  0.61711     C
H       0.3374   0.2042   0.6986     H
H       0.3374   0.2958   0.1986     H
H       0.3536   0.0465   0.5181     H
H       0.3536   0.4535   0.0181     H
H        0.359   0.1447   0.5552     H
H        0.359   0.3553   0.0552     H
C       0.3811  0.07526    0.493     C
C       0.3811  0.42474    0.993     C
C       0.3837  0.13441   0.5147     C
C       0.3837  0.36559   0.0147     C
O        0.389   0.2481   0.5911     O
O        0.389   0.2519   0.0911     O
H       0.3988   0.7373   0.2433     H
H       0.3988   0.7627   0.7433     H
H        0.413   0.6695   0.7005     H
H        0.413   0.8305   0.2005     H
H       0.4168   0.0199   0.4203     H
H       0.4168   0.4801   0.9203     H
C       0.4187  0.05952   0.4353     C
C       0.4187  0.44048   0.9353     C
O       0.4194  0.64936  0.36822     O
O       0.4194  0.85064  0.86822     O
N       0.4197  0.17629  0.48016     N
N       0.4197  0.32371  0.98016     N
C       0.4275   0.7431   0.2036     C
C       0.4275   0.7569   0.7036     C
H       0.4342   0.6257   0.2351     H
H       0.4342   0.8743   0.7351     H
C        0.435   0.7019   0.6779     C
C        0.435   0.7981   0.1779     C
Cu     0.44228   0.2374  0.00671    Cu
Cu     0.44228   0.2626  0.50671    Cu
O       0.4501   0.1522  0.01846     O
O       0.4501   0.3478  0.51846     O
C       0.4576  0.16077    0.423     C
C       0.4576  0.33923    0.923     C
C       0.4601  0.10245   0.3987     C
C       0.4601  0.39755   0.8987     C
C       0.4614   0.6346   0.1954     C
C       0.4614   0.8654   0.6954     C
H        0.462   0.5381   0.3849     H
H        0.462   0.9619   0.8849     H
C       0.4622   0.6947   0.1713     C
C       0.4622   0.8053   0.6713     C
H       0.4665   0.0532   0.9578     H
H       0.4665   0.4468   0.4578     H
C       0.4756  0.69311   0.6178     C
C       0.4756  0.80689   0.1178     C
H       0.4797   0.6546   0.6002     H
H       0.4797   0.8454   0.1002     H
C       0.4815   0.5602   0.4305     C
C       0.4815   0.9398   0.9305     C
C       0.4832  0.62507   0.4247     C
C       0.4832  0.87493   0.9247     C
N       0.4918  0.23741   0.9149     N
N       0.4918  0.26259   0.4149     N
C       0.4938  0.03133   0.0033     C
C       0.4938  0.46867   0.5033     C
C       0.4969  0.20698  0.38822     C
C       0.4969  0.29302  0.88822     C
H       0.4979   0.5522   0.1794     H
H       0.4979   0.9478   0.6794     H
C       0.4989    0.591   0.1621     C
C       0.4989    0.909   0.6621     C
C       0.5011    0.091   0.3379     C
C       0.5011    0.409   0.8379     C
H       0.5021   0.0522   0.3206     H
H       0.5021   0.4478   0.8206     H
C       0.5031  0.70698  0.11178     C
C       0.5031  0.79302  0.61178     C
C       0.5062  0.53133   0.4967     C
C       0.5062  0.96867   0.9967     C
N       0.5082  0.73741   0.5851     N
N       0.5082  0.76259   0.0851     N
C       0.5168  0.12507   0.0753     C
C       0.5168  0.37493   0.5753     C
C       0.5185   0.0602   0.0695     C
C       0.5185   0.4398   0.5695     C
H       0.5203   0.1546   0.8998     H
H       0.5203   0.3454   0.3998     H
C       0.5244  0.19311   0.8822     C
C       0.5244  0.30689   0.3822     C
H       0.5335   0.5532   0.5422     H
H       0.5335   0.9468   0.0422     H
C       0.5378   0.1947   0.3287     C
C       0.5378   0.3053   0.8287     C
H        0.538   0.0381   0.1151     H
H        0.538   0.4619   0.6151     H
C       0.5386   0.1346   0.3046     C
C       0.5386   0.3654   0.8046     C
C       0.5399  0.60245   0.1013     C
C       0.5399  0.89755   0.6013     C
C       0.5424  0.66077    0.077     C
C       0.5424  0.83923    0.577     C
O       0.5499   0.6522  0.48154     O
O       0.5499   0.8478  0.98154     O
Cu     0.55772   0.7374  0.49329    Cu
Cu     0.55772   0.7626  0.99329    Cu
C        0.565   0.2019   0.8221     C
C        0.565   0.2981   0.3221     C
H       0.5658   0.1257   0.2649     H
H       0.5658   0.3743   0.7649     H
C       0.5725   0.2431   0.2964     C
C       0.5725   0.2569   0.7964     C
N       0.5803  0.67629  0.01984     N
N       0.5803  0.82371  0.51984     N
O       0.5806  0.14936  0.13178     O
O       0.5806  0.35064  0.63178     O
C       0.5813  0.55952   0.0647     C
C       0.5813  0.94048   0.5647     C
H       0.5832   0.5199   0.0797     H
H       0.5832   0.9801   0.5797     H
H        0.587   0.1695   0.7995     H
H        0.587   0.3305   0.2995     H
H       0.6012   0.2373   0.2567     H
H       0.6012   0.2627   0.7567     H
O        0.611   0.7481   0.9089     O
O        0.611   0.7519   0.4089     O
C       0.6163  0.63441   0.9853     C
C       0.6163  0.86559   0.4853     C
C       0.6189  0.57526    0.007     C
C       0.6189  0.92474    0.507     C
H        0.641   0.6447   0.9448     H
H        0.641   0.8553   0.4448     H
H       0.6464   0.5465   0.9819     H
H       0.6464   0.9535   0.4819     H
H       0.6626   0.7042   0.8014     H
H       0.6626   0.7958   0.3014     H
C       0.6778   0.7294  0.38289     C
C       0.6778   0.7706  0.88289     C
C       0.6912  0.74201  0.81488     C
C       0.6912  0.75799  0.31488     C
H        0.693   0.5098   0.2528     H
H        0.693   0.9902   0.7528     H
C       0.7047  0.50871   0.3058     C
C       0.7047  0.99129   0.8058     C
H       0.7073   0.5969   0.3201     H
H       0.7073   0.9031   0.8201     H
H       0.7078   0.0793   0.8143     H
H       0.7078   0.4207   0.3143     H
C       0.7131  0.04396   0.8419     C
C       0.7131  0.45604   0.3419     C
C       0.7133  0.56097  0.34644     C
C       0.7133  0.93903  0.84644     C
H       0.7227   0.7031   0.6901     H
H       0.7227   0.7969   0.1901     H
N       0.7298   0.5618  0.42141     N
N       0.7298   0.9382  0.92141     N
C         0.73  0.04504   0.9212     C
C         0.73  0.45496   0.4212     C
H       0.7347   0.1345   0.9422     H
H       0.7347   0.3655   0.4422     H
O      0.73543  0.68533  0.40965     O
O      0.73543  0.81467  0.90965     O
C       0.7396  0.50911  0.45816     C
C       0.7396  0.99089  0.95816     C
C       0.7406  0.09758   0.9663     C
C       0.7406  0.40242   0.4663     C
C       0.7417  0.73271  0.27177     C
C       0.7417  0.76729  0.77177     C
Cu     0.74934  0.63083  0.49272    Cu
Cu     0.74934  0.86917  0.99272    Cu
C       0.7534   0.7404  0.70462     C
C       0.7534   0.7596  0.20462     C
C       0.7587  0.09516   0.0422     C
C       0.7587  0.40484   0.5422     C
O      0.76025  0.69043  0.56988     O
O      0.76025  0.80957  0.06988     O
C       0.7605  0.51195  0.53926     C
C       0.7605  0.98805  0.03926     C
H       0.7642   0.1304   0.0699     H
H       0.7642   0.3696   0.5699     H
C         0.77  0.04018    0.082     C
C         0.77  0.45982    0.582     C
N       0.7704  0.56678  0.57082     N
N       0.7704  0.93322  0.07082     N
H       0.7714   0.6952    0.286     H
H       0.7714   0.8048    0.786     H
C       0.7876  0.03347    0.161     C
C       0.7876  0.46653    0.661     C
C        0.788  0.57062   0.6455     C
C        0.788  0.92938   0.1455     C
H        0.793   0.0667   0.1924     H
H        0.793   0.4333   0.6924     H
H       0.7948   0.6081   0.6682     H
H       0.7948   0.8919   0.1682     H
C       0.7967  0.52125   0.6915     C
C       0.7967  0.97875   0.1915     C
C       0.8048  0.73516  0.16178     C
C       0.8048  0.76484  0.66178     C
H        0.809   0.5259   0.7443     H
H        0.809   0.9741   0.2443     H
C       0.8164  0.73539  0.59413     C
C       0.8164  0.76461  0.09413     C
H       0.8349   0.6976   0.1752     H
H       0.8349   0.8024   0.6752     H
H       0.8661   0.6384    0.026     H
H       0.8661   0.8616    0.526     H
H       0.8817   0.5426   0.9875     H
H       0.8817   0.9574   0.4875     H
O        0.883  0.74255  0.06692     O
O        0.883  0.75745  0.56692     O
C       0.8944  0.63173   0.9863     C
C       0.8944  0.86827   0.4863     C
H       0.8979     0.24   0.2631     H
H       0.8979     0.26   0.7631     H
C       0.9039  0.57412   0.9635     C
C       0.9039  0.92588   0.4635     C
O       0.9151  0.15651  0.88727     O
O       0.9151  0.34349  0.38727     O
H       0.9172   0.1472     0.76     H
H       0.9172   0.3528     0.26     H
N       0.9241  0.67719  0.95349     N
N       0.9241  0.82281  0.45349     N
H       0.9255     0.15   0.2163     H
H       0.9255     0.35   0.7163     H
C       0.9281   0.2377   0.2238     C
C       0.9281   0.2623   0.7238     C
Cu     0.93722  0.73727  0.48507    Cu
Cu     0.93722  0.76273  0.98507    Cu
C       0.9435   0.1848   0.1958     C
C       0.9435   0.3152   0.6958     C
O      0.94491    0.653  0.50535     O
O      0.94491    0.847  0.00535     O
C       0.9451  0.56338   0.9068     C
C       0.9451  0.93662   0.4068     C
C       0.9468   0.1525   0.7206     C
C       0.9468   0.3475   0.2206     C
H       0.9517   0.5244   0.8917     H
H       0.9517   0.9756   0.3917     H
C       0.9573   0.2109   0.6943     C
C       0.9573   0.2891   0.1943     C
H       0.9599   0.0455   0.8886     H
H       0.9599   0.4545   0.3886     H
H       0.9642   0.5505    0.453     H
H       0.9642   0.9495    0.953     H
C       0.9651  0.66699   0.8967     C
C       0.9651  0.83301   0.3967     C
H       0.9712   0.0677   0.7095     H
H       0.9712   0.4323   0.2095     H
C       0.9781   0.1052   0.6903     C
C       0.9781   0.3948   0.1903     C
C       0.9781  0.61038   0.8706     C
C       0.9781  0.88962   0.3706     C
C       0.9807  0.06447   0.9365     C
C       0.9807  0.43553   0.4365     C
C       0.9831  0.12932   0.9382     C
C       0.9831  0.37068   0.4382     C
C       0.9863  0.18192   0.1363     C
C       0.9863  0.31808   0.6363     C
N       0.9865  0.72916  0.39413     N
N       0.9865  0.77084  0.89413     N
C       0.9933  0.53139   0.5004     C
C       0.9933  0.96861   0.0004     C
H       0.9961   0.1448   0.1171     H
H       0.9961   0.3552   0.6171     H
C       0.9988  0.71731   0.8645     C
C       0.9988  0.78269   0.3645     C
