data_I
_chemical_name_common  '/home/zhangsd/repos/MofS-CGCNN/ML/data/SSD/clean_cifs/PIHNUQ_clean'
_cell_length_a 10.36300
_cell_length_b 12.74280
_cell_length_c 12.74280
_cell_angle_alpha 107.82200
_cell_angle_beta  93.20490
_cell_angle_gamma 86.79510
_space_group_name_H-M_alt      'P 1'


loop_
_space_group_symop_operation_xyz
  'x, y, z' 

loop_
_atom_site_label
_atom_site_fract_x
_atom_site_fract_y
_atom_site_fract_z
_atom_site_type_symbol
C       0.0122   0.1502   0.5358     C
C       0.0324    0.612   0.2032     C
C       0.0332   0.2231   0.6401     C
C       0.0366   0.9934    0.948     C
O       0.0449  0.66716  0.94204     O
O       0.0482  0.35637  0.86033     O
C       0.0537   0.6887   0.3159     C
C       0.0576   0.0128   0.1484     C
H       0.0634   0.8521   0.1381     H
H       0.0723    0.093   0.5072     H
H       0.0816   0.1756   0.1942     H
H       0.0913   0.0556   0.9594     H
H       0.0915   0.9267   0.9321     H
O       0.0961  0.52136  0.17736     O
C       0.0984   0.9197   0.1755     C
C       0.0989   0.8372   0.5256     C
Zn     0.10029  0.42005  0.02185    Zn
H       0.1068   0.2131   0.6817     H
C       0.1091   0.1105   0.2087     C
O       0.1127  0.91321  0.62717     O
C        0.157   0.6259   0.9501     C
C       0.1632   0.6767   0.3799     C
C       0.1871   0.7497   0.4831     C
O       0.1878   0.5457  0.98358     O
C       0.1918   0.9273   0.2587     C
C       0.2017   0.1124    0.291     C
H       0.2184   0.8637   0.2765     H
H       0.2218   0.6179   0.3523     H
H       0.2278   0.9707   0.7571     H
C       0.2346   0.9178   0.6842     C
H       0.2349   0.1798   0.3316     H
H       0.2383   0.5241   0.7407     H
H       0.2431   0.6936   0.8462     H
N       0.2457  0.02169  0.31491     N
N       0.2543  0.31491  0.02169     N
H       0.2569   0.8462   0.6936     H
H       0.2617   0.7407   0.5241     H
H       0.2651   0.3316   0.1798     H
C       0.2654   0.6842   0.9178     C
H       0.2722   0.7571   0.9707     H
H       0.2782   0.3523   0.6179     H
H       0.2816   0.2765   0.8637     H
C       0.2983    0.291   0.1124     C
C       0.3082   0.2587   0.9273     C
O       0.3122  0.98358   0.5457     O
C       0.3129   0.4831   0.7497     C
C       0.3368   0.3799   0.6767     C
C        0.343   0.9501   0.6259     C
O       0.3873  0.62717  0.91321     O
C       0.3909   0.2087   0.1105     C
H       0.3932   0.6817   0.2131     H
Zn     0.39971  0.02185  0.42005    Zn
C       0.4011   0.5256   0.8372     C
C       0.4016   0.1755   0.9197     C
O       0.4039  0.17736  0.52136     O
H       0.4085   0.9321   0.9267     H
H       0.4087   0.9594   0.0556     H
H       0.4184   0.1942   0.1756     H
H       0.4277   0.5072    0.093     H
H       0.4366   0.1381   0.8521     H
C       0.4424   0.1484   0.0128     C
C       0.4463   0.3159   0.6887     C
O       0.4518  0.86033  0.35637     O
O       0.4551  0.94204  0.66716     O
C       0.4634    0.948   0.9934     C
C       0.4668   0.6401   0.2231     C
C       0.4676   0.2032    0.612     C
C       0.4878   0.5358   0.1502     C
C       0.5122   0.4642   0.8498     C
C       0.5324   0.7968    0.388     C
C       0.5332   0.3599   0.7769     C
C       0.5366    0.052   0.0066     C
O       0.5449  0.05796  0.33284     O
O       0.5482  0.13967  0.64363     O
C       0.5537   0.6841   0.3113     C
C       0.5576   0.8516   0.9872     C
H       0.5634   0.8619   0.1479     H
H       0.5723   0.4928    0.907     H
H       0.5816   0.8058   0.8244     H
H       0.5913   0.0406   0.9444     H
H       0.5915   0.0679   0.0733     H
O       0.5961  0.82264  0.47864     O
C       0.5984   0.8245   0.0803     C
C       0.5989   0.4744   0.1628     C
Zn     0.60029  0.97815  0.57995    Zn
H       0.6068   0.3183   0.7869     H
C       0.6091   0.7913   0.8895     C
O       0.6127  0.37283  0.08679     O
C        0.657   0.0499   0.3741     C
C       0.6632   0.6201   0.3233     C
C       0.6871   0.5169   0.2503     C
O       0.6878  0.01642   0.4543     O
C       0.6918   0.7413   0.0727     C
C       0.7017    0.709   0.8876     C
H       0.7184   0.7235   0.1363     H
H       0.7218   0.6477   0.3821     H
H       0.7278   0.2429   0.0293     H
C       0.7346   0.3158   0.0822     C
H       0.7349   0.6684   0.8202     H
H       0.7383   0.2593   0.4759     H
H       0.7431   0.1538   0.3064     H
N       0.7457  0.68509  0.97831     N
N       0.7543  0.97831  0.68509     N
H       0.7569   0.3064   0.1538     H
H       0.7617   0.4759   0.2593     H
H       0.7651   0.8202   0.6684     H
C       0.7654   0.0822   0.3158     C
H       0.7722   0.0293   0.2429     H
H       0.7782   0.3821   0.6477     H
H       0.7816   0.1363   0.7235     H
C       0.7983   0.8876    0.709     C
C       0.8082   0.0727   0.7413     C
O       0.8122   0.4543  0.01642     O
C       0.8129   0.2503   0.5169     C
C       0.8368   0.3233   0.6201     C
C        0.843   0.3741   0.0499     C
O       0.8873  0.08679  0.37283     O
C       0.8909   0.8895   0.7913     C
H       0.8932   0.7869   0.3183     H
Zn     0.89971  0.57995  0.97815    Zn
C       0.9011   0.1628   0.4744     C
C       0.9016   0.0803   0.8245     C
O       0.9039  0.47864  0.82264     O
H       0.9085   0.0733   0.0679     H
H       0.9087   0.9444   0.0406     H
H       0.9184   0.8244   0.8058     H
H       0.9277    0.907   0.4928     H
H       0.9366   0.1479   0.8619     H
C       0.9424   0.9872   0.8516     C
C       0.9463   0.3113   0.6841     C
O       0.9518  0.64363  0.13967     O
O       0.9551  0.33284  0.05796     O
C       0.9634   0.0066    0.052     C
C       0.9668   0.7769   0.3599     C
C       0.9676    0.388   0.7968     C
C       0.9878   0.8498   0.4642     C
