data_I
_chemical_name_common  '/home/zhangsd/repos/MofS-CGCNN/ML/data/SSD/clean_cifs/PIJROR_clean'
_cell_length_a  8.17200
_cell_length_b 14.19690
_cell_length_c 14.19690
_cell_angle_alpha 110.24100
_cell_angle_beta  91.04760
_cell_angle_gamma 88.95240
_space_group_name_H-M_alt      'P 1'


loop_
_space_group_symop_operation_xyz
  'x, y, z' 

loop_
_atom_site_label
_atom_site_fract_x
_atom_site_fract_y
_atom_site_fract_z
_atom_site_type_symbol
C       0.0174   0.3618   0.7762     C
C       0.0336   0.4642   0.8512     C
C       0.0578   0.2438   0.6058     C
C       0.0733     0.34   0.6782     C
S       0.0803   0.1147  0.40704     S
C       0.1017   0.6413   0.9357     C
C       0.1098    0.088   0.0224     C
O       0.1104   0.8146   0.0364     O
H       0.1178   0.2998   0.0878     H
H       0.1229   0.3914   0.6604     H
C       0.1271   0.2229   0.5045     C
O       0.1582   0.9947   0.9883     O
O       0.1639   0.9909   0.1927     O
S       0.1662  0.54799  0.82973     S
C       0.1736   0.7445   0.9639     C
C       0.1764   0.2647   0.0285     C
C       0.1869   0.1605   0.9869     C
C       0.2047   0.1458   0.3284     C
C       0.2324   0.2808   0.4746     C
C       0.2411   0.0749   0.2263     C
C       0.2626   0.3125   0.9725     C
H       0.2702   0.3833   0.9915     H
H       0.2707   0.3441   0.5175     H
C       0.2777   0.2365   0.3739     C
O       0.2958   0.7586   0.9182     O
S       0.3031    0.124  0.87954     S
C       0.3348   0.2457   0.8873     C
O       0.3494   0.0948    0.174     O
H       0.3508    0.266   0.3412     H
H       0.3745    0.038   0.5282     H
Ce     0.39888  0.91447  0.05243    Ce
H       0.4026   0.1331   0.7007     H
C       0.4212   0.2713   0.8101     C
H       0.4407   0.9528     0.35     H
C       0.4412   0.1993   0.7143     C
C       0.4507   0.0629   0.4931     C
H       0.4725   0.4147   0.8951     H
C       0.4824   0.3666   0.8294     C
C       0.4887    0.014   0.3912     C
O       0.4954   0.9158   0.8848     O
C       0.5174   0.2238   0.6382     C
C       0.5336   0.1488   0.5358     C
C       0.5578   0.3942   0.7562     C
C       0.5733   0.3218     0.66     C
S       0.5803  0.59296   0.8853     S
C       0.6017   0.0643   0.3587     C
C       0.6098   0.9776    0.912     C
O       0.6104   0.9636   0.1854     O
H       0.6178   0.9122   0.7002     H
H       0.6229   0.3396   0.6086     H
C       0.6271   0.4955   0.7771     C
O       0.6582   0.0117   0.0053     O
O       0.6639   0.8073   0.0091     O
S       0.6662  0.17027  0.45201     S
C       0.6736   0.0361   0.2555     C
C       0.6764   0.9715   0.7353     C
C       0.6869   0.0131   0.8395     C
C       0.7047   0.6716   0.8542     C
C       0.7324   0.5254   0.7192     C
C       0.7411   0.7737   0.9251     C
C       0.7626   0.0275   0.6875     C
H       0.7702   0.0085   0.6167     H
H       0.7707   0.4825   0.6559     H
C       0.7777   0.6261   0.7635     C
O       0.7958   0.0818   0.2414     O
S       0.8031  0.12046    0.876     S
C       0.8348   0.1127   0.7543     C
O       0.8494    0.826   0.9052     O
H       0.8508   0.6588    0.734     H
H       0.8745   0.4718    0.962     H
Ce     0.89888  0.94757  0.08553    Ce
H       0.9026   0.2993   0.8669     H
C       0.9212   0.1899   0.7287     C
H       0.9407     0.65   0.0472     H
C       0.9412   0.2857   0.8007     C
C       0.9507   0.5069   0.9371     C
H       0.9725   0.1049   0.5853     H
C       0.9824   0.1706   0.6334     C
C       0.9887   0.6088    0.986     C
O       0.9954   0.1152   0.0842     O
