data_I
_chemical_name_common  '/home/zhangsd/repos/MofS-CGCNN/ML/data/SSD/clean_cifs/PIWRAQ_clean'
_cell_length_a  9.89600
_cell_length_b 16.21000
_cell_length_c 18.44300
_cell_angle_alpha 92.00200
_cell_angle_beta  103.58000
_cell_angle_gamma 92.51000
_space_group_name_H-M_alt      'P 1'


loop_
_space_group_symop_operation_xyz
  'x, y, z' 

loop_
_atom_site_label
_atom_site_fract_x
_atom_site_fract_y
_atom_site_fract_z
_atom_site_type_symbol
N       0.0011   0.2481   0.0042     N
C       0.0021   0.6436   0.2783     C
N        0.004   0.1665   0.1602     N
C       0.0074   0.8754   0.7182     C
C       0.0195   0.0324   0.9938     C
H       0.0203   0.6945   0.1842     H
C       0.0405   0.8915   0.2007     C
C       0.0409   0.4302   0.6117     C
C       0.0414   0.3358   0.7947     C
H       0.0425   0.3848   0.4412     H
O       0.0464   0.9607   0.4233     O
H        0.047   0.9112   0.6897     H
H        0.049   0.4858   0.1874     H
C       0.0493   0.8814   0.7949     C
C       0.0535   0.9079   0.2763     C
C       0.0591   0.3082   0.9953     C
C        0.063   0.0749   0.6154     C
C       0.0635   0.1013   0.6952     C
N       0.0782   0.1349   0.8466     N
Cu     0.08054  0.42572  0.03792    Cu
Cu     0.08228  0.84039  0.95439    Cu
O       0.0842   0.5863   0.4225     O
C       0.0878   0.4008   0.6883     C
H       0.0917   0.6595   0.3054     H
C       0.0928   0.1836   0.3161     C
C       0.1037   0.2227   0.1946     C
Cu     0.10626  0.12446  0.95933    Cu
O        0.109   0.4122   0.4297     O
O        0.113   0.1318   0.4367     O
H       0.1187   0.9213   0.8168     H
H       0.1192   0.8995   0.1819     H
O       0.1255   0.4719   0.5854     O
H       0.1393   0.9247   0.3073     H
C       0.1401   0.4693   0.1997     C
H       0.1439   0.2564   0.1647     H
Cl      0.1473  0.52855  0.95762    Cl
C       0.1484   0.1905      0.4     C
C       0.1512   0.2344   0.2707     C
N       0.1659   0.3568   0.8361     N
H       0.1661   0.4939   0.3096     H
O       0.1738   0.0866   0.5953     O
H       0.1839   0.3891   0.4485     H
C       0.1842    0.133    0.743     C
C       0.1879   0.1493   0.8172     C
N       0.1942   0.4408   0.1453     N
Cu     0.19812  0.35593  0.94806    Cu
C       0.2107   0.4758   0.2733     C
C       0.2194   0.4209   0.7308     C
H       0.2202    0.275   0.2913     H
O       0.2233    0.252   0.4271     O
H       0.2473   0.0619   0.2554     H
Tb     0.24893   0.0212  0.49698    Tb
H        0.252   0.0631   0.1319     H
C       0.2567   0.3977   0.8037     C
Tb      0.2584  0.52773  0.51039    Tb
H       0.2635   0.1435   0.7252     H
N       0.2677   0.9049   0.9631     N
H       0.2705   0.1714   0.8484     H
H       0.2773   0.8409   0.4589     H
H       0.2834   0.4502   0.7104     H
O       0.3075   0.8885   0.4508     O
C       0.3265   0.4199   0.1646     C
C       0.3287   0.0506   0.2409     C
O       0.3316   0.0451   0.3904     O
C       0.3325   0.0519   0.1669     C
C       0.3364   0.9369   0.9706     C
Cl      0.3385  0.16912  0.00691    Cl
H       0.3469   0.4105   0.8315     H
C       0.3486   0.4553   0.2936     C
H       0.3534   0.9945   0.6976     H
H       0.3578   0.9076   0.4922     H
H       0.3592     0.99   0.8219     H
H       0.3668   0.4001   0.1271     H
O       0.3733   0.4937     0.42     O
Cu       0.376   0.5174   0.9816    Cu
C       0.4061   0.4259   0.2362     C
C       0.4337   0.4637   0.3729     C
Cl       0.435  0.37739   0.9952    Cl
C       0.4354   0.9825   0.7312     C
C       0.4396   0.9795   0.8061     C
Cu     0.44255  0.04696  0.03253    Cu
C       0.4444   0.0288   0.3747     C
O       0.4454   0.5577   0.6148     O
C       0.4477   0.0323   0.2939     C
N       0.4479   0.0376   0.1432     N
O       0.4482   0.9909   0.5805     O
H       0.4978   0.4105   0.2465     H
Cu         0.5      0.5      0.0    Cu
H       0.5022   0.5895   0.7535     H
O       0.5518   0.0091   0.4195     O
N       0.5521   0.9624   0.8568     N
C       0.5523   0.9677   0.7061     C
O       0.5546   0.4423   0.3852     O
C       0.5556   0.9712   0.6253     C
Cu     0.55745  0.95304  0.96747    Cu
C       0.5604   0.0205   0.1939     C
C       0.5646   0.0175   0.2688     C
Cl       0.565  0.62261   0.0048    Cl
C       0.5663   0.5363   0.6271     C
C       0.5939   0.5741   0.7638     C
Cu       0.624   0.4826   0.0184    Cu
O       0.6267   0.5063     0.58     O
H       0.6332   0.5999   0.8729     H
H       0.6408     0.01   0.1781     H
H       0.6422   0.0924   0.5078     H
H       0.6466   0.0055   0.3024     H
C       0.6514   0.5447   0.7064     C
H       0.6531   0.5895   0.1685     H
Cl      0.6615  0.83088  0.99309    Cl
C       0.6636   0.0631   0.0294     C
C       0.6675   0.9481   0.8331     C
O       0.6684   0.9549   0.6096     O
C       0.6713   0.9494   0.7591     C
C       0.6735   0.5801   0.8354     C
O       0.6925   0.1115   0.5492     O
H       0.7166   0.5498   0.2896     H
H       0.7227   0.1591   0.5411     H
H       0.7295   0.8286   0.1516     H
N       0.7323   0.0951   0.0369     N
H       0.7365   0.8565   0.2748     H
Tb      0.7416  0.47227  0.48961    Tb
C       0.7433   0.6023   0.1963     C
H        0.748   0.9369   0.8681     H
Tb     0.75107   0.9788  0.50302    Tb
H       0.7527   0.9381   0.7446     H
O       0.7767    0.748   0.5729     O
H       0.7798    0.725   0.7087     H
C       0.7806   0.5791   0.2692     C
C       0.7893   0.5242   0.7267     C
Cu     0.80188  0.64407  0.05194    Cu
N       0.8058   0.5592   0.8547     N
C       0.8121   0.8507   0.1828     C
C       0.8158    0.867    0.257     C
H       0.8161   0.6109   0.5515     H
O       0.8262   0.9134   0.4047     O
H       0.8339   0.5061   0.6904     H
N       0.8341   0.6432   0.1639     N
C       0.8488   0.7656   0.7293     C
C       0.8516   0.8095      0.6     C
Cl      0.8527  0.47145  0.04238    Cl
H       0.8561   0.7436   0.8353     H
C       0.8599   0.5307   0.8003     C
H       0.8607   0.0753   0.6927     H
O       0.8745   0.5281   0.4146     O
H       0.8808   0.1005   0.8181     H
H       0.8813   0.0787   0.1832     H
O        0.887   0.8682   0.5633     O
O        0.891   0.5878   0.5703     O
Cu     0.89374  0.87554  0.04067    Cu
C       0.8963   0.7773   0.8054     C
C       0.9072   0.8164   0.6839     C
H       0.9083   0.3405   0.6946     H
C       0.9122   0.5992   0.3117     C
O       0.9158   0.4137   0.5775     O
Cu     0.91772  0.15961  0.04561    Cu
Cu     0.91946  0.57428  0.96208    Cu
N       0.9218   0.8651   0.1534     N
C       0.9365   0.8987   0.3048     C
C        0.937   0.9251   0.3846     C
C       0.9409   0.6918   0.0047     C
C       0.9465   0.0921   0.7237     C
C       0.9507   0.1186   0.2051     C
H        0.951   0.5142   0.8126     H
H        0.953   0.0888   0.3103     H
O       0.9536   0.0393   0.5767     O
H       0.9575   0.6152   0.5588     H
C       0.9586   0.6642   0.2053     C
C       0.9591   0.5698   0.3883     C
C       0.9595   0.1085   0.7993     C
H       0.9797   0.3055   0.8158     H
N       0.9805   0.9676   0.0062     N
C       0.9926   0.1246   0.2818     C
N        0.996   0.8335   0.8398     N
C       0.9979   0.3564   0.7217     C
N       0.9989   0.7519   0.9958     N
