data_I
_chemical_name_common  '/home/zhangsd/repos/MofS-CGCNN/ML/data/SSD/clean_cifs/PIYZAZ_clean'
_cell_length_a  8.99500
_cell_length_b  8.99500
_cell_length_c  8.99500
_cell_angle_alpha 60.00000
_cell_angle_beta  60.00000
_cell_angle_gamma 60.00000
_space_group_name_H-M_alt      'P 1'


loop_
_space_group_symop_operation_xyz
  'x, y, z' 

loop_
_atom_site_label
_atom_site_fract_x
_atom_site_fract_y
_atom_site_fract_z
_atom_site_type_symbol
C      0.02654  0.52654  0.52654     C
C      0.02654  0.52654  0.92038     C
C      0.02654  0.92038  0.52654     C
Cd       0.125    0.625    0.625    Cd
C      0.42038  0.52654  0.52654     C
C      0.57962  0.47346  0.47346     C
Cd       0.875    0.375    0.375    Cd
C      0.97346  0.07962  0.47346     C
C      0.97346  0.47346  0.07962     C
C      0.97346  0.47346  0.47346     C
