data_I
_chemical_name_common  '/home/zhangsd/repos/MofS-CGCNN/ML/data/SSD/clean_cifs/POHCOG_clean'
_cell_length_a 12.01440
_cell_length_b 16.98920
_cell_length_c 31.27160
_cell_angle_alpha 90.00000
_cell_angle_beta  90.00000
_cell_angle_gamma 90.00000
_space_group_name_H-M_alt      'P 1'


loop_
_space_group_symop_operation_xyz
  'x, y, z' 

loop_
_atom_site_label
_atom_site_fract_x
_atom_site_fract_y
_atom_site_fract_z
_atom_site_type_symbol
Ag      0.0121  0.25694  0.93223    Ag
Ag      0.0121  0.74306  0.43223    Ag
C        0.046   0.1189   0.4299     C
C        0.046   0.8811   0.9299     C
C       0.0575   0.3722   0.0604     C
C       0.0575   0.6278   0.5604     C
Ag     0.07111  0.30894  0.46557    Ag
Ag     0.07111  0.69106  0.96557    Ag
C       0.0715   0.3613   0.5702     C
C       0.0715   0.6387   0.0702     C
H       0.0855   0.4756   0.2196     H
H       0.0855   0.5244   0.7196     H
H       0.0866   0.0302   0.5721     H
H       0.0866   0.9698   0.0721     H
H       0.0885   0.4919   0.9225     H
H       0.0885   0.5081   0.4225     H
H       0.0902   0.4762   0.1462     H
H       0.0902   0.5238   0.6462     H
H       0.0909   0.4887   0.9975     H
H       0.0909   0.5113   0.4975     H
H       0.0915   0.0281   0.4982     H
H       0.0915   0.9719   0.9982     H
H       0.0926   0.0449   0.1371     H
H       0.0926   0.9551   0.6371     H
H       0.0927   0.0388   0.7753     H
H       0.0927   0.9612   0.2753     H
Ag      0.0937  0.17597  0.04634    Ag
Ag      0.0937  0.82403  0.54634    Ag
C       0.0939   0.1489   0.9279     C
C       0.0939   0.8511   0.4279     C
H       0.0965   0.0395   0.8497     H
H       0.0965   0.9605   0.3497     H
H       0.0966   0.0482   0.2105     H
H       0.0966   0.9518   0.7105     H
H        0.106   0.4389   0.8585     H
H        0.106   0.5611   0.3585     H
H        0.109   0.4352   0.7838     H
H        0.109   0.5648   0.2838     H
N        0.121   0.0782   0.4228     N
N        0.121   0.9218   0.9228     N
N       0.1293   0.4158   0.0699     N
N       0.1293   0.5842   0.5699     N
N       0.1312   0.4131   0.5714     N
N       0.1312   0.5869   0.0714     N
N       0.1438   0.0945   0.9252     N
N       0.1438   0.9055   0.4252     N
C       0.1538   0.4857   0.2053     C
C       0.1538   0.5143   0.7053     C
C       0.1542   0.0176   0.5579     C
C       0.1542   0.9824   0.0579     C
C       0.1569   0.0272   0.1519     C
C       0.1569   0.9728   0.6519     C
C        0.157   0.4862   0.1615     C
C        0.157   0.5138   0.6615     C
C        0.158   0.0165   0.5134     C
C        0.158    0.495   0.9368     C
C        0.158    0.505   0.4368     C
C        0.158   0.9835   0.0134     C
C       0.1586   0.0228   0.7896     C
C       0.1586   0.9772   0.2896     C
C       0.1588    0.028   0.1953     C
C       0.1588    0.972   0.6953     C
C        0.159    0.494   0.9826     C
C        0.159    0.506   0.4826     C
C       0.1605   0.0228   0.8344     C
C       0.1605   0.9772   0.3344     C
C       0.1652   0.4633   0.8434     C
C       0.1652   0.5367   0.3434     C
C       0.1664   0.4622   0.7987     C
C       0.1664   0.5378   0.2987     C
C       0.2005   0.2511   0.4938     C
C       0.2005   0.7489   0.9938     C
N       0.2304   0.2244   0.0132     N
N       0.2304   0.7756   0.5132     N
C         0.25      0.0   0.0821     C
C         0.25      0.0   0.1288     C
C         0.25      0.0   0.2179     C
C         0.25      0.0   0.2656     C
N         0.25      0.0   0.3556     N
Fe        0.25      0.0  0.42348    Fe
N         0.25      0.0   0.4908     N
C         0.25      0.0   0.5821     C
C         0.25      0.0   0.6288     C
C         0.25      0.0   0.7179     C
C         0.25      0.0   0.7656     C
N         0.25      0.0   0.8556     N
Fe        0.25      0.0  0.92348    Fe
N         0.25      0.0   0.9908     N
N         0.25      0.5    0.004     N
Fe        0.25      0.5   0.0718    Fe
N         0.25      0.5   0.1395     N
C         0.25      0.5   0.2292     C
C         0.25      0.5   0.2755     C
C         0.25      0.5   0.3657     C
C         0.25      0.5   0.4135     C
N         0.25      0.5    0.504     N
Fe        0.25      0.5   0.5718    Fe
N         0.25      0.5   0.6395     N
C         0.25      0.5   0.7292     C
C         0.25      0.5   0.7755     C
C         0.25      0.5   0.8657     C
C         0.25      0.5   0.9135     C
N       0.2696   0.2244   0.5132     N
N       0.2696   0.7756   0.0132     N
C       0.2995   0.2511   0.9938     C
C       0.2995   0.7489   0.4938     C
C       0.3336   0.4622   0.2987     C
C       0.3336   0.5378   0.7987     C
C       0.3348   0.4633   0.3434     C
C       0.3348   0.5367   0.8434     C
C       0.3395   0.0228   0.3344     C
C       0.3395   0.9772   0.8344     C
C        0.341    0.494   0.4826     C
C        0.341    0.506   0.9826     C
C       0.3412    0.028   0.6953     C
C       0.3412    0.972   0.1953     C
C       0.3414   0.0228   0.2896     C
C       0.3414   0.9772   0.7896     C
C        0.342   0.0165   0.0134     C
C        0.342    0.495   0.4368     C
C        0.342    0.505   0.9368     C
C        0.342   0.9835   0.5134     C
C        0.343   0.4862   0.6615     C
C        0.343   0.5138   0.1615     C
C       0.3431   0.0272   0.6519     C
C       0.3431   0.9728   0.1519     C
C       0.3458   0.0176   0.0579     C
C       0.3458   0.9824   0.5579     C
C       0.3462   0.4857   0.7053     C
C       0.3462   0.5143   0.2053     C
N       0.3562   0.0945   0.4252     N
N       0.3562   0.9055   0.9252     N
N       0.3688   0.4131   0.0714     N
N       0.3688   0.5869   0.5714     N
N       0.3707   0.4158   0.5699     N
N       0.3707   0.5842   0.0699     N
N        0.379   0.0782   0.9228     N
N        0.379   0.9218   0.4228     N
H        0.391   0.4352   0.2838     H
H        0.391   0.5648   0.7838     H
H        0.394   0.4389   0.3585     H
H        0.394   0.5611   0.8585     H
H       0.4034   0.0482   0.7105     H
H       0.4034   0.9518   0.2105     H
H       0.4035   0.0395   0.3497     H
H       0.4035   0.9605   0.8497     H
C       0.4061   0.1489   0.4279     C
C       0.4061   0.8511   0.9279     C
Ag      0.4063  0.17597  0.54634    Ag
Ag      0.4063  0.82403  0.04634    Ag
H       0.4073   0.0388   0.2753     H
H       0.4073   0.9612   0.7753     H
H       0.4074   0.0449   0.6371     H
H       0.4074   0.9551   0.1371     H
H       0.4085   0.0281   0.9982     H
H       0.4085   0.9719   0.4982     H
H       0.4091   0.4887   0.4975     H
H       0.4091   0.5113   0.9975     H
H       0.4098   0.4762   0.6462     H
H       0.4098   0.5238   0.1462     H
H       0.4115   0.4919   0.4225     H
H       0.4115   0.5081   0.9225     H
H       0.4134   0.0302   0.0721     H
H       0.4134   0.9698   0.5721     H
H       0.4145   0.4756   0.7196     H
H       0.4145   0.5244   0.2196     H
C       0.4285   0.3613   0.0702     C
C       0.4285   0.6387   0.5702     C
Ag     0.42889  0.30894  0.96557    Ag
Ag     0.42889  0.69106  0.46557    Ag
C       0.4425   0.3722   0.5604     C
C       0.4425   0.6278   0.0604     C
C        0.454   0.1189   0.9299     C
C        0.454   0.8811   0.4299     C
Ag      0.4879  0.25694  0.43223    Ag
Ag      0.4879  0.74306  0.93223    Ag
Ag      0.5121  0.25694  0.06777    Ag
Ag      0.5121  0.74306  0.56777    Ag
C        0.546   0.1189   0.5701     C
C        0.546   0.8811   0.0701     C
C       0.5575   0.3722   0.9396     C
C       0.5575   0.6278   0.4396     C
Ag     0.57111  0.30894  0.53443    Ag
Ag     0.57111  0.69106  0.03443    Ag
C       0.5715   0.3613   0.4298     C
C       0.5715   0.6387   0.9298     C
H       0.5855   0.4756   0.7804     H
H       0.5855   0.5244   0.2804     H
H       0.5866   0.0302   0.4279     H
H       0.5866   0.9698   0.9279     H
H       0.5885   0.4919   0.0775     H
H       0.5885   0.5081   0.5775     H
H       0.5902   0.4762   0.8538     H
H       0.5902   0.5238   0.3538     H
H       0.5909   0.4887   0.0025     H
H       0.5909   0.5113   0.5025     H
H       0.5915   0.0281   0.5018     H
H       0.5915   0.9719   0.0018     H
H       0.5926   0.0449   0.8629     H
H       0.5926   0.9551   0.3629     H
H       0.5927   0.0388   0.2247     H
H       0.5927   0.9612   0.7247     H
Ag      0.5937  0.17597  0.95366    Ag
Ag      0.5937  0.82403  0.45366    Ag
C       0.5939   0.1489   0.0721     C
C       0.5939   0.8511   0.5721     C
H       0.5965   0.0395   0.1503     H
H       0.5965   0.9605   0.6503     H
H       0.5966   0.0482   0.7895     H
H       0.5966   0.9518   0.2895     H
H        0.606   0.4389   0.1415     H
H        0.606   0.5611   0.6415     H
H        0.609   0.4352   0.2162     H
H        0.609   0.5648   0.7162     H
N        0.621   0.0782   0.5772     N
N        0.621   0.9218   0.0772     N
N       0.6293   0.4158   0.9301     N
N       0.6293   0.5842   0.4301     N
N       0.6312   0.4131   0.4286     N
N       0.6312   0.5869   0.9286     N
N       0.6438   0.0945   0.0748     N
N       0.6438   0.9055   0.5748     N
C       0.6538   0.4857   0.7947     C
C       0.6538   0.5143   0.2947     C
C       0.6542   0.0176   0.4421     C
C       0.6542   0.9824   0.9421     C
C       0.6569   0.0272   0.8481     C
C       0.6569   0.9728   0.3481     C
C        0.657   0.4862   0.8385     C
C        0.657   0.5138   0.3385     C
C        0.658   0.0165   0.4866     C
C        0.658    0.495   0.0632     C
C        0.658    0.505   0.5632     C
C        0.658   0.9835   0.9866     C
C       0.6586   0.0228   0.2104     C
C       0.6586   0.9772   0.7104     C
C       0.6588    0.028   0.8047     C
C       0.6588    0.972   0.3047     C
C        0.659    0.494   0.0174     C
C        0.659    0.506   0.5174     C
C       0.6605   0.0228   0.1656     C
C       0.6605   0.9772   0.6656     C
C       0.6652   0.4633   0.1566     C
C       0.6652   0.5367   0.6566     C
C       0.6664   0.4622   0.2013     C
C       0.6664   0.5378   0.7013     C
C       0.7005   0.2511   0.5062     C
C       0.7005   0.7489   0.0062     C
N       0.7304   0.2244   0.9868     N
N       0.7304   0.7756   0.4868     N
N         0.75      0.0   0.0092     N
Fe        0.75      0.0  0.07652    Fe
N         0.75      0.0   0.1444     N
C         0.75      0.0   0.2344     C
C         0.75      0.0   0.2821     C
C         0.75      0.0   0.3712     C
C         0.75      0.0   0.4179     C
N         0.75      0.0   0.5092     N
Fe        0.75      0.0  0.57652    Fe
N         0.75      0.0   0.6444     N
C         0.75      0.0   0.7344     C
C         0.75      0.0   0.7821     C
C         0.75      0.0   0.8712     C
C         0.75      0.0   0.9179     C
C         0.75      0.5   0.0865     C
C         0.75      0.5   0.1343     C
C         0.75      0.5   0.2245     C
C         0.75      0.5   0.2708     C
N         0.75      0.5   0.3605     N
Fe        0.75      0.5   0.4282    Fe
N         0.75      0.5    0.496     N
C         0.75      0.5   0.5865     C
C         0.75      0.5   0.6343     C
C         0.75      0.5   0.7245     C
C         0.75      0.5   0.7708     C
N         0.75      0.5   0.8605     N
Fe        0.75      0.5   0.9282    Fe
N         0.75      0.5    0.996     N
N       0.7696   0.2244   0.4868     N
N       0.7696   0.7756   0.9868     N
C       0.7995   0.2511   0.0062     C
C       0.7995   0.7489   0.5062     C
C       0.8336   0.4622   0.7013     C
C       0.8336   0.5378   0.2013     C
C       0.8348   0.4633   0.6566     C
C       0.8348   0.5367   0.1566     C
C       0.8395   0.0228   0.6656     C
C       0.8395   0.9772   0.1656     C
C        0.841    0.494   0.5174     C
C        0.841    0.506   0.0174     C
C       0.8412    0.028   0.3047     C
C       0.8412    0.972   0.8047     C
C       0.8414   0.0228   0.7104     C
C       0.8414   0.9772   0.2104     C
C        0.842   0.0165   0.9866     C
C        0.842    0.495   0.5632     C
C        0.842    0.505   0.0632     C
C        0.842   0.9835   0.4866     C
C        0.843   0.4862   0.3385     C
C        0.843   0.5138   0.8385     C
C       0.8431   0.0272   0.3481     C
C       0.8431   0.9728   0.8481     C
C       0.8458   0.0176   0.9421     C
C       0.8458   0.9824   0.4421     C
C       0.8462   0.4857   0.2947     C
C       0.8462   0.5143   0.7947     C
N       0.8562   0.0945   0.5748     N
N       0.8562   0.9055   0.0748     N
N       0.8688   0.4131   0.9286     N
N       0.8688   0.5869   0.4286     N
N       0.8707   0.4158   0.4301     N
N       0.8707   0.5842   0.9301     N
N        0.879   0.0782   0.0772     N
N        0.879   0.9218   0.5772     N
H        0.891   0.4352   0.7162     H
H        0.891   0.5648   0.2162     H
H        0.894   0.4389   0.6415     H
H        0.894   0.5611   0.1415     H
H       0.9034   0.0482   0.2895     H
H       0.9034   0.9518   0.7895     H
H       0.9035   0.0395   0.6503     H
H       0.9035   0.9605   0.1503     H
C       0.9061   0.1489   0.5721     C
C       0.9061   0.8511   0.0721     C
Ag      0.9063  0.17597  0.45366    Ag
Ag      0.9063  0.82403  0.95366    Ag
H       0.9073   0.0388   0.7247     H
H       0.9073   0.9612   0.2247     H
H       0.9074   0.0449   0.3629     H
H       0.9074   0.9551   0.8629     H
H       0.9085   0.0281   0.0018     H
H       0.9085   0.9719   0.5018     H
H       0.9091   0.4887   0.5025     H
H       0.9091   0.5113   0.0025     H
H       0.9098   0.4762   0.3538     H
H       0.9098   0.5238   0.8538     H
H       0.9115   0.4919   0.5775     H
H       0.9115   0.5081   0.0775     H
H       0.9134   0.0302   0.9279     H
H       0.9134   0.9698   0.4279     H
H       0.9145   0.4756   0.2804     H
H       0.9145   0.5244   0.7804     H
C       0.9285   0.3613   0.9298     C
C       0.9285   0.6387   0.4298     C
Ag     0.92889  0.30894  0.03443    Ag
Ag     0.92889  0.69106  0.53443    Ag
C       0.9425   0.3722   0.4396     C
C       0.9425   0.6278   0.9396     C
C        0.954   0.1189   0.0701     C
C        0.954   0.8811   0.5701     C
Ag      0.9879  0.25694  0.56777    Ag
Ag      0.9879  0.74306  0.06777    Ag
