data_I
_chemical_name_common  '/home/zhangsd/repos/MofS-CGCNN/ML/data/SSD/clean_cifs/POHLUV_clean'
_cell_length_a  8.72800
_cell_length_b  9.28900
_cell_length_c 18.91100
_cell_angle_alpha 90.00000
_cell_angle_beta  90.00000
_cell_angle_gamma 109.30700
_space_group_name_H-M_alt      'P 1'


loop_
_space_group_symop_operation_xyz
  'x, y, z' 

loop_
_atom_site_label
_atom_site_fract_x
_atom_site_fract_y
_atom_site_fract_z
_atom_site_type_symbol
O        0.006   0.1206   0.0354     O
O        0.006   0.6206   0.4646     O
C       0.0166   0.4009   0.3227     C
C       0.0166   0.9009   0.1773     C
C       0.0353    0.097   0.6919     C
C       0.0353    0.597   0.8081     C
O       0.0379   0.1545    0.882     O
O       0.0379   0.6545    0.618     O
C       0.0547   0.3861   0.0256     C
C       0.0547   0.8861   0.4744     C
H       0.0599   0.4856   0.1873     H
H       0.0599   0.9856   0.3127     H
C        0.066   0.0776   0.5624     C
C        0.066   0.5776   0.9376     C
C       0.0826   0.1604   0.7577     C
C       0.0826   0.6604   0.7423     C
C       0.1049   0.2545   0.0479     C
C       0.1049   0.7545   0.4521     C
C       0.1214   0.4643   0.9638     C
C       0.1214   0.9643   0.5362     C
C       0.1284   0.1552   0.6324     C
C       0.1284   0.6552   0.8676     C
O       0.1524   0.0044   0.1819     O
O       0.1524   0.5044   0.3181     O
H       0.2032   0.4403   0.9402     H
H       0.2032   0.9403   0.5598     H
Tb     0.20942  0.48394  0.44684    Tb
Tb     0.20942  0.98394  0.05316    Tb
C       0.2249   0.2858   0.7643     C
C       0.2249   0.7858   0.7357     C
O       0.2396   0.2708   0.0752     O
O       0.2396   0.7708   0.4248     O
H        0.256   0.3318   0.8081     H
H        0.256   0.8318   0.6919     H
C       0.2729   0.2751   0.6387     C
C       0.2729   0.7751   0.8613     C
C       0.3184   0.3404   0.7053     C
C       0.3184   0.8404   0.7947     C
O       0.3251   0.3397   0.5167     O
O       0.3251   0.8397   0.9833     O
C        0.384    0.341   0.5769     C
C        0.384    0.841   0.9231     C
H        0.414   0.4226   0.7098     H
H        0.414   0.9226   0.7902     H
O       0.4672   0.1085    0.091     O
O       0.4672   0.6085    0.409     O
O       0.5328   0.3915    0.591     O
O       0.5328   0.8915    0.909     O
H        0.586   0.0774   0.2098     H
H        0.586   0.5774   0.2902     H
C        0.616    0.159   0.0769     C
C        0.616    0.659   0.4231     C
O       0.6749   0.1603   0.0167     O
O       0.6749   0.6603   0.4833     O
C       0.6816   0.1596   0.2053     C
C       0.6816   0.6596   0.2947     C
C       0.7271   0.2249   0.1387     C
C       0.7271   0.7249   0.3613     C
H        0.744   0.1682   0.3081     H
H        0.744   0.6682   0.1919     H
O       0.7604   0.2292   0.5752     O
O       0.7604   0.7292   0.9248     O
C       0.7751   0.2142   0.2643     C
C       0.7751   0.7142   0.2357     C
Tb     0.79058  0.01606  0.94684    Tb
Tb     0.79058  0.51606  0.55316    Tb
H       0.7968   0.0597   0.4402     H
H       0.7968   0.5597   0.0598     H
O       0.8476   0.4956   0.6819     O
O       0.8476   0.9956   0.8181     O
C       0.8716   0.3448   0.1324     C
C       0.8716   0.8448   0.3676     C
C       0.8786   0.0357   0.4638     C
C       0.8786   0.5357   0.0362     C
C       0.8951   0.2455   0.5479     C
C       0.8951   0.7455   0.9521     C
C       0.9174   0.3396   0.2577     C
C       0.9174   0.8396   0.2423     C
C        0.934   0.4224   0.0624     C
C        0.934   0.9224   0.4376     C
H       0.9401   0.0144   0.6873     H
H       0.9401   0.5144   0.8127     H
C       0.9453   0.1139   0.5256     C
C       0.9453   0.6139   0.9744     C
O       0.9621   0.3455    0.382     O
O       0.9621   0.8455    0.118     O
C       0.9647    0.403   0.1919     C
C       0.9647    0.903   0.3081     C
C       0.9834   0.0991   0.8227     C
C       0.9834   0.5991   0.6773     C
O        0.994   0.3794   0.5354     O
O        0.994   0.8794   0.9646     O
