data_I
_chemical_name_common  '/home/zhangsd/repos/MofS-CGCNN/ML/data/SSD/clean_cifs/POMMAH_clean'
_cell_length_a 21.91730
_cell_length_b 21.91730
_cell_length_c 28.26850
_cell_angle_alpha 90.00000
_cell_angle_beta  90.00000
_cell_angle_gamma 120.00000
_space_group_name_H-M_alt      'P 1'


loop_
_space_group_symop_operation_xyz
  'x, y, z' 

loop_
_atom_site_label
_atom_site_fract_x
_atom_site_fract_y
_atom_site_fract_z
_atom_site_type_symbol
Cu     0.05067   0.4825  0.28233    Cu
Cu     0.05067   0.4825  0.71767    Cu
Cu     0.05067  0.56817  0.21767    Cu
Cu     0.05067  0.56817  0.78233    Cu
I      0.07657  0.46421  0.19169     I
I      0.07657  0.46421  0.80831     I
I      0.07657  0.61236  0.30831     I
I      0.07657  0.61236  0.69169     I
H       0.1015   0.3753   0.2866     H
H       0.1015   0.3753   0.7134     H
H       0.1015   0.7262   0.2134     H
H       0.1015   0.7262   0.7866     H
N       0.1213   0.4669   0.3178     N
N       0.1213   0.4669   0.6822     N
N       0.1213   0.6544   0.1822     N
N       0.1213   0.6544   0.8178     N
C       0.1327   0.4107   0.3079     C
C       0.1327   0.4107   0.6921     C
C       0.1327    0.722   0.1921     C
C       0.1327    0.722   0.8079     C
H       0.1376   0.5362   0.3705     H
H       0.1376   0.5362   0.6295     H
H       0.1376   0.6014   0.1295     H
H       0.1376   0.6014   0.8705     H
C       0.1498   0.5028   0.3592     C
C       0.1498   0.5028   0.6408     C
C       0.1498    0.647   0.1408     C
C       0.1498    0.647   0.8592     C
H       0.1753   0.3724   0.1869     H
H       0.1753   0.3724   0.8131     H
H       0.1753   0.8029   0.3131     H
H       0.1753   0.8029   0.6869     H
H       0.1834   0.4448    0.118     H
H       0.1834   0.4448    0.882     H
H       0.1834   0.7386    0.382     H
H       0.1834   0.7386    0.618     H
C       0.1845   0.4044   0.3265     C
C       0.1845   0.4044   0.6735     C
C       0.1845   0.7801   0.1735     C
C       0.1845   0.7801   0.8265     C
H       0.1971   0.3724   0.3131     H
H       0.1971   0.3724   0.6869     H
H       0.1971   0.8247   0.1869     H
H       0.1971   0.8247   0.8131     H
C       0.1988   0.4894   0.3856     C
C       0.1988   0.4894   0.6144     C
C       0.1988   0.7094   0.1144     C
C       0.1988   0.7094   0.8856     C
O       0.2031   0.5665   0.4435     O
O       0.2031   0.5665   0.5565     O
O       0.2031   0.6366   0.0565     O
O       0.2031   0.6366   0.9435     O
C       0.2199   0.4044   0.1735     C
C       0.2199   0.4044   0.8265     C
C       0.2199   0.8155   0.3265     C
C       0.2199   0.8155   0.6735     C
C       0.2229   0.4468   0.3682     C
C       0.2229   0.4468   0.6318     C
C       0.2229   0.7761   0.1318     C
C       0.2229   0.7761   0.8682     C
C       0.2239   0.4468   0.1318     C
C       0.2239   0.4468   0.8682     C
C       0.2239   0.7771   0.3682     C
C       0.2239   0.7771   0.6318     C
C       0.2303    0.532   0.4283     C
C       0.2303    0.532   0.5717     C
C       0.2303   0.6983   0.0717     C
C       0.2303   0.6983   0.9283     C
In     0.23073  0.58715      0.0    In
In     0.23073  0.64358      0.5    In
O       0.2466   0.5276   0.0546     O
O       0.2466   0.5276   0.9454     O
O       0.2466    0.719   0.4454     O
O       0.2466    0.719   0.5546     O
H       0.2614   0.4448    0.382     H
H       0.2614   0.4448    0.618     H
H       0.2614   0.8166    0.118     H
H       0.2614   0.8166    0.882     H
H       0.2738   0.3753   0.2134     H
H       0.2738   0.3753   0.7866     H
H       0.2738   0.8985   0.2866     H
H       0.2738   0.8985   0.7134     H
C        0.278   0.4107   0.1921     C
C        0.278   0.4107   0.8079     C
C        0.278   0.8673   0.3079     C
C        0.278   0.8673   0.6921     C
O        0.281   0.5276   0.4454     O
O        0.281   0.5276   0.5546     O
O        0.281   0.7534   0.0546     O
O        0.281   0.7534   0.9454     O
C       0.2906   0.4894   0.1144     C
C       0.2906   0.4894   0.8856     C
C       0.2906   0.8012   0.3856     C
C       0.2906   0.8012   0.6144     C
C       0.3017    0.532   0.0717     C
C       0.3017    0.532   0.9283     C
C       0.3017   0.7697   0.4283     C
C       0.3017   0.7697   0.5717     C
O      0.33333  0.66667      0.0     O
O      0.33333  0.66667      0.5     O
N       0.3456   0.4669   0.1822     N
N       0.3456   0.4669   0.8178     N
N       0.3456   0.8787   0.3178     N
N       0.3456   0.8787   0.6822     N
C        0.353   0.5028   0.1408     C
C        0.353   0.5028   0.8592     C
C        0.353   0.8502   0.3592     C
C        0.353   0.8502   0.6408     C
In     0.35642  0.58715      0.5    In
In     0.35642  0.76927      0.0    In
O       0.3634   0.5665   0.0565     O
O       0.3634   0.5665   0.9435     O
O       0.3634   0.7969   0.4435     O
O       0.3634   0.7969   0.5565     O
H       0.3724   0.1753   0.3131     H
H       0.3724   0.1753   0.6869     H
H       0.3724   0.1971   0.1869     H
H       0.3724   0.1971   0.8131     H
H       0.3753   0.1015   0.2134     H
H       0.3753   0.1015   0.7866     H
H       0.3753   0.2738   0.2866     H
H       0.3753   0.2738   0.7134     H
I      0.38764  0.46421  0.30831     I
I      0.38764  0.46421  0.69169     I
I      0.38764  0.92343  0.19169     I
I      0.38764  0.92343  0.80831     I
H       0.3986   0.5362   0.1295     H
H       0.3986   0.5362   0.8705     H
H       0.3986   0.8624   0.3705     H
H       0.3986   0.8624   0.6295     H
C       0.4044   0.1845   0.1735     C
C       0.4044   0.1845   0.8265     C
C       0.4044   0.2199   0.3265     C
C       0.4044   0.2199   0.6735     C
C       0.4107   0.1327   0.1921     C
C       0.4107   0.1327   0.8079     C
C       0.4107    0.278   0.3079     C
C       0.4107    0.278   0.6921     C
In     0.41285  0.64358      0.0    In
In     0.41285  0.76927      0.5    In
Cu     0.43183   0.4825  0.21767    Cu
Cu     0.43183   0.4825  0.78233    Cu
Cu     0.43183  0.94933  0.28233    Cu
Cu     0.43183  0.94933  0.71767    Cu
O       0.4335   0.6366   0.4435     O
O       0.4335   0.6366   0.5565     O
O       0.4335   0.7969   0.0565     O
O       0.4335   0.7969   0.9435     O
H       0.4448   0.1834    0.382     H
H       0.4448   0.1834    0.618     H
H       0.4448   0.2614    0.118     H
H       0.4448   0.2614    0.882     H
C       0.4468   0.2229   0.1318     C
C       0.4468   0.2229   0.8682     C
C       0.4468   0.2239   0.3682     C
C       0.4468   0.2239   0.6318     C
H       0.4638   0.6014   0.3705     H
H       0.4638   0.6014   0.6295     H
H       0.4638   0.8624   0.1295     H
H       0.4638   0.8624   0.8705     H
I      0.46421  0.07657  0.30831     I
I      0.46421  0.07657  0.69169     I
I      0.46421  0.38764  0.19169     I
I      0.46421  0.38764  0.80831     I
N       0.4669   0.1213   0.1822     N
N       0.4669   0.1213   0.8178     N
N       0.4669   0.3456   0.3178     N
N       0.4669   0.3456   0.6822     N
C        0.468   0.6983   0.4283     C
C        0.468   0.6983   0.5717     C
C        0.468   0.7697   0.0717     C
C        0.468   0.7697   0.9283     C
O       0.4724    0.719   0.0546     O
O       0.4724    0.719   0.9454     O
O       0.4724   0.7534   0.4454     O
O       0.4724   0.7534   0.5546     O
Cu      0.4825  0.05067  0.21767    Cu
Cu      0.4825  0.05067  0.78233    Cu
Cu      0.4825  0.43183  0.28233    Cu
Cu      0.4825  0.43183  0.71767    Cu
C       0.4894   0.1988   0.1144     C
C       0.4894   0.1988   0.8856     C
C       0.4894   0.2906   0.3856     C
C       0.4894   0.2906   0.6144     C
C       0.4972    0.647   0.3592     C
C       0.4972    0.647   0.6408     C
C       0.4972   0.8502   0.1408     C
C       0.4972   0.8502   0.8592     C
C       0.5028   0.1498   0.1408     C
C       0.5028   0.1498   0.8592     C
C       0.5028    0.353   0.3592     C
C       0.5028    0.353   0.6408     C
C       0.5106   0.7094   0.3856     C
C       0.5106   0.7094   0.6144     C
C       0.5106   0.8012   0.1144     C
C       0.5106   0.8012   0.8856     C
Cu      0.5175  0.56817  0.28233    Cu
Cu      0.5175  0.56817  0.71767    Cu
Cu      0.5175  0.94933  0.21767    Cu
Cu      0.5175  0.94933  0.78233    Cu
O       0.5276   0.2466   0.4454     O
O       0.5276   0.2466   0.5546     O
O       0.5276    0.281   0.0546     O
O       0.5276    0.281   0.9454     O
C        0.532   0.2303   0.0717     C
C        0.532   0.2303   0.9283     C
C        0.532   0.3017   0.4283     C
C        0.532   0.3017   0.5717     C
N       0.5331   0.6544   0.3178     N
N       0.5331   0.6544   0.6822     N
N       0.5331   0.8787   0.1822     N
N       0.5331   0.8787   0.8178     N
I      0.53579  0.61236  0.19169     I
I      0.53579  0.61236  0.80831     I
I      0.53579  0.92343  0.30831     I
I      0.53579  0.92343  0.69169     I
H       0.5362   0.1376   0.1295     H
H       0.5362   0.1376   0.8705     H
H       0.5362   0.3986   0.3705     H
H       0.5362   0.3986   0.6295     H
C       0.5532   0.7761   0.3682     C
C       0.5532   0.7761   0.6318     C
C       0.5532   0.7771   0.1318     C
C       0.5532   0.7771   0.8682     C
H       0.5552   0.7386    0.118     H
H       0.5552   0.7386    0.882     H
H       0.5552   0.8166    0.382     H
H       0.5552   0.8166    0.618     H
O       0.5665   0.2031   0.0565     O
O       0.5665   0.2031   0.9435     O
O       0.5665   0.3634   0.4435     O
O       0.5665   0.3634   0.5565     O
Cu     0.56817  0.05067  0.28233    Cu
Cu     0.56817  0.05067  0.71767    Cu
Cu     0.56817   0.5175  0.21767    Cu
Cu     0.56817   0.5175  0.78233    Cu
In     0.58715  0.23073      0.5    In
In     0.58715  0.35642      0.0    In
C       0.5893    0.722   0.3079     C
C       0.5893    0.722   0.6921     C
C       0.5893   0.8673   0.1921     C
C       0.5893   0.8673   0.8079     C
C       0.5956   0.7801   0.3265     C
C       0.5956   0.7801   0.6735     C
C       0.5956   0.8155   0.1735     C
C       0.5956   0.8155   0.8265     C
H       0.6014   0.1376   0.3705     H
H       0.6014   0.1376   0.6295     H
H       0.6014   0.4638   0.1295     H
H       0.6014   0.4638   0.8705     H
I      0.61236  0.07657  0.19169     I
I      0.61236  0.07657  0.80831     I
I      0.61236  0.53579  0.30831     I
I      0.61236  0.53579  0.69169     I
H       0.6247   0.7262   0.2866     H
H       0.6247   0.7262   0.7134     H
H       0.6247   0.8985   0.2134     H
H       0.6247   0.8985   0.7866     H
H       0.6276   0.8029   0.1869     H
H       0.6276   0.8029   0.8131     H
H       0.6276   0.8247   0.3131     H
H       0.6276   0.8247   0.6869     H
O       0.6366   0.2031   0.4435     O
O       0.6366   0.2031   0.5565     O
O       0.6366   0.4335   0.0565     O
O       0.6366   0.4335   0.9435     O
In     0.64358  0.23073      0.0    In
In     0.64358  0.41285      0.5    In
C        0.647   0.1498   0.3592     C
C        0.647   0.1498   0.6408     C
C        0.647   0.4972   0.1408     C
C        0.647   0.4972   0.8592     C
N       0.6544   0.1213   0.3178     N
N       0.6544   0.1213   0.6822     N
N       0.6544   0.5331   0.1822     N
N       0.6544   0.5331   0.8178     N
O      0.66667  0.33333      0.0     O
O      0.66667  0.33333      0.5     O
C       0.6983   0.2303   0.4283     C
C       0.6983   0.2303   0.5717     C
C       0.6983    0.468   0.0717     C
C       0.6983    0.468   0.9283     C
C       0.7094   0.1988   0.3856     C
C       0.7094   0.1988   0.6144     C
C       0.7094   0.5106   0.1144     C
C       0.7094   0.5106   0.8856     C
O        0.719   0.2466   0.0546     O
O        0.719   0.2466   0.9454     O
O        0.719   0.4724   0.4454     O
O        0.719   0.4724   0.5546     O
C        0.722   0.1327   0.3079     C
C        0.722   0.1327   0.6921     C
C        0.722   0.5893   0.1921     C
C        0.722   0.5893   0.8079     C
H       0.7262   0.1015   0.2866     H
H       0.7262   0.1015   0.7134     H
H       0.7262   0.6247   0.2134     H
H       0.7262   0.6247   0.7866     H
H       0.7386   0.1834    0.118     H
H       0.7386   0.1834    0.882     H
H       0.7386   0.5552    0.382     H
H       0.7386   0.5552    0.618     H
O       0.7534    0.281   0.4454     O
O       0.7534    0.281   0.5546     O
O       0.7534   0.4724   0.0546     O
O       0.7534   0.4724   0.9454     O
In     0.76927  0.35642      0.5    In
In     0.76927  0.41285      0.0    In
C       0.7697   0.3017   0.0717     C
C       0.7697   0.3017   0.9283     C
C       0.7697    0.468   0.4283     C
C       0.7697    0.468   0.5717     C
C       0.7761   0.2229   0.3682     C
C       0.7761   0.2229   0.6318     C
C       0.7761   0.5532   0.1318     C
C       0.7761   0.5532   0.8682     C
C       0.7771   0.2239   0.1318     C
C       0.7771   0.2239   0.8682     C
C       0.7771   0.5532   0.3682     C
C       0.7771   0.5532   0.6318     C
C       0.7801   0.1845   0.3265     C
C       0.7801   0.1845   0.6735     C
C       0.7801   0.5956   0.1735     C
C       0.7801   0.5956   0.8265     C
O       0.7969   0.3634   0.0565     O
O       0.7969   0.3634   0.9435     O
O       0.7969   0.4335   0.4435     O
O       0.7969   0.4335   0.5565     O
C       0.8012   0.2906   0.1144     C
C       0.8012   0.2906   0.8856     C
C       0.8012   0.5106   0.3856     C
C       0.8012   0.5106   0.6144     C
H       0.8029   0.1753   0.1869     H
H       0.8029   0.1753   0.8131     H
H       0.8029   0.6276   0.3131     H
H       0.8029   0.6276   0.6869     H
C       0.8155   0.2199   0.1735     C
C       0.8155   0.2199   0.8265     C
C       0.8155   0.5956   0.3265     C
C       0.8155   0.5956   0.6735     C
H       0.8166   0.2614    0.382     H
H       0.8166   0.2614    0.618     H
H       0.8166   0.5552    0.118     H
H       0.8166   0.5552    0.882     H
H       0.8247   0.1971   0.3131     H
H       0.8247   0.1971   0.6869     H
H       0.8247   0.6276   0.1869     H
H       0.8247   0.6276   0.8131     H
C       0.8502    0.353   0.1408     C
C       0.8502    0.353   0.8592     C
C       0.8502   0.4972   0.3592     C
C       0.8502   0.4972   0.6408     C
H       0.8624   0.3986   0.1295     H
H       0.8624   0.3986   0.8705     H
H       0.8624   0.4638   0.3705     H
H       0.8624   0.4638   0.6295     H
C       0.8673    0.278   0.1921     C
C       0.8673    0.278   0.8079     C
C       0.8673   0.5893   0.3079     C
C       0.8673   0.5893   0.6921     C
N       0.8787   0.3456   0.1822     N
N       0.8787   0.3456   0.8178     N
N       0.8787   0.5331   0.3178     N
N       0.8787   0.5331   0.6822     N
H       0.8985   0.2738   0.2134     H
H       0.8985   0.2738   0.7866     H
H       0.8985   0.6247   0.2866     H
H       0.8985   0.6247   0.7134     H
I      0.92343  0.38764  0.30831     I
I      0.92343  0.38764  0.69169     I
I      0.92343  0.53579  0.19169     I
I      0.92343  0.53579  0.80831     I
Cu     0.94933  0.43183  0.21767    Cu
Cu     0.94933  0.43183  0.78233    Cu
Cu     0.94933   0.5175  0.28233    Cu
Cu     0.94933   0.5175  0.71767    Cu
