data_I
_chemical_name_common  '/home/zhangsd/repos/MofS-CGCNN/ML/data/SSD/clean_cifs/PUDSIR01_clean'
_cell_length_a 14.91780
_cell_length_b 19.04210
_cell_length_c 30.14290
_cell_angle_alpha 97.71160
_cell_angle_beta  90.00000
_cell_angle_gamma 113.06100
_space_group_name_H-M_alt      'P 1'


loop_
_space_group_symop_operation_xyz
  'x, y, z' 

loop_
_atom_site_label
_atom_site_fract_x
_atom_site_fract_y
_atom_site_fract_z
_atom_site_type_symbol
C      0.00191  0.30662  0.71753     C
H       0.0168   0.7002   0.2534     H
C       0.0232   0.7328  0.36136     C
C      0.02568  0.26936  0.35143     C
H       0.0274    0.579   0.6416     H
C      0.03186  0.80432   0.1534     C
H       0.0341   0.3804    0.852     H
C      0.03796  0.63092  0.64404     C
C      0.03914  0.34628  0.35383     C
C      0.03947  0.33314  0.85052     C
C      0.04265   0.7351  0.15161     C
C      0.05271  0.74502  0.31843     C
O        0.054   0.8512  0.42445     O
C      0.05582  0.19104   0.8464     C
C      0.06017  0.32914  0.63036     C
H       0.0607   0.1436   0.8443     H
C      0.06567  0.78634   0.6494     C
H       0.0756    0.838   0.6511     H
H       0.0784   0.3362   0.6013     H
H       0.0829   0.1436   0.3443     H
C      0.08544  0.36888  0.70986     C
H       0.0876   0.8496   0.1547     H
S      0.10292  0.80664  0.40205     S
C        0.115   0.3798  0.66678     C
C         0.12     0.26  0.34958     C
H       0.1224    0.404   0.7341     H
C      0.12845   0.3283  0.85041     C
C      0.13107  0.68694  0.64559     C
C      0.13522  0.19104   0.3464     C
C         0.14     0.26  0.84958     C
C      0.14181  0.81622  0.31842     C
C      0.14338  0.73456  0.15098     C
C      0.14397  0.76374   0.6477     C
O      0.14843  0.67118  0.13923     O
O      0.15461  0.77782  0.42975     O
S      0.16256  0.40582  0.35126     S
H       0.1687   0.8208   0.2529     H
H       0.1717    0.592   0.3551     H
C       0.1768    0.856  0.36085     C
O      0.17869  0.43618  0.30887     O
H       0.1811   0.6076   0.2804     H
C      0.19109  0.84618  0.28185     C
H       0.1925   0.5864   0.4365     H
O      0.19942  0.45924  0.39107     O
C      0.19985   0.3283  0.35041     C
O       0.2028   0.1488  0.07555     O
O      0.20556   0.5976  0.64373     O
C      0.20621  0.44722  0.65951     C
H       0.2069   0.8012   0.6479     H
O      0.21428  0.79714  0.16208     O
C      0.21894  0.66708  0.64662     C
Eu     0.22035  0.58224  0.14272    Eu
C       0.2204    0.635  0.34622     C
O      0.22181  0.45442  0.12039     O
C      0.22536  0.64512  0.30163     C
C      0.22754  0.19568   0.3466     C
O      0.23261  0.45442  0.62039     O
H       0.2376    0.162   0.8489     H
H        0.238   0.1504   0.3453     H
H       0.2394    0.597   0.5109     H
C      0.24101  0.44722  0.15951     C
S      0.24326  0.40582  0.85126     S
C      0.24368  0.26936  0.85143     C
O      0.24471  0.49582  0.19262     O
C      0.24664  0.62868  0.44989     C
O      0.25111  0.49582  0.69262     O
O      0.25749  0.43618  0.80887     O
O      0.25749  0.65778   0.2124     O
H       0.2578   0.3362   0.1013     H
C        0.258   0.9234   0.3687     C
O      0.25982  0.45924  0.89107     O
C       0.2648   0.3798  0.16678     C
C      0.26897  0.32914  0.13036     C
C      0.27298  0.91356  0.28863     C
C      0.27509  0.63538  0.49432     C
O      0.27911  0.81382  0.90183     O
C      0.27933  0.21366   0.8506     C
H       0.2799   0.9484   0.3977     H
H       0.2816    0.404   0.2341     H
O      0.28282  0.63584  0.07732     O
C      0.28344  0.36888  0.20986     C
C      0.28777  0.68894  0.37725     C
C       0.2904   0.2672  0.13864     C
C      0.29367  0.33314  0.35052     C
C      0.29522  0.71024  0.28787     C
S      0.29628  0.19336  0.09795     S
C      0.29911  0.71822   0.2388     C
C      0.30154  0.68708  0.42558     C
O      0.30159  0.72094  0.65009     O
C      0.30471  0.30662  0.21753     C
C      0.30644  0.95308  0.33181     C
H       0.3068   0.9332   0.2641     H
C      0.30714  0.34628  0.85383     C
C      0.30755   0.2649  0.34839     C
C      0.30769  0.25498  0.18157     C
C      0.31215   0.6985  0.06296     C
H       0.3166   0.2998   0.2466     H
C       0.3208    0.144  0.13915     C
O      0.32127  0.76254  0.08409     O
C      0.32559  0.18378  0.18158     C
H       0.3315   0.0516   0.1023     H
C       0.3346   0.0766   0.1313     C
H       0.3396   0.8004    0.005     H
C      0.34218  0.69776  0.01496     C
C      0.34491  0.15382  0.21815     C
O      0.34518  0.78376  0.22834     O
H       0.3463   0.3804    0.352     H
H       0.3479   0.1792   0.2471     H
C      0.34887  0.75714  0.99134     C
O      0.35302  0.63584  0.57732     O
O      0.35312  0.93344   0.1238     O
C      0.35336  0.04692  0.16819     C
C      0.35558  0.69776  0.51496     C
C      0.35703  0.75426  0.36312     C
H       0.3576    0.597   0.0109     H
C      0.35942  0.08644  0.21137     C
C      0.36029  0.63538  0.99432     C
Eu     0.36189  0.58224  0.64272    Eu
C       0.3623   0.7668  0.31927     C
C      0.36778  0.97256  0.16191     C
C       0.3698   0.7498  0.94684     C
H       0.3736   0.0668   0.2359     H
S      0.37365   0.8129  0.90846     S
O      0.37679  0.22218  0.07025     O
C         0.38   0.7498  0.44684     C
C      0.38023  0.23626   0.8523     C
C      0.38204  0.62868  0.94989     C
Eu     0.38235  0.82817  0.15698    Eu
C      0.38554  0.68708  0.92558     C
C      0.38635   0.6985  0.56296     C
O      0.39204   0.5976  0.14373     O
O      0.39282  0.95124   0.1957     O
H       0.3939   0.5864   0.9365     H
C      0.39522  0.02744  0.33809     C
C      0.39723  0.75426  0.86312     C
O      0.40029  0.65778   0.7124     O
C      0.40117  0.68894  0.87725     C
H       0.4025   0.8114   0.8108     H
C       0.4045   0.7668  0.81927     C
H       0.4057   0.1988   0.8521     H
C      0.40704  0.36908  0.85596     C
C      0.40827  0.75714  0.49134     C
C      0.40882  0.26544  0.34902     C
H       0.4089   0.8114   0.3108     H
C       0.4146    0.635  0.84622     C
C      0.41502  0.71024  0.78787     C
O      0.41714  0.20286  0.33792     O
C      0.41911  0.71822   0.7388     C
O      0.41935  0.72094  0.15009     O
O      0.41968  0.06656   0.3762     O
C      0.41976  0.64512  0.80163     C
H       0.4203    0.592   0.8551     H
H       0.4265   0.6076   0.7804     H
O      0.43214  0.88648  0.41905     O
O      0.43858  0.78376  0.72834     O
S      0.43925   0.8129  0.40846     S
O      0.44127  0.76254  0.58409     O
O      0.44158  0.04876   0.3043     O
C      0.44413  0.31306  0.85441     C
Eu     0.44582  0.82817  0.65698    Eu
C      0.44814  0.66708  0.14662     C
H       0.4484    0.421   0.8584     H
O      0.45434  0.88648  0.91905     O
H       0.4608   0.8004    0.505     H
O      0.46529  0.18618  0.59817     O
O      0.47725  0.32882  0.36077     O
O      0.52275  0.67118  0.63923     O
O      0.53471  0.81382  0.40183     O
H       0.5392   0.1996    0.495     H
O      0.54566  0.11352  0.08095     O
H       0.5516    0.579   0.1416     H
C      0.55186  0.33292  0.85338     C
Eu     0.55418  0.17183  0.34302    Eu
C      0.55587  0.68694  0.14559     C
O      0.55842  0.95124   0.6957     O
O      0.55873  0.23746  0.41591     O
S      0.56075   0.1871  0.59154     S
O      0.56142  0.21624  0.27166     O
O      0.56786  0.11352  0.58095     O
H       0.5735   0.3924   0.2196     H
H       0.5797    0.408   0.1449     H
C      0.58024  0.35488  0.19837     C
O      0.58032  0.93344   0.6238     O
O      0.58065  0.27906  0.84991     O
C      0.58089  0.28178   0.2612     C
O      0.58286  0.79714  0.66208     O
C      0.58498  0.28976  0.21213     C
C       0.5854    0.365  0.15378     C
H       0.5911   0.1886   0.6892     H
C      0.59118  0.73456  0.65098     C
C      0.59173  0.24286  0.50866     C
C      0.59296  0.63092  0.14404     C
H       0.5943   0.8012   0.1479     H
C       0.5955   0.2332  0.18073     C
H       0.5975   0.1886   0.1892     H
C      0.59883  0.31106  0.12275     C
O      0.59971  0.34222   0.2876     O
C      0.60277  0.24574  0.13688     C
C      0.60478  0.97256  0.66191     C
H       0.6061   0.4136   0.0635     H
O      0.60718  0.04876   0.8043     O
O      0.60796   0.4024  0.85627     O
C      0.61365   0.3015  0.43704     C
C      0.61446  0.31292  0.07442     C
Eu     0.61765  0.17183  0.84302    Eu
C      0.61796  0.37132  0.05011     C
C      0.61977  0.76374   0.1477     C
C         0.62   0.2502  0.55316     C
O      0.62321  0.77782  0.92975     O
S      0.62635   0.1871  0.09154     S
H       0.6264   0.9332   0.7641     H
C       0.6302   0.2502  0.05316     C
C      0.63222  0.02744  0.83809     C
C       0.6377   0.2332  0.68073     C
Eu     0.63811  0.41776  0.35728    Eu
C      0.63971  0.36462  0.00568     C
C      0.64058  0.91356  0.78863     C
H       0.6424    0.403   0.9891     H
C      0.64297  0.24574  0.63688     C
C      0.64442  0.30224  0.48504     C
C      0.64664  0.95308  0.83181     C
O      0.64688  0.06656   0.8762     O
O      0.64698  0.36416  0.42268     O
C      0.65113  0.24286  0.00866     C
H       0.6521   0.8208   0.7529     H
H       0.6537   0.6196    0.648     H
O      0.65482  0.21624  0.77166     O
C      0.65509  0.84618  0.78185     C
C      0.65782  0.30224  0.98504     C
H       0.6604   0.1996    0.995     H
C       0.6654   0.9234   0.8687     C
H       0.6685   0.9484   0.8977     H
C      0.67441  0.81622  0.81842     C
O      0.67873  0.23746  0.91591     O
C       0.6792    0.856  0.86085     C
H       0.6834   0.7002   0.7534     H
C      0.68785   0.3015  0.93704     C
C      0.69231  0.74502  0.81843     C
C      0.69245   0.7351  0.65161     C
C      0.69286  0.65372  0.14617     C
H       0.6932   0.0668   0.7359     H
C      0.69356  0.04692  0.66819     C
C      0.69529  0.69338  0.78247     C
O      0.69841  0.27906  0.34991     O
C      0.69846  0.31292  0.57442     C
C      0.70089  0.28178   0.7612     C
S      0.70372  0.80664  0.90205     S
C      0.70478  0.28976  0.71213     C
C      0.70633  0.66686  0.64948     C
C       0.7096   0.7328  0.86136     C
C      0.71223  0.31106  0.62275     C
C      0.71656  0.63112  0.79014     C
O      0.71718  0.36416  0.92268     O
H       0.7184    0.596   0.7659     H
H       0.7201   0.0516   0.6023     H
C      0.72067  0.78634   0.1494     C
O      0.72089  0.18618  0.09817     O
C      0.72491  0.36462  0.50568     C
C      0.72702  0.08644  0.71137     C
C      0.73103  0.67086  0.86964     C
C       0.7352   0.6202  0.83322     C
O      0.74018  0.54076  0.10893     O
C        0.742   0.0766   0.6313     C
H       0.7422   0.6638   0.8987     H
O      0.74251  0.34222   0.7876     O
O      0.74251  0.56382  0.19113     O
O      0.74889  0.50418  0.30738     O
C      0.75336  0.37132  0.55011     C
O      0.75529  0.50418  0.80738     O
C      0.75632  0.73064  0.14857     C
S      0.75674  0.59418  0.14874     S
C      0.75899  0.55278  0.84049     C
H       0.7606    0.403   0.4891     H
H        0.762   0.8496   0.6547     H
H       0.7624    0.838   0.1511     H
O      0.76739  0.54558  0.37961     O
C      0.77246  0.80432   0.6534     C
C      0.77464  0.35488  0.69837     C
O      0.77819  0.54558  0.87961     O
C       0.7796    0.365  0.65378     C
Eu     0.77965  0.41776  0.85728    Eu
C      0.78106  0.33292  0.35338     C
O      0.78572  0.20286  0.83792     O
H       0.7931   0.1988   0.3521     H
C      0.79379  0.55278  0.34049     C
O      0.79444   0.4024  0.35627     O
O       0.7972   0.8512  0.92445     O
C      0.80015   0.6717  0.64959     C
O      0.80058  0.54076  0.60893     O
H       0.8075   0.4136   0.5635     H
C      0.80891  0.15382  0.71815     C
H       0.8189   0.3924   0.7196     H
O      0.82131  0.56382  0.69113     O
C       0.8232    0.144  0.63915     C
H       0.8283    0.408   0.6449     H
H       0.8313   0.1792   0.7471     H
S      0.83744  0.59418  0.64874     S
O      0.84539  0.22218  0.57025     O
O      0.85157  0.32882  0.86077     O
C      0.85603  0.23626   0.3523     C
C      0.85662  0.26544  0.84902     C
C      0.85819  0.18378  0.68158     C
C         0.86     0.74  0.15042     C
C      0.86478  0.80896   0.6536     C
C      0.86893  0.31306  0.35441     C
C      0.87155   0.6717  0.14959     C
H       0.8776    0.596   0.2659     H
C         0.88     0.74  0.65042     C
C        0.885   0.6202  0.33322     C
S      0.89708  0.19336  0.59795     S
H       0.9124   0.1504   0.8453     H
C      0.91456  0.63112  0.29014     C
H       0.9171   0.8564   0.6557     H
H       0.9216   0.6638   0.3987     H
H       0.9244    0.162   0.3489     H
C      0.93433  0.21366   0.3506     C
H       0.9393   0.8564   0.1557     H
C      0.93983  0.67086  0.36964     C
C      0.94418  0.80896   0.1536     C
O        0.946   0.1488  0.57555     O
C      0.94729  0.25498  0.68157     C
C      0.95735   0.2649  0.84839     C
C      0.96053  0.66686  0.14948     C
C      0.96086  0.65372  0.64617     C
C      0.96204  0.36908  0.35596     C
H       0.9659   0.6196    0.148     H
C      0.96814  0.19568   0.8466     C
H       0.9726    0.421   0.3584     H
C      0.97432  0.73064  0.64857     C
C       0.9768   0.2672  0.63864     C
H       0.9832   0.2998   0.7466     H
C      0.99809  0.69338  0.28247     C
