data_I
_chemical_name_common  '/home/zhangsd/repos/MofS-CGCNN/ML/data/SSD/clean_cifs/PUMGIP01_clean'
_cell_length_a 17.04600
_cell_length_b 24.04620
_cell_length_c 28.84420
_cell_angle_alpha 90.00000
_cell_angle_beta  90.00000
_cell_angle_gamma 90.00000
_space_group_name_H-M_alt      'P 1'


loop_
_space_group_symop_operation_xyz
  'x, y, z' 

loop_
_atom_site_label
_atom_site_fract_x
_atom_site_fract_y
_atom_site_fract_z
_atom_site_type_symbol
O          0.0   0.1848     0.25     O
O          0.0   0.8152     0.75     O
C       0.0011   0.0975   0.3953     C
C       0.0011   0.9025   0.6047     C
H       0.0035   0.4346   0.8242     H
H       0.0035    0.468   0.1757     H
H       0.0035    0.532   0.8243     H
H       0.0035   0.5654   0.1758     H
H       0.0052    0.111   0.0729     H
H       0.0052    0.889   0.9271     H
H       0.0053   0.3136   0.4483     H
H       0.0053   0.6864   0.5517     H
H       0.0065   0.0117   0.5766     H
H       0.0065   0.9883   0.4234     H
H       0.0068   0.1315   0.6505     H
H       0.0068   0.8685   0.3495     H
H       0.0081   0.2279   0.6569     H
H       0.0081   0.7721   0.3431     H
H        0.011   0.2256   0.1562     H
H        0.011   0.7744   0.8438     H
C       0.0123   0.3307   0.4177     C
C       0.0123   0.6693   0.5823     C
H       0.0131   0.1289   0.3748     H
H       0.0131   0.8711   0.6252     H
C       0.0276   0.2517    0.132     C
C       0.0276   0.7483    0.868     C
C       0.0359   0.1488   0.6746     C
C       0.0359   0.8512   0.3254     C
H       0.0372   0.0317   0.4614     H
H       0.0372   0.9683   0.5386     H
C       0.0374    0.454   0.6912     C
C       0.0374    0.546   0.3088     C
H       0.0379   0.3456   0.0931     H
C       0.0379   0.4876   0.3094     C
C       0.0379   0.5124   0.6906     C
H       0.0379   0.6544   0.9069     H
C       0.0383   0.2068   0.6782     C
C       0.0383   0.7932   0.3218     C
H       0.0411   0.3564   0.8821     H
H       0.0411   0.6436   0.1179     H
C       0.0421   0.2865   0.3831     C
C       0.0421   0.7135   0.6169     C
O       0.0473   0.3338   0.7954     O
O       0.0473   0.6662   0.2046     O
H       0.0476   0.0796   0.1149     H
H       0.0476   0.9204   0.8851     H
H        0.048    0.231   0.1054     H
H        0.048    0.769   0.8946     H
H       0.0487    0.393   0.3549     H
H       0.0487    0.607   0.6451     H
C       0.0507   0.0119   0.4328     C
H       0.0507   0.3609     0.42     H
H       0.0507   0.6391     0.58     H
C       0.0507   0.9881   0.5672     C
H        0.054   0.0509   0.6355     H
H        0.054   0.9491   0.3645     H
C       0.0685   0.0288   0.6614     C
C       0.0685   0.9712   0.3386     C
H       0.0687   0.2761   0.1442     H
H       0.0687   0.7239   0.8558     H
C       0.0688   0.0549   0.3935     C
C       0.0688   0.9451   0.6065     C
C       0.0739   0.3706   0.3321     C
C       0.0739   0.6294   0.6679     C
C       0.0759   0.0285   0.3444     C
C       0.0759   0.9715   0.6556     C
C       0.0766   0.1167   0.7067     C
C       0.0766   0.8833   0.2933     C
H       0.0769    0.236   0.4383     H
H       0.0769    0.764   0.5617     H
C       0.0784   0.3136   0.3401     C
C       0.0784   0.6864   0.6599     C
N       0.0803    0.234   0.7095     N
N       0.0803    0.766   0.2905     N
C       0.0813   0.0547   0.7036     C
C       0.0813   0.9453   0.2964     C
H       0.0877   0.3637    0.958     H
H       0.0877   0.6363    0.042     H
Cd     0.09067  0.32893  0.70919    Cd
Cd     0.09067  0.67107  0.29081    Cd
V       0.0924  0.17458  0.26422     V
V       0.0924  0.82542  0.73578     V
N       0.0931   0.4252   0.7131     N
N       0.0931   0.5748   0.2869     N
O       0.0942   0.3318   0.6288     O
O       0.0942   0.6682   0.3712     O
C       0.0944   0.0611   0.3061     C
C       0.0944   0.9389   0.6939     C
C       0.0947   0.3491   0.8889     C
C       0.0947   0.6509   0.1111     C
H        0.097   0.0114   0.5618     H
H        0.097   0.9886   0.4382     H
C       0.0976   0.4585   0.2887     C
C       0.0976   0.5415   0.7113     C
O       0.0995    0.116    0.309     O
O       0.0995    0.884    0.691     O
C       0.1012   0.2495   0.4096     C
C       0.1012   0.7505   0.5904     C
C       0.1028   0.0232   0.7411     C
C       0.1028   0.9768   0.2589     C
C       0.1041   0.3973   0.2926     C
C       0.1041   0.6027   0.7074     C
H       0.1074   0.3745   0.5504     H
H       0.1074   0.6255   0.4496     H
C        0.109   0.0354   0.2622     C
C        0.109   0.9646   0.7378     C
H       0.1137    0.041   0.7698     H
H       0.1137    0.959   0.2302     H
C        0.114   0.2797   0.3046     C
C        0.114   0.7203   0.6954     C
O       0.1159   0.2254     0.31     O
O       0.1159   0.7746     0.69     O
H        0.116   0.2178   0.3902     H
H        0.116   0.7822   0.6098     H
C       0.1195   0.1454   0.7396     C
C       0.1195   0.8546   0.2604     C
C       0.1196   0.2038   0.7399     C
C       0.1196   0.7962   0.2601     C
H       0.1201   0.1555   0.1588     H
H       0.1201   0.8445   0.8412     H
C       0.1203   0.3307   0.8041     C
C       0.1203   0.6693   0.1959     C
C       0.1227   0.3537   0.9338     C
C       0.1227   0.6463   0.0662     C
H       0.1322    0.335   0.0285     H
H       0.1322    0.665   0.9715     H
C       0.1334    0.064   0.2204     C
C       0.1334    0.936   0.7796     C
H       0.1376    0.043   0.1926     H
H       0.1376    0.957   0.8074     H
C       0.1381   0.3648   0.2596     C
C       0.1381   0.6352   0.7404     C
C       0.1428   0.3062   0.2651     C
C       0.1428   0.6938   0.7349     C
H       0.1431   0.0966   0.4383     H
H       0.1431   0.9034   0.5617     H
C       0.1452   0.0843   0.4059     C
C       0.1452   0.9157   0.5941     C
C       0.1459   0.3335   0.8541     C
C       0.1459   0.6665   0.1459     C
H       0.1481   0.2713   0.4172     H
H       0.1481   0.7287   0.5828     H
H        0.149   0.1256   0.7621     H
H        0.149   0.8744   0.2379     H
N       0.1493   0.1153   0.2188     N
H       0.1493   0.2224   0.7631     H
H       0.1493   0.7776   0.2369     H
N       0.1493   0.8847   0.7812     N
C       0.1494   0.4535   0.7348     C
C       0.1494   0.5465   0.2652     C
H       0.1523   0.1166   0.3856     H
H       0.1523   0.8834   0.6144     H
C       0.1527   0.4885    0.266     C
C       0.1527   0.5115    0.734     C
H        0.159   0.3816   0.2325     H
H        0.159   0.6184   0.7675     H
C       0.1599   0.3635   0.5441     C
C       0.1599   0.6365   0.4559     C
H       0.1622   0.3937   0.4787     H
H       0.1622   0.6063   0.5213     H
V      0.16807  0.16517  0.27655     V
V      0.16807  0.83483  0.72345     V
C       0.1685   0.3299   0.6261     C
C       0.1685   0.6701   0.3739     C
C       0.1693   0.1417   0.1738     C
C       0.1693   0.8583   0.8262     C
O       0.1712   0.3256  0.77286     O
O       0.1712   0.6744  0.22714     O
H       0.1791   0.1507   0.0809     H
H       0.1791   0.8493   0.9191     H
C       0.1803   0.2753    0.227     C
C       0.1803   0.7247    0.773     C
H       0.1818   0.0718   0.1321     H
H       0.1818   0.9282   0.8679     H
N       0.1827   0.2225   0.2249     N
N       0.1827   0.7775   0.7751     N
H       0.1848   0.3519   0.1018     H
H       0.1848   0.6481   0.8982     H
C       0.1856   0.3456   0.0316     C
C       0.1856   0.6544   0.9684     C
H       0.1885   0.4336   0.7513     H
H       0.1885   0.5664   0.2487     H
H       0.1892   0.0586   0.4018     H
H       0.1892   0.9414   0.5982     H
C       0.1921   0.3742   0.5012     C
C       0.1921   0.6258   0.4988     C
H       0.1923   0.0854   0.6324     H
H       0.1923   0.9146   0.3676     H
H       0.1941   0.4699   0.2505     H
H       0.1941   0.5301   0.7495     H
H       0.1947   0.2454    0.132     H
H       0.1947   0.7546    0.868     H
H       0.1957   0.3598   0.4095     H
H       0.1957   0.6402   0.5905     H
C       0.2019   0.3439   0.9441     C
C       0.2019   0.6561   0.0559     C
C        0.203   0.3371    0.578     C
C        0.203   0.6629    0.422     C
H       0.2038   0.2959   0.2026     H
H       0.2038   0.7041   0.7974     H
O       0.2121   0.3242     0.66     O
O       0.2121   0.6758     0.34     O
C       0.2134   0.1052   0.1395     C
C       0.2134   0.8948   0.8605     C
C       0.2175   0.3555   0.0754     C
C       0.2175   0.6445   0.9246     C
C       0.2229   0.1926   0.1857     C
C       0.2229   0.3222   0.8638     C
C       0.2229   0.6778   0.1362     C
C       0.2229   0.8074   0.8143     C
C       0.2295   0.1389   0.0948     C
C       0.2295   0.8611   0.9052     C
C       0.2338   0.3517   0.9915     C
C       0.2338   0.6483   0.0085     C
H       0.2385   0.0536    0.592     H
H       0.2385   0.9464    0.408     H
C       0.2428   0.2271   0.1438     C
H       0.2428    0.374   0.3347     H
H       0.2428    0.626   0.6653     H
C       0.2428   0.7729   0.8562     C
C       0.2451   0.0753   0.6209     C
C       0.2451   0.9247   0.3791     C
H       0.2497   0.0849   0.7128     H
H       0.2497   0.9151   0.2872     H
C         0.25   0.3264   0.9092     C
C         0.25   0.3667   0.4048     C
C         0.25   0.6333   0.5952     C
C         0.25   0.6736   0.0908     C
H       0.2538   0.0073    0.664     H
H       0.2538   0.9927    0.336     H
H       0.2541   0.1741   0.6678     H
H       0.2541   0.8259   0.3322     H
H        0.257   0.1151    0.072     H
H        0.257   0.8849    0.928     H
H       0.2576   0.3116   0.8396     H
H       0.2576   0.6884   0.1604     H
H       0.2618   0.1501   0.5878     H
H       0.2618   0.8499   0.4122     H
H       0.2637   0.0928   0.1533     H
H       0.2637   0.9072   0.8467     H
C       0.2668    0.357   0.4906     C
C       0.2668    0.643   0.5094     C
H       0.2733   0.1775   0.1981     H
H       0.2733   0.8225   0.8019     H
C       0.2776   0.3762   0.3604     C
C       0.2776   0.6238   0.6396     C
C       0.2789   0.1895   0.1051     C
C       0.2789   0.8105   0.8949     C
C       0.2794    0.321   0.5678     C
C       0.2794    0.679   0.4322     C
H       0.2807   0.2564   0.1526     H
H       0.2807   0.7436   0.8474     H
H       0.2848   0.2117   0.0764     H
H       0.2848   0.7883   0.9236     H
O       0.2859   0.3793  0.16347     O
O       0.2859   0.6207  0.83653     O
C       0.2865   0.0401   0.6566     C
C       0.2865   0.9599   0.3434     C
C       0.2909   0.1274   0.6107     C
C       0.2909   0.8726   0.3893     C
C       0.2949   0.3701   0.0815     C
C       0.2949   0.6299   0.9185     C
C          0.3    0.367   0.4428     C
C          0.3    0.633   0.5572     C
C       0.3018   0.0729   0.7004     C
C       0.3018   0.9271   0.2996     C
H       0.3029   0.3169    0.916     H
H       0.3029   0.6831    0.084     H
C       0.3048   0.1621   0.6544     C
C       0.3048   0.8379   0.3456     C
C       0.3087   0.3276   0.5237     C
C       0.3087   0.6724   0.4763     C
H       0.3115   0.3055   0.5914     H
H       0.3115   0.6945   0.4086     H
C       0.3132    0.367   0.9981     C
C       0.3132    0.633   0.0019     C
H        0.322   0.0183    0.082     H
H        0.322   0.9817    0.918     H
C       0.3282   0.3821   0.1285     C
C       0.3282   0.6179   0.8715     C
H       0.3283   0.2105   0.9285     H
H       0.3283   0.7895   0.0715     H
H       0.3318   0.1773   0.1149     H
H       0.3318   0.8227   0.8851     H
O       0.3323   0.4013   0.2741     O
O       0.3323   0.5987   0.7259     O
H        0.336   0.1956   0.6468     H
H        0.336   0.8044   0.3532     H
H       0.3369   0.0267   0.6438     H
H       0.3369   0.9733   0.3562     H
H        0.342   0.1172   0.5969     H
H        0.342   0.8828   0.4031     H
C       0.3429   0.3762   0.0421     C
C       0.3429   0.6238   0.9579     C
N       0.3435   0.0449   0.7383     N
N       0.3435   0.9551   0.2617     N
H        0.344    0.027   0.2879     H
H        0.344    0.973   0.7121     H
H       0.3466   0.3712   0.9719     H
H       0.3466   0.6288   0.0281     H
C        0.349   0.1261   0.6892     C
C        0.349   0.8739   0.3108     C
H       0.3498   0.4872   0.7428     H
H       0.3498   0.5128   0.2572     H
V      0.35545   0.1003  0.79429     V
V      0.35545   0.8997  0.20571     V
C       0.3563   0.3889   0.3535     C
C       0.3563   0.6111   0.6465     C
C       0.3573   0.0065   0.2609     C
C       0.3573   0.9935   0.7391     C
H       0.3581   0.3118   0.5159     H
H       0.3581   0.6882   0.4841     H
H       0.3582   0.3915   0.7463     H
H       0.3582   0.6085   0.2537     H
H       0.3588   0.1564   0.9016     H
H       0.3588   0.8436   0.0984     H
H       0.3593   0.0405   0.9041     H
H       0.3593   0.9595   0.0959     H
N       0.3663   0.1524   0.7354     N
N       0.3663   0.8476   0.2646     N
C        0.367   0.0065   0.9224     C
C        0.367   0.9935   0.0776     C
H       0.3681   0.2903   0.2672     H
H       0.3681   0.7097   0.7328     H
H        0.371   0.2269   0.7108     H
H        0.371   0.7731   0.2892     H
H       0.3716   0.0162   0.9553     H
H       0.3716   0.9838   0.0447     H
C       0.3722   0.1844   0.9249     C
C       0.3722   0.8156   0.0751     C
H       0.3744   0.1947   0.2628     H
H       0.3744   0.8053   0.7372     H
C       0.3774   0.2055   0.7382     C
C       0.3774   0.7945   0.2618     C
C       0.3791    0.378   0.4356     C
C       0.3791    0.622   0.5644     C
C       0.3792    0.471   0.7673     C
C       0.3792    0.529   0.2327     C
C       0.3819   0.4135   0.7698     C
C       0.3819   0.5865   0.2302     C
H       0.3824   0.1661   0.9546     H
H       0.3824   0.8339   0.0454     H
C        0.384   0.4004   0.3049     C
C        0.384   0.5996   0.6951     C
H       0.3876   0.3099   0.7469     H
H       0.3876   0.6901   0.2531     H
H         0.39   0.1112   0.2592     H
H         0.39   0.8888   0.7408     H
C       0.3912   0.0372   0.2233     C
C       0.3912   0.9628   0.7767     C
C       0.3944   0.2736   0.2417     C
C       0.3944   0.7264   0.7583     C
H       0.3963   0.3867   0.0458     H
H       0.3963   0.6133   0.9542     H
C        0.397   0.2164   0.2387     C
C        0.397   0.7836   0.7613     C
C       0.3989   0.2344   0.7801     C
C       0.3989   0.7656   0.2199     C
H          0.4   0.1148   0.6749     H
H          0.4   0.8852   0.3251     H
C       0.4002   0.2932   0.7758     C
C       0.4002   0.7068   0.2242     C
O       0.4004   0.3966  0.12933     O
O       0.4004   0.6034  0.87067     O
C       0.4014   0.0954   0.2298     C
C       0.4014   0.9046   0.7702     C
O       0.4057   0.0412    0.827     O
O       0.4057   0.9588    0.173     O
C       0.4061   0.3891   0.3905     C
C       0.4061   0.6109   0.6095     C
Cd     0.40854  0.40154  0.20902    Cd
Cd     0.40854  0.59846  0.79098    Cd
C       0.4092   0.0135   0.1803     C
C       0.4092   0.9865   0.8197     C
N       0.4139   0.4957    0.204     N
N       0.4139   0.5043    0.796     N
H       0.4147   0.3781   0.4609     H
H       0.4147   0.6219   0.5391     H
V        0.416  0.09669  0.77678     V
V        0.416  0.90331  0.22322     V
C       0.4178    0.209   0.8229     C
C       0.4178    0.791   0.1771     C
O       0.4193   0.1541   0.8267     O
O       0.4193   0.8459   0.1733     O
C       0.4196    0.326   0.8128     C
C       0.4196    0.674   0.1872     C
C         0.42   0.3881   0.8076     C
C         0.42   0.6119   0.1924     C
H       0.4255   0.1013   0.0624     H
H       0.4255   0.8987   0.9376     H
C        0.427   0.1292   0.1948     C
C        0.427   0.8708   0.8052     C
N       0.4281   0.3069   0.2094     N
N       0.4281   0.6931   0.7906     N
H         0.43   0.2933   0.9439     H
H         0.43   0.7067   0.0561     H
C       0.4319   0.0477   0.1431     C
C       0.4319   0.1899   0.2012     C
C       0.4319   0.8101   0.7988     C
C       0.4319   0.9523   0.8569     C
H       0.4329   0.2001   0.5983     H
H       0.4329   0.7999   0.4017     H
C       0.4339   0.2433   0.8616     C
C       0.4339   0.7567   0.1384     C
C       0.4352   0.3005    0.855     C
C       0.4352   0.6995    0.145     C
H       0.4379   0.0053   0.4046     H
H       0.4379   0.9947   0.5954     H
C       0.4427   0.1044   0.1514     C
C       0.4427   0.8956   0.8486     C
C       0.4441   0.0236    0.094     C
C       0.4441   0.9764    0.906     C
H       0.4475   0.3234   0.8808     H
H       0.4475   0.6766   0.1192     H
C       0.4483   0.2175   0.9089     C
C       0.4483   0.7825   0.0911     C
C       0.4514   0.4803    0.832     C
C       0.4514   0.5197    0.168     C
C       0.4531   0.4225    0.837     C
C       0.4531   0.5775    0.163     C
O        0.455   0.4071   0.2966     O
O        0.455   0.5929   0.7034     O
H       0.4555   0.0553   0.0264     H
H       0.4555   0.9447   0.9736     H
H       0.4574   0.2447   0.9782     H
H       0.4574   0.7553   0.0218     H
H       0.4601   0.3969   0.3856     H
H       0.4601   0.6031   0.6144     H
H       0.4614   0.1272   0.1269     H
H       0.4614   0.8728   0.8731     H
C       0.4619   0.0702   0.0578     C
C       0.4619   0.9298   0.9422     C
C       0.4639   0.2822   0.1739     C
C       0.4639   0.7178   0.8261     C
C       0.4655   0.2616   0.9476     C
C       0.4655   0.7384   0.0524     C
C       0.4677   0.2248   0.1681     C
C       0.4677   0.7752   0.8319     C
H       0.4753   0.1602   0.5616     H
H       0.4753   0.8398   0.4384     H
H       0.4771    0.497   0.1458     H
H       0.4771    0.503   0.8542     H
H       0.4796   0.4073   0.8631     H
H       0.4796   0.5927   0.1369     H
H       0.4801   0.2743    0.555     H
H       0.4801   0.7257    0.445     H
C       0.4804   0.1785   0.5918     C
C       0.4804   0.8215   0.4082     C
H       0.4841   0.0834   0.4381     H
H       0.4841   0.9166   0.5619     H
C       0.4869    0.016   0.5934     C
C       0.4869    0.984   0.4066     C
H       0.4876   0.0375   0.5646     H
H       0.4876   0.1504    0.616     H
H       0.4876   0.8496    0.384     H
H       0.4876   0.9625   0.4354     H
H       0.4882   0.3051   0.1511     H
H       0.4882   0.6949   0.8489     H
H       0.4905   0.0413     0.62     H
H       0.4905   0.9587     0.38     H
H       0.4942   0.2093   0.1422     H
H       0.4942   0.7907   0.8578     H
O          0.5   0.0889     0.75     O
O          0.5   0.9111     0.25     O
H       0.5058   0.2093   0.3578     H
H       0.5058   0.7907   0.6422     H
H       0.5095   0.0413     0.88     H
H       0.5095   0.9587     0.12     H
H       0.5118   0.3051   0.3489     H
H       0.5118   0.6949   0.6511     H
H       0.5124   0.0375   0.9354     H
H       0.5124   0.1504    0.884     H
H       0.5124   0.8496    0.116     H
H       0.5124   0.9625   0.0646     H
C       0.5131    0.016   0.9066     C
C       0.5131    0.984   0.0934     C
H       0.5159   0.0834   0.0619     H
H       0.5159   0.9166   0.9381     H
C       0.5196   0.1785   0.9082     C
C       0.5196   0.8215   0.0918     C
H       0.5199   0.2743    0.945     H
H       0.5199   0.7257    0.055     H
H       0.5204   0.4073   0.6369     H
H       0.5204   0.5927   0.3631     H
H       0.5229    0.497   0.3542     H
H       0.5229    0.503   0.6458     H
H       0.5247   0.1602   0.9384     H
H       0.5247   0.8398   0.0616     H
C       0.5323   0.2248   0.3319     C
C       0.5323   0.7752   0.6681     C
C       0.5345   0.2616   0.5524     C
C       0.5345   0.7384   0.4476     C
C       0.5361   0.2822   0.3261     C
C       0.5361   0.7178   0.6739     C
C       0.5381   0.0702   0.4422     C
C       0.5381   0.9298   0.5578     C
H       0.5386   0.1272   0.3731     H
H       0.5386   0.8728   0.6269     H
H       0.5399   0.3969   0.1144     H
H       0.5399   0.6031   0.8856     H
H       0.5426   0.2447   0.5218     H
H       0.5426   0.7553   0.4782     H
H       0.5445   0.0553   0.4736     H
H       0.5445   0.9447   0.5264     H
O        0.545   0.4071   0.2034     O
O        0.545   0.5929   0.7966     O
C       0.5469   0.4225    0.663     C
C       0.5469   0.5775    0.337     C
C       0.5486   0.4803    0.668     C
C       0.5486   0.5197    0.332     C
C       0.5517   0.2175   0.5911     C
C       0.5517   0.7825   0.4089     C
H       0.5525   0.3234   0.6192     H
H       0.5525   0.6766   0.3808     H
C       0.5559   0.0236    0.406     C
C       0.5559   0.9764    0.594     C
C       0.5573   0.1044   0.3486     C
C       0.5573   0.8956   0.6514     C
H       0.5621   0.0053   0.0954     H
H       0.5621   0.9947   0.9046     H
C       0.5648   0.3005    0.645     C
C       0.5648   0.6995    0.355     C
C       0.5661   0.2433   0.6384     C
C       0.5661   0.7567   0.3616     C
H       0.5671   0.2001   0.9017     H
H       0.5671   0.7999   0.0983     H
C       0.5681   0.0477   0.3569     C
C       0.5681   0.1899   0.2988     C
C       0.5681   0.8101   0.7012     C
C       0.5681   0.9523   0.6431     C
H         0.57   0.2933   0.5561     H
H         0.57   0.7067   0.4439     H
N       0.5719   0.3069   0.2906     N
N       0.5719   0.6931   0.7094     N
C        0.573   0.1292   0.3052     C
C        0.573   0.8708   0.6948     C
H       0.5745   0.1013   0.4376     H
H       0.5745   0.8987   0.5624     H
C         0.58   0.3881   0.6924     C
C         0.58   0.6119   0.3076     C
C       0.5804    0.326   0.6872     C
C       0.5804    0.674   0.3128     C
O       0.5807   0.1541   0.6733     O
O       0.5807   0.8459   0.3267     O
C       0.5822    0.209   0.6771     C
C       0.5822    0.791   0.3229     C
V        0.584  0.09669  0.72322     V
V        0.584  0.90331  0.27678     V
H       0.5853   0.3781   0.0391     H
H       0.5853   0.6219   0.9609     H
N       0.5861   0.4957    0.296     N
N       0.5861   0.5043    0.704     N
C       0.5908   0.0135   0.3197     C
C       0.5908   0.9865   0.6803     C
Cd     0.59146  0.40154  0.29098    Cd
Cd     0.59146  0.59846  0.70902    Cd
C       0.5939   0.3891   0.1095     C
C       0.5939   0.6109   0.8905     C
O       0.5943   0.0412    0.673     O
O       0.5943   0.9588    0.327     O
C       0.5986   0.0954   0.2702     C
C       0.5986   0.9046   0.7298     C
O       0.5996   0.3966  0.37067     O
O       0.5996   0.6034  0.62933     O
C       0.5998   0.2932   0.7242     C
C       0.5998   0.7068   0.2758     C
H          0.6   0.1148   0.8251     H
H          0.6   0.8852   0.1749     H
C       0.6011   0.2344   0.7199     C
C       0.6011   0.7656   0.2801     C
C        0.603   0.2164   0.2613     C
C        0.603   0.7836   0.7387     C
H       0.6037   0.3867   0.4542     H
H       0.6037   0.6133   0.5458     H
C       0.6056   0.2736   0.2583     C
C       0.6056   0.7264   0.7417     C
C       0.6088   0.0372   0.2767     C
C       0.6088   0.9628   0.7233     C
H         0.61   0.1112   0.2408     H
H         0.61   0.8888   0.7592     H
H       0.6124   0.3099   0.7531     H
H       0.6124   0.6901   0.2469     H
C        0.616   0.4004   0.1951     C
C        0.616   0.5996   0.8049     C
H       0.6176   0.1661   0.5454     H
H       0.6176   0.8339   0.4546     H
C       0.6181   0.4135   0.7302     C
C       0.6181   0.5865   0.2698     C
C       0.6208    0.471   0.7327     C
C       0.6208    0.529   0.2673     C
C       0.6209    0.378   0.0644     C
C       0.6209    0.622   0.9356     C
C       0.6226   0.2055   0.7618     C
C       0.6226   0.7945   0.2382     C
H       0.6256   0.1947   0.2372     H
H       0.6256   0.8053   0.7628     H
C       0.6278   0.1844   0.5751     C
C       0.6278   0.8156   0.4249     C
H       0.6284   0.0162   0.5447     H
H       0.6284   0.9838   0.4553     H
H        0.629   0.2269   0.7892     H
H        0.629   0.7731   0.2108     H
H       0.6319   0.2903   0.2328     H
H       0.6319   0.7097   0.7672     H
C        0.633   0.0065   0.5776     C
C        0.633   0.9935   0.4224     C
N       0.6337   0.1524   0.7646     N
N       0.6337   0.8476   0.2354     N
H       0.6407   0.0405   0.5959     H
H       0.6407   0.9595   0.4041     H
H       0.6412   0.1564   0.5984     H
H       0.6412   0.8436   0.4016     H
H       0.6418   0.3915   0.7537     H
H       0.6418   0.6085   0.2463     H
H       0.6419   0.3118   0.9841     H
H       0.6419   0.6882   0.0159     H
C       0.6427   0.0065   0.2391     C
C       0.6427   0.9935   0.7609     C
C       0.6437   0.3889   0.1465     C
C       0.6437   0.6111   0.8535     C
V      0.64455   0.1003  0.70571     V
V      0.64455   0.8997  0.29429     V
H       0.6502   0.4872   0.7572     H
H       0.6502   0.5128   0.2428     H
C        0.651   0.1261   0.8108     C
C        0.651   0.8739   0.1892     C
H       0.6534   0.3712   0.5281     H
H       0.6534   0.6288   0.4719     H
H        0.656    0.027   0.2121     H
H        0.656    0.973   0.7879     H
N       0.6565   0.0449   0.7617     N
N       0.6565   0.9551   0.2383     N
C       0.6571   0.3762   0.4579     C
C       0.6571   0.6238   0.5421     C
H        0.658   0.1172   0.9031     H
H        0.658   0.8828   0.0969     H
H       0.6631   0.0267   0.8562     H
H       0.6631   0.9733   0.1438     H
H        0.664   0.1956   0.8532     H
H        0.664   0.8044   0.1468     H
O       0.6677   0.4013   0.2259     O
O       0.6677   0.5987   0.7741     O
H       0.6682   0.1773   0.3851     H
H       0.6682   0.8227   0.6149     H
H       0.6717   0.2105   0.5715     H
H       0.6717   0.7895   0.4285     H
C       0.6718   0.3821   0.3715     C
C       0.6718   0.6179   0.6285     C
H        0.678   0.0183    0.418     H
H        0.678   0.9817    0.582     H
C       0.6868    0.367   0.5019     C
C       0.6868    0.633   0.4981     C
H       0.6885   0.3055   0.9086     H
H       0.6885   0.6945   0.0914     H
C       0.6913   0.3276   0.9763     C
C       0.6913   0.6724   0.0237     C
C       0.6952   0.1621   0.8456     C
C       0.6952   0.8379   0.1544     C
H       0.6971   0.3169    0.584     H
H       0.6971   0.6831    0.416     H
C       0.6982   0.0729   0.7996     C
C       0.6982   0.9271   0.2004     C
C          0.7    0.367   0.0572     C
C          0.7    0.633   0.9428     C
C       0.7051   0.3701   0.4185     C
C       0.7051   0.6299   0.5815     C
C       0.7091   0.1274   0.8893     C
C       0.7091   0.8726   0.1107     C
C       0.7135   0.0401   0.8434     C
C       0.7135   0.9599   0.1566     C
O       0.7141   0.3793  0.33653     O
O       0.7141   0.6207  0.66347     O
H       0.7152   0.2117   0.4236     H
H       0.7152   0.7883   0.5764     H
H       0.7193   0.2564   0.3474     H
H       0.7193   0.7436   0.6526     H
C       0.7206    0.321   0.9322     C
C       0.7206    0.679   0.0678     C
C       0.7211   0.1895   0.3949     C
C       0.7211   0.8105   0.6051     C
C       0.7224   0.3762   0.1396     C
C       0.7224   0.6238   0.8604     C
H       0.7267   0.1775   0.3019     H
H       0.7267   0.8225   0.6981     H
C       0.7332    0.357   0.0094     C
C       0.7332    0.643   0.9906     C
H       0.7363   0.0928   0.3467     H
H       0.7363   0.9072   0.6533     H
H       0.7382   0.1501   0.9122     H
H       0.7382   0.8499   0.0878     H
H       0.7424   0.3116   0.6604     H
H       0.7424   0.6884   0.3396     H
H        0.743   0.1151    0.428     H
H        0.743   0.8849    0.572     H
H       0.7459   0.1741   0.8322     H
H       0.7459   0.8259   0.1678     H
H       0.7462   0.0073    0.836     H
H       0.7462   0.9927    0.164     H
C         0.75   0.3264   0.5908     C
C         0.75   0.3667   0.0952     C
C         0.75   0.6333   0.9048     C
C         0.75   0.6736   0.4092     C
H       0.7503   0.0849   0.7872     H
H       0.7503   0.9151   0.2128     H
C       0.7549   0.0753   0.8791     C
C       0.7549   0.9247   0.1209     C
C       0.7572   0.2271   0.3562     C
H       0.7572    0.374   0.1653     H
H       0.7572    0.626   0.8347     H
C       0.7572   0.7729   0.6438     C
H       0.7615   0.0536    0.908     H
H       0.7615   0.9464    0.092     H
C       0.7662   0.3517   0.5085     C
C       0.7662   0.6483   0.4915     C
C       0.7705   0.1389   0.4052     C
C       0.7705   0.8611   0.5948     C
C       0.7771   0.1926   0.3143     C
C       0.7771   0.3222   0.6362     C
C       0.7771   0.6778   0.3638     C
C       0.7771   0.8074   0.6857     C
C       0.7825   0.3555   0.4246     C
C       0.7825   0.6445   0.5754     C
C       0.7866   0.1052   0.3605     C
C       0.7866   0.8948   0.6395     C
O       0.7879   0.3242     0.84     O
O       0.7879   0.6758     0.16     O
H       0.7962   0.2959   0.2974     H
H       0.7962   0.7041   0.7026     H
C        0.797   0.3371    0.922     C
C        0.797   0.6629    0.078     C
C       0.7981   0.3439   0.5559     C
C       0.7981   0.6561   0.4441     C
H       0.8043   0.3598   0.0905     H
H       0.8043   0.6402   0.9095     H
H       0.8053   0.2454    0.368     H
H       0.8053   0.7546    0.632     H
H       0.8059   0.4699   0.2495     H
H       0.8059   0.5301   0.7505     H
H       0.8077   0.0854   0.8676     H
H       0.8077   0.9146   0.1324     H
C       0.8079   0.3742   0.9988     C
C       0.8079   0.6258   0.0012     C
H       0.8108   0.0586   0.0982     H
H       0.8108   0.9414   0.9018     H
H       0.8115   0.4336   0.7487     H
H       0.8115   0.5664   0.2513     H
C       0.8144   0.3456   0.4684     C
C       0.8144   0.6544   0.5316     C
H       0.8152   0.3519   0.3982     H
H       0.8152   0.6481   0.6018     H
N       0.8173   0.2225   0.2751     N
N       0.8173   0.7775   0.7249     N
H       0.8182   0.0718   0.3679     H
H       0.8182   0.9282   0.6321     H
C       0.8197   0.2753    0.273     C
C       0.8197   0.7247    0.727     C
H       0.8209   0.1507   0.4191     H
H       0.8209   0.8493   0.5809     H
O       0.8288   0.3256  0.72714     O
O       0.8288   0.6744  0.27286     O
C       0.8307   0.1417   0.3262     C
C       0.8307   0.8583   0.6738     C
C       0.8315   0.3299   0.8739     C
C       0.8315   0.6701   0.1261     C
V      0.83193  0.16517  0.22345     V
V      0.83193  0.83483  0.77655     V
H       0.8378   0.3937   0.0213     H
H       0.8378   0.6063   0.9787     H
C       0.8401   0.3635   0.9559     C
C       0.8401   0.6365   0.0441     C
H        0.841   0.3816   0.2675     H
H        0.841   0.6184   0.7325     H
C       0.8473   0.4885    0.234     C
C       0.8473   0.5115    0.766     C
H       0.8477   0.1166   0.1144     H
H       0.8477   0.8834   0.8856     H
C       0.8506   0.4535   0.7652     C
C       0.8506   0.5465   0.2348     C
N       0.8507   0.1153   0.2812     N
H       0.8507   0.2224   0.7369     H
H       0.8507   0.7776   0.2631     H
N       0.8507   0.8847   0.7188     N
H        0.851   0.1256   0.7379     H
H        0.851   0.8744   0.2621     H
H       0.8519   0.2713   0.0828     H
H       0.8519   0.7287   0.9172     H
C       0.8541   0.3335   0.6459     C
C       0.8541   0.6665   0.3541     C
C       0.8548   0.0843   0.0941     C
C       0.8548   0.9157   0.9059     C
H       0.8569   0.0966   0.0617     H
H       0.8569   0.9034   0.9383     H
C       0.8572   0.3062   0.2349     C
C       0.8572   0.6938   0.7651     C
C       0.8619   0.3648   0.2404     C
C       0.8619   0.6352   0.7596     C
H       0.8624    0.043   0.3074     H
H       0.8624    0.957   0.6926     H
C       0.8666    0.064   0.2796     C
C       0.8666    0.936   0.7204     C
H       0.8678    0.335   0.4715     H
H       0.8678    0.665   0.5285     H
C       0.8773   0.3537   0.5662     C
C       0.8773   0.6463   0.4338     C
C       0.8797   0.3307   0.6959     C
C       0.8797   0.6693   0.3041     C
H       0.8799   0.1555   0.3412     H
H       0.8799   0.8445   0.6588     H
C       0.8804   0.2038   0.7601     C
C       0.8804   0.7962   0.2399     C
C       0.8805   0.1454   0.7604     C
C       0.8805   0.8546   0.2396     C
H        0.884   0.2178   0.1098     H
H        0.884   0.7822   0.8902     H
O       0.8841   0.2254     0.19     O
O       0.8841   0.7746     0.81     O
C        0.886   0.2797   0.1954     C
C        0.886   0.7203   0.8046     C
H       0.8863    0.041   0.7302     H
H       0.8863    0.959   0.2698     H
C        0.891   0.0354   0.2378     C
C        0.891   0.9646   0.7622     C
H       0.8926   0.3745   0.9496     H
H       0.8926   0.6255   0.0504     H
C       0.8959   0.3973   0.2074     C
C       0.8959   0.6027   0.7926     C
C       0.8972   0.0232   0.7589     C
C       0.8972   0.9768   0.2411     C
C       0.8988   0.2495   0.0904     C
C       0.8988   0.7505   0.9096     C
O       0.9005    0.116    0.191     O
O       0.9005    0.884    0.809     O
C       0.9024   0.4585   0.2113     C
C       0.9024   0.5415   0.7887     C
H        0.903   0.0114   0.9382     H
H        0.903   0.9886   0.0618     H
C       0.9053   0.3491   0.6111     C
C       0.9053   0.6509   0.3889     C
C       0.9056   0.0611   0.1939     C
C       0.9056   0.9389   0.8061     C
O       0.9058   0.3318   0.8712     O
O       0.9058   0.6682   0.1288     O
N       0.9069   0.4252   0.7869     N
N       0.9069   0.5748   0.2131     N
V       0.9076  0.17458  0.23578     V
V       0.9076  0.82542  0.76422     V
Cd     0.90933  0.32893  0.79081    Cd
Cd     0.90933  0.67107  0.20919    Cd
H       0.9123   0.3637    0.542     H
H       0.9123   0.6363    0.458     H
C       0.9187   0.0547   0.7964     C
C       0.9187   0.9453   0.2036     C
N       0.9197    0.234   0.7905     N
N       0.9197    0.766   0.2095     N
C       0.9216   0.3136   0.1599     C
C       0.9216   0.6864   0.8401     C
H       0.9231    0.236   0.0617     H
H       0.9231    0.764   0.9383     H
C       0.9234   0.1167   0.7933     C
C       0.9234   0.8833   0.2067     C
C       0.9241   0.0285   0.1556     C
C       0.9241   0.9715   0.8444     C
C       0.9261   0.3706   0.1679     C
C       0.9261   0.6294   0.8321     C
C       0.9312   0.0549   0.1065     C
C       0.9312   0.9451   0.8935     C
H       0.9313   0.2761   0.3558     H
H       0.9313   0.7239   0.6442     H
C       0.9315   0.0288   0.8386     C
C       0.9315   0.9712   0.1614     C
H        0.946   0.0509   0.8645     H
H        0.946   0.9491   0.1355     H
C       0.9493   0.0119   0.0672     C
H       0.9493   0.3609     0.08     H
H       0.9493   0.6391     0.92     H
C       0.9493   0.9881   0.9328     C
H       0.9513    0.393   0.1451     H
H       0.9513    0.607   0.8549     H
H        0.952    0.231   0.3946     H
H        0.952    0.769   0.6054     H
H       0.9524   0.0796   0.3851     H
H       0.9524   0.9204   0.6149     H
O       0.9527   0.3338   0.7046     O
O       0.9527   0.6662   0.2954     O
C       0.9579   0.2865   0.1169     C
C       0.9579   0.7135   0.8831     C
H       0.9589   0.3564   0.6179     H
H       0.9589   0.6436   0.3821     H
C       0.9617   0.2068   0.8218     C
C       0.9617   0.7932   0.1782     C
H       0.9621   0.3456   0.4069     H
C       0.9621   0.4876   0.1906     C
C       0.9621   0.5124   0.8094     C
H       0.9621   0.6544   0.5931     H
C       0.9626    0.454   0.8088     C
C       0.9626    0.546   0.1912     C
H       0.9628   0.0317   0.0386     H
H       0.9628   0.9683   0.9614     H
C       0.9641   0.1488   0.8254     C
C       0.9641   0.8512   0.1746     C
C       0.9724   0.2517    0.368     C
C       0.9724   0.7483    0.632     C
H       0.9869   0.1289   0.1252     H
H       0.9869   0.8711   0.8748     H
C       0.9877   0.3307   0.0823     C
C       0.9877   0.6693   0.9177     C
H        0.989   0.2256   0.3438     H
H        0.989   0.7744   0.6562     H
H       0.9919   0.2279   0.8431     H
H       0.9919   0.7721   0.1569     H
H       0.9932   0.1315   0.8495     H
H       0.9932   0.8685   0.1505     H
H       0.9935   0.0117   0.9234     H
H       0.9935   0.9883   0.0766     H
H       0.9947   0.3136   0.0517     H
H       0.9947   0.6864   0.9483     H
H       0.9948    0.111   0.4271     H
H       0.9948    0.889   0.5729     H
H       0.9965   0.4346   0.6758     H
H       0.9965    0.468   0.3243     H
H       0.9965    0.532   0.6757     H
H       0.9965   0.5654   0.3242     H
C       0.9989   0.0975   0.1047     C
C       0.9989   0.9025   0.8953     C
