data_I
_chemical_name_common  '/home/zhangsd/repos/MofS-CGCNN/ML/data/SSD/clean_cifs/PUNCIL_clean'
_cell_length_a 12.50800
_cell_length_b 12.75400
_cell_length_c 15.26500
_cell_angle_alpha 90.00000
_cell_angle_beta  104.78200
_cell_angle_gamma 90.00000
_space_group_name_H-M_alt      'P 1'


loop_
_space_group_symop_operation_xyz
  'x, y, z' 

loop_
_atom_site_label
_atom_site_fract_x
_atom_site_fract_y
_atom_site_fract_z
_atom_site_type_symbol
C        0.008     0.65   0.0189     C
C        0.008     0.85   0.5189     C
H       0.0201   0.6821   0.3806     H
H       0.0201   0.8179   0.8806     H
H       0.0257    0.109   0.4453     H
H       0.0257    0.391   0.9453     H
C       0.0326   0.7355  0.42347     C
C       0.0326   0.7645  0.92347     C
N      0.04379   0.2266  0.53925     N
N      0.04379   0.2734  0.03925     N
H       0.0929   0.6722    0.784     H
H       0.0929   0.8278    0.284     H
H       0.1052   0.6724   0.6145     H
H       0.1052   0.8276   0.1145     H
C        0.115   0.6425    0.017     C
C        0.115   0.8575    0.517     C
H       0.1241   0.5678   0.8385     H
H       0.1241   0.9322   0.3385     H
C       0.1292   0.6045   0.6309     C
C       0.1292   0.8955   0.1309     C
N      0.13054   0.7161  0.95519     N
N      0.13054   0.7839  0.45519     N
H       0.1328   0.5347   0.5127     H
H       0.1328   0.9653   0.0127     H
C       0.1444    0.528   0.5751     C
C       0.1444    0.972   0.0751     C
C       0.1486   0.6177  0.79979     C
C       0.1486   0.8823  0.29979     C
N      0.15564   0.5637   0.7163     N
N      0.15564   0.9363   0.2163     N
H       0.1677   0.5968   0.0505     H
H       0.1677   0.9032   0.5505     H
N       0.1793   0.0613  0.12335     N
N       0.1793   0.4387  0.62335     N
C       0.1841   0.0365   0.2076     C
C       0.1841   0.4635   0.7076     C
H       0.2048    0.083   0.2559     H
H       0.2048    0.417   0.7559     H
H       0.2241   0.6873   0.4029     H
H       0.2241   0.8127   0.9029     H
Cd     0.22658   0.2256  0.08202    Cd
Cd     0.22658  0.27441  0.58202    Cd
C       0.2311   0.7417  0.92664     C
C       0.2311   0.7583  0.42664     C
H       0.2398   0.1009   0.4142     H
H       0.2398   0.3991   0.9142     H
H       0.2482   0.7143   0.2588     H
H       0.2482   0.7857   0.7588     H
C        0.258   0.6677  0.85403     C
C        0.258   0.8323  0.35403     C
C       0.2758   0.0676   0.4679     C
C       0.2758   0.4324   0.9679     C
N       0.2796   0.1051  0.54862     N
N       0.2796   0.3949  0.04862     N
H       0.2934   0.7409   0.9797     H
H       0.2934   0.7591   0.4797     H
C       0.3039   0.7346  0.78679     C
C       0.3039   0.7654  0.28679     C
H       0.3152   0.6889   0.7391     H
H       0.3152   0.8111   0.2391     H
N      0.32943   0.5235  0.97111     N
N      0.32943   0.9765  0.47111     N
C         0.34   0.0324   0.6081     C
C         0.34   0.4676   0.1081     C
C       0.3476   0.5861   0.8956     C
C       0.3476   0.9139   0.3956     C
H       0.3548   0.5385   0.8479     H
H       0.3548   0.9615   0.3479     H
H       0.3561   0.0371    0.671     H
H       0.3561   0.4629    0.171     H
H       0.3681   0.5652   0.3687     H
H       0.3681   0.9348   0.8687     H
C       0.3721   0.5463   0.0618     C
C       0.3721   0.9537   0.5618     C
N      0.40745   0.7098  0.32632     N
N      0.40745   0.7902  0.82632     N
N       0.4124   0.1827  0.13261     N
N       0.4124   0.3173  0.63261     N
H       0.4145   0.6043   0.0859     H
H       0.4145   0.8957   0.5859     H
H       0.4176   0.6226   0.9164     H
H       0.4176   0.8774   0.4164     H
C       0.4228   0.6118   0.3624     C
C       0.4228   0.8882   0.8624     C
H       0.4322   0.0345   0.0858     H
H       0.4322   0.4655   0.5858     H
C       0.4665   0.0955   0.1125     C
C       0.4665   0.4045   0.6125     C
H       0.4792   0.1857   0.6917     H
H       0.4792   0.3143   0.1917     H
C       0.4916   0.2484  0.17009     C
C       0.4916   0.2516  0.67009     C
C       0.5084   0.7484  0.32991     C
C       0.5084   0.7516  0.82991     C
H       0.5208   0.6857   0.8083     H
H       0.5208   0.8143   0.3083     H
C       0.5335   0.5955   0.3875     C
C       0.5335   0.9045   0.8875     C
H       0.5678   0.5345   0.4142     H
H       0.5678   0.9655   0.9142     H
C       0.5772   0.1118   0.1376     C
C       0.5772   0.3882   0.6376     C
H       0.5824   0.1226   0.5836     H
H       0.5824   0.3774   0.0836     H
H       0.5855   0.1043   0.4141     H
H       0.5855   0.3957   0.9141     H
N       0.5876   0.6827  0.36739     N
N       0.5876   0.8173  0.86739     N
N      0.59255   0.2098  0.17368     N
N      0.59255   0.2902  0.67368     N
C       0.6279   0.0463   0.4382     C
C       0.6279   0.4537   0.9382     C
H       0.6319   0.0652   0.1313     H
H       0.6319   0.4348   0.6313     H
H       0.6439   0.5371    0.829     H
H       0.6439   0.9629    0.329     H
H       0.6452   0.0385   0.6521     H
H       0.6452   0.4615   0.1521     H
C       0.6524   0.0861   0.6044     C
C       0.6524   0.4139   0.1044     C
C         0.66   0.5324   0.8919     C
C         0.66   0.9676   0.3919     C
N      0.67057   0.0235  0.52889     N
N      0.67057   0.4765  0.02889     N
H       0.6848   0.1889   0.7609     H
H       0.6848   0.3111   0.2609     H
C       0.6961   0.2346  0.71321     C
C       0.6961   0.2654  0.21321     C
H       0.7066   0.2409   0.5203     H
H       0.7066   0.2591   0.0203     H
N       0.7204   0.6051  0.95138     N
N       0.7204   0.8949  0.45138     N
C       0.7242   0.5676   0.0321     C
C       0.7242   0.9324   0.5321     C
C        0.742   0.1677  0.64597     C
C        0.742   0.3323  0.14597     C
H       0.7518   0.2143   0.2412     H
H       0.7518   0.2857   0.7412     H
H       0.7602   0.6009   0.0858     H
H       0.7602   0.8991   0.5858     H
C       0.7689   0.2417  0.57336     C
C       0.7689   0.2583  0.07336     C
Cd     0.77342   0.7256  0.41798    Cd
Cd     0.77342  0.77441  0.91798    Cd
H       0.7759   0.1873   0.0971     H
H       0.7759   0.3127   0.5971     H
H       0.7952    0.583   0.2441     H
H       0.7952    0.917   0.7441     H
C       0.8159   0.5365   0.2924     C
C       0.8159   0.9635   0.7924     C
N       0.8207   0.5613  0.37665     N
N       0.8207   0.9387  0.87665     N
H       0.8323   0.0968   0.4495     H
H       0.8323   0.4032   0.9495     H
N      0.84436   0.0637   0.7837     N
N      0.84436   0.4363   0.2837     N
C       0.8514   0.1177  0.70021     C
C       0.8514   0.3823  0.20021     C
C       0.8556    0.028   0.9249     C
C       0.8556    0.472   0.4249     C
H       0.8672   0.0347   0.9873     H
H       0.8672   0.4653   0.4873     H
N      0.86946   0.2161  0.54481     N
N      0.86946   0.2839  0.04481     N
C       0.8708   0.1045   0.8691     C
C       0.8708   0.3955   0.3691     C
H       0.8759   0.0678   0.6615     H
H       0.8759   0.4322   0.1615     H
C        0.885   0.1425    0.483     C
C        0.885   0.3575    0.983     C
H       0.8948   0.1724   0.8855     H
H       0.8948   0.3276   0.3855     H
H       0.9071   0.1722    0.716     H
H       0.9071   0.3278    0.216     H
N      0.95621   0.7266  0.96075     N
N      0.95621   0.7734  0.46075     N
C       0.9674   0.2355  0.07653     C
C       0.9674   0.2645  0.57653     C
H       0.9743    0.609   0.0547     H
H       0.9743    0.891   0.5547     H
H       0.9799   0.1821   0.1194     H
H       0.9799   0.3179   0.6194     H
C        0.992     0.15   0.4811     C
C        0.992     0.35   0.9811     C
