data_I
_chemical_name_common  '/home/zhangsd/repos/MofS-CGCNN/ML/data/SSD/clean_cifs/PURJIW_clean'
_cell_length_a 12.45800
_cell_length_b 17.20890
_cell_length_c 28.38730
_cell_angle_alpha 81.60040
_cell_angle_beta  77.32450
_cell_angle_gamma 68.77910
_space_group_name_H-M_alt      'P 1'


loop_
_space_group_symop_operation_xyz
  'x, y, z' 

loop_
_atom_site_label
_atom_site_fract_x
_atom_site_fract_y
_atom_site_fract_z
_atom_site_type_symbol
O      0.00022  0.21578  0.92738     O
H       0.0013   0.7741   0.3561     H
C      0.00153  0.25236  0.00358     C
H       0.0138    0.443   0.4494     H
C      0.01746     0.91  0.82368     C
H        0.018   0.2752   0.0702     H
C      0.02656  0.14773  0.89775     C
H       0.0277   0.7942   0.8128     H
H       0.0283   0.4928    0.266     H
O      0.03284  0.04615  0.82835     O
H       0.0428   0.7091   0.3149     H
H       0.0457   0.5479   0.6239     H
C      0.04643  0.57763  0.55211     C
C      0.05153  0.23695  0.04559     C
H       0.0528   0.0786    0.153     H
H       0.0529   0.9795   0.1065     H
C      0.05315  0.19694  0.96816     C
C      0.05364  0.64926  0.38446     C
H        0.058   0.7234    0.435     H
H        0.059   0.8421   0.2795     H
C      0.05919  0.72003  0.34539     C
H       0.0627   0.0939   0.9157     H
O      0.06288  0.61102  0.46878     O
C      0.06574  0.83446  0.80346     C
H        0.066   0.7001   0.0001     H
H       0.0668   0.7909   0.1851     H
C      0.06684  0.93555  0.13337     C
C      0.07092  0.96923  0.81013     C
C      0.07204  0.35227  0.60225     C
H       0.0723   0.4061   0.5843     H
C      0.08168  0.57237  0.59567     C
H       0.0827   0.1534    0.868     H
C      0.08736  0.85074  0.11554     C
O      0.09266  0.54615  0.32835     O
H       0.0938    0.943   0.9494     H
C      0.09497  0.66398  0.42768     C
C      0.09682  0.45229  0.27547     C
C      0.09855  0.61268  0.51062     C
H       0.1041   0.3466    0.632     H
H       0.1118   0.3642   0.2318     H
H       0.1186   0.9527   0.2395     H
C      0.12461  0.77997  0.15461     C
C      0.13085  0.84612  0.28298     C
H       0.1315   0.7259   0.1439     H
C      0.13576  0.56445  0.36663     C
H       0.1367   0.9339   0.1453     H
H       0.1389   0.5205   0.3935     H
O      0.14268  0.88898  0.03122     O
O      0.14338  0.28422  0.57262     O
C      0.14624  0.37565  0.25547     C
C      0.14741  0.16773  0.05145     C
C      0.14972  0.46923  0.31013     C
C      0.15062  0.12853  0.97423     C
O      0.16071  0.56483  0.68237     O
C       0.1672  0.91121  0.25899     C
O      0.16763  0.20372  0.12662     O
C      0.16864  0.60232   0.5986     C
C       0.1697  0.81513  0.76947     C
O       0.1705  0.67987  0.76193     O
C      0.17542  0.95229  0.77547     C
O      0.17563  0.72142  0.33858     O
C      0.17617  0.92237  0.94789     C
H       0.1806   0.6579   0.2205     H
H        0.181   0.6503   0.4205     H
C      0.18437  0.64459  0.51327     C
H       0.1866   0.0908   0.9494     H
C      0.18663  0.83602  0.07232     C
C      0.19631  0.11413  0.01545     C
C        0.202  0.78706  0.31214     C
C      0.20279  0.14959  0.09703     C
Zn     0.20372  0.56916  0.74378    Zn
C       0.2067  0.59879  0.64521     C
H       0.2129   0.9928    0.766     H
H       0.2159   0.5661   0.3547     H
H       0.2164   0.7766    0.065     H
H       0.2175   0.9521   0.8761     H
C      0.21825  0.30306  0.53184     C
H       0.2185   0.6706   0.4852     H
C         0.22  0.63854  0.55666     C
C      0.22185  0.88732  0.98938     C
C      0.22264  0.87565  0.75547     C
C      0.22402  0.73277  0.74839     C
H       0.2268   0.4092   0.5506     H
H       0.2338   0.2001   0.5001     H
O      0.23563  0.77858  0.16142     O
O      0.24092  0.21976   0.2196     O
C       0.2457  0.31513  0.26947     C
O      0.24759  0.04143  0.21147     O
C      0.24886     0.41  0.32368     C
C      0.24972  0.92763  0.90433     C
H       0.2518   0.8497   0.0795     H
C      0.25338  0.37147  0.52577     C
C      0.25747  0.24764  0.49642     C
C      0.25995  0.65388  0.21702     C
H       0.2632   0.0661   0.0191     H
C      0.27331   0.9165  0.26308     C
Zn     0.27945  0.13631  0.17179    Zn
H       0.2801   0.6593   0.5581     H
O      0.28084   0.0813  0.10242     O
O      0.28153  0.63215  0.64505     O
H       0.2844   0.4214    0.347     H
H       0.2922   0.8642   0.7318     H
C      0.29482  0.23277  0.24839     C
C      0.29634  0.33446  0.30346     C
C       0.3012  0.71294  0.18786     C
C      0.30949  0.79036  0.31626     C
H       0.3108   0.5473   0.2605     H
C      0.31108  0.98796  0.23868     C
O      0.31972  0.71976   0.7196     O
C      0.32589  0.38587  0.48455     C
C      0.33407  0.26305  0.45441     C
C       0.3374  0.58879  0.24101     C
C      0.34223  0.85541  0.98673     C
C      0.34331  0.85637  0.29181     C
H       0.3484   0.4339   0.4809     H
O       0.3577  0.48938  0.74682     O
H       0.3588   0.7484   0.3354     H
H       0.3634   0.2248   0.4298     H
H       0.3653   0.2942   0.3128     H
C      0.36659  0.33227  0.44855     C
C      0.36956  0.89768   0.9014     C
H       0.3743   0.8294   0.0148     H
O       0.3877  0.17987  0.26193     O
O       0.4061  0.98938  0.24682     O
O      0.40791  0.93517  0.81763     O
Zn     0.41245  0.63631  0.67179    Zn
C       0.4152  0.86146  0.94334     C
H       0.4156   0.8601   0.2949     H
C      0.41611  0.70964  0.18374     C
H       0.4294   0.3601   0.7949     H
O      0.44127  0.13215  0.14505     O
H       0.4426   0.7516   0.1646     H
C      0.44941  0.35041  0.40297     C
C       0.4507  0.90121  0.85479     C
C      0.45289   0.5835  0.23692     C
C      0.46228  0.48796  0.73868     C
O      0.46456   0.4187  0.39758     O
Zn     0.48334  0.06916  0.24378    Zn
C      0.49149  0.64363  0.20819     C
H       0.4975   0.8407   0.9419     H
O      0.49797  0.29628  0.37338     O
O      0.49951  0.54143  0.71147     O
O      0.50049  0.45857  0.28853     O
O      0.50203  0.70372  0.62662     O
H       0.5025   0.1593   0.0581     H
C      0.50851  0.35637  0.79181     C
Zn     0.51666  0.93084  0.75622    Zn
O      0.53544   0.5813  0.60242     O
C      0.53772  0.51204  0.26132     C
C      0.54711   0.4165  0.76308     C
C       0.5493  0.09879  0.14521     C
C      0.55059  0.64959  0.59703     C
H       0.5574   0.2484   0.8354     H
O      0.55873  0.86785  0.85495     O
H       0.5706   0.6399   0.2051     H
C      0.58389  0.29036  0.81626     C
H       0.5844   0.1399   0.7051     H
C       0.5848  0.13854  0.05666     C
Zn     0.58755  0.36369  0.32821    Zn
O      0.59209  0.06483  0.18237     O
O       0.5939  0.01062  0.75318     O
O       0.6123  0.82013  0.73807     O
H       0.6257   0.1706   0.9852     H
C      0.63044  0.10232   0.0986     C
C      0.63341  0.66773  0.55145     C
H       0.6347   0.7058   0.6872     H
H       0.6366   0.7752   0.5702     H
H       0.6412   0.2516   0.6646     H
O       0.6423  0.51062  0.25318     O
H       0.6516   0.5661   0.5191     H
C      0.65669  0.14363  0.70819     C
C      0.65777  0.14459  0.01327     C
C       0.6626  0.41121  0.75899     C
C      0.66593  0.73695  0.54559     C
C      0.67411  0.61413  0.51545     C
O      0.68028  0.28024   0.2804     O
C      0.68892  0.01204  0.76132     C
H       0.6892   0.4527   0.7395     H
C      0.69051  0.20964  0.68374     C
C       0.6988  0.28706  0.81214     C
C      0.70366  0.66554  0.69654     C
C      0.70518  0.76723  0.75161     C
H       0.7078   0.1358   0.2682     H
H       0.7156   0.5786    0.653     H
O      0.71847  0.36785  0.35495     O
O      0.71916   0.9187  0.89758     O
H       0.7199   0.3407   0.4419     H
Zn     0.72055  0.86369  0.82821    Zn
C      0.72669   0.0835  0.73692     C
H       0.7368   0.9339   0.9809     H
C      0.74005  0.34612  0.78298     C
C      0.74253  0.75236  0.50358     C
C      0.74662  0.62853  0.47423     C
H       0.7482   0.1503   0.9205     H
C      0.75028  0.07237  0.09567     C
C      0.75114     0.59  0.67632     C
O      0.75241  0.95857  0.78853     O
C       0.7543  0.68487  0.73053     C
O      0.75908  0.78024   0.7804     O
O      0.76437  0.22142  0.83858     O
H       0.7662   0.7999   0.4999     H
H       0.7732   0.5908   0.4494     H
C      0.77598  0.26723  0.25161     C
C      0.77736  0.12435  0.24453     C
C      0.77815  0.11268  0.01062     C
C         0.78  0.36146  0.44334     C
H       0.7815   0.3294   0.5148     H
C      0.78175  0.69694  0.46816     C
H       0.7825   0.0479   0.1239     H
H       0.7836   0.2234    0.935     H
H       0.7841   0.4339   0.6453     H
H       0.7871   0.0072    0.234     H
C       0.7933  0.40121  0.35479     C
Zn     0.79628  0.43084  0.25622    Zn
C      0.79721  0.85041  0.90297     C
C        0.798  0.21294  0.68786     C
C      0.80369  0.88587  0.98455     C
C      0.81337  0.16398  0.92768     C
H       0.8134   0.9092   0.0506     H
C      0.81563  0.35541  0.48673     C
H        0.819   0.3497   0.5795     H
H       0.8194   0.3421   0.7795     H
C      0.82383  0.07763  0.05211     C
O      0.82437  0.27858  0.66142     O
C      0.82458  0.04771  0.22453     C
O       0.8295  0.32013  0.23807     O
C       0.8303  0.18487  0.23053     C
C      0.83136  0.39768   0.4014     C
O      0.83237  0.79628  0.87338     O
C       0.8328  0.08879  0.74101     C
O      0.83929  0.43517  0.31763     O
C      0.84938  0.87147  0.02577     C
C      0.85028  0.53077  0.68987     C
C      0.85259  0.83227  0.94855     C
C      0.85376  0.62435  0.74453     C
O      0.85662  0.71578  0.42738     O
O      0.85732  0.11102  0.96878     O
H       0.8611   0.4795   0.6065     H
H       0.8633   0.0661   0.8547     H
C      0.86424  0.43555  0.63337     C
H       0.8685   0.2741   0.8561     H
C      0.86915  0.15388  0.71702     C
C      0.87539  0.22003  0.84539     C
H       0.8814   0.0473   0.7605     H
H       0.8882   0.6358   0.7682     H
H       0.8959   0.6534    0.368     H
C      0.90145  0.38732  0.48938     C
C      0.90318  0.54771  0.72453     C
C      0.90503  0.33602  0.57232     C
H       0.9062    0.057   0.0506     H
O      0.90734  0.45385  0.67165     O
C      0.91264  0.14926  0.88446     C
H       0.9173   0.8466    0.132     H
C      0.91832  0.42763  0.40433     C
H       0.9277   0.5939   0.4157     H
C      0.92796  0.64773  0.39775     C
C      0.92908  0.03077  0.18987     C
C      0.93316  0.06445  0.86663     C
H       0.9332   0.2091   0.8149     H
H        0.934   0.2999   0.9999     H
C      0.93426  0.16554  0.19654     C
O      0.93712  0.38898  0.53122     O
H       0.9373   0.9061   0.0843     H
C      0.94081  0.27997  0.65461     C
H        0.941   0.1579   0.7205     H
H        0.942   0.2766    0.565     H
C      0.94636  0.35074  0.61554     C
C      0.94685  0.80306  0.03184     C
H       0.9471   0.0205   0.8935     H
H       0.9472   0.9214    0.847     H
C      0.94847  0.76305  0.95441     C
C      0.95357  0.42237  0.44789     C
H       0.9543   0.4521   0.3761     H
H       0.9572   0.2909   0.6851     H
O      0.96716  0.95385  0.17165     O
H       0.9717   0.5072    0.734     H
H       0.9723   0.2058   0.1872     H
C      0.97344  0.85227  0.10225     C
H        0.982   0.7248   0.9298     H
C      0.98254     0.09  0.17632     C
H       0.9862    0.557   0.5506     H
C      0.99847  0.74764  0.99642     C
H       0.9987   0.2259   0.6439     H
O      0.99978  0.78422  0.07262     O
