data_I
_chemical_name_common  '/home/zhangsd/repos/MofS-CGCNN/ML/data/SSD/clean_cifs/QAGQEW_clean'
_cell_length_a 27.72200
_cell_length_b 27.72200
_cell_length_c 27.72200
_cell_angle_alpha 60.00000
_cell_angle_beta  60.00000
_cell_angle_gamma 60.00000
_space_group_name_H-M_alt      'P 1'


loop_
_space_group_symop_operation_xyz
  'x, y, z' 

loop_
_atom_site_label
_atom_site_fract_x
_atom_site_fract_y
_atom_site_fract_z
_atom_site_type_symbol
C      0.00285  0.44759  0.89655     C
C      0.00285  0.65301  0.44759     C
C      0.00285  0.89655  0.65301     C
O      0.01448  0.05716  0.38782     O
O      0.01448  0.38782  0.54054     O
O      0.01448  0.54054  0.05716     O
S       0.0192  0.18376  0.23378     S
S       0.0192  0.23378  0.56326     S
S       0.0192  0.56326  0.18376     S
H       0.0387   0.1163   0.5557     H
H       0.0387   0.2893   0.1163     H
H       0.0387   0.5557   0.2893     H
C      0.04001  0.11551  0.28623     C
C      0.04001  0.28623  0.55825     C
C      0.04001  0.55825  0.11551     C
O      0.04054  0.51448  0.55716     O
O      0.04054  0.55716  0.88782     O
O      0.04054  0.88782  0.51448     O
Cd     0.04281  0.41102  0.58898    Cd
Cd     0.04281  0.58898  0.95719    Cd
Cd     0.04281  0.95719  0.41102    Cd
C      0.05241  0.49715  0.60345     C
C      0.05241  0.60345  0.84699     C
C      0.05241  0.84699  0.49715     C
O      0.05398  0.44364  0.85956     O
O      0.05398  0.64282  0.44364     O
O      0.05398  0.85956  0.64282     O
H       0.0557   0.5387   0.7893     H
H       0.0557   0.6163   0.5387     H
H       0.0557   0.7893   0.6163     H
O      0.05636  0.44602  0.64044     O
O      0.05636  0.64044  0.85718     O
O      0.05636  0.85718  0.44602     O
O      0.05716  0.01448  0.54054     O
O      0.05716  0.38782  0.01448     O
O      0.05716  0.54054  0.38782     O
C      0.05825  0.54001  0.61551     C
C      0.05825  0.61551  0.78623     C
C      0.05825  0.78623  0.54001     C
C      0.05859  0.57707  0.76639     C
C      0.05859  0.59795  0.57707     C
C      0.05859  0.76639  0.59795     C
S      0.06326   0.5192  0.68376     S
S      0.06326  0.68376  0.73378     S
S      0.06326  0.73378   0.5192     S
C      0.06438  0.60816  0.70342     C
C      0.06438  0.62404  0.60816     C
C      0.06438  0.70342  0.62404     C
C      0.06486   0.5874  0.66556     C
C      0.06486  0.66556  0.68218     C
C      0.06486  0.68218   0.5874     C
C      0.07707  0.09795  0.55859     C
C      0.07707  0.26639  0.09795     C
C      0.07707  0.55859  0.26639     C
C       0.0874  0.16556  0.18218     C
C       0.0874  0.18218  0.56486     C
C       0.0874  0.56486  0.16556     C
Cd     0.08898  0.45719  0.91102    Cd
Cd     0.08898  0.54281  0.45719    Cd
Cd     0.08898  0.91102  0.54281    Cd
C      0.09795  0.07707  0.26639     C
C      0.09795  0.26639  0.55859     C
C      0.09795  0.55859  0.07707     C
C      0.10345  0.34699  0.99715     C
C      0.10345  0.55241  0.34699     C
C      0.10345  0.99715  0.55241     C
C      0.10816  0.12404  0.56438     C
C      0.10816  0.20342  0.12404     C
C      0.10816  0.56438  0.20342     C
O      0.11218  0.44284  0.48552     O
O      0.11218  0.48552  0.95946     O
O      0.11218  0.95946  0.44284     O
C      0.11551  0.04001  0.55825     C
C      0.11551  0.28623  0.04001     C
C      0.11551  0.55825  0.28623     C
H       0.1163   0.0387   0.2893     H
H       0.1163   0.2893   0.5557     H
H       0.1163   0.5557   0.0387     H
C      0.12404  0.10816  0.20342     C
C      0.12404  0.20342  0.56438     C
C      0.12404  0.56438  0.10816     C
O      0.14044  0.35718  0.94602     O
O      0.14044  0.55636  0.35718     O
O      0.14044  0.94602  0.55636     O
O      0.14282  0.35956  0.55398     O
O      0.14282  0.55398  0.94364     O
O      0.14282  0.94364  0.35956     O
C      0.15301  0.39655  0.50285     C
C      0.15301  0.50285  0.94759     C
C      0.15301  0.94759  0.39655     C
C      0.16556   0.0874  0.56486     C
C      0.16556  0.18218   0.0874     C
C      0.16556  0.56486  0.18218     C
C      0.18218   0.0874  0.16556     C
C      0.18218  0.16556  0.56486     C
C      0.18218  0.56486   0.0874     C
S      0.18376   0.0192  0.56326     S
S      0.18376  0.23378   0.0192     S
S      0.18376  0.56326  0.23378     S
C      0.20342  0.10816  0.56438     C
C      0.20342  0.12404  0.10816     C
C      0.20342  0.56438  0.12404     C
H       0.2107   0.3837   0.9443     H
H       0.2107   0.4613   0.3837     H
H       0.2107   0.9443   0.4613     H
C      0.21377  0.38449  0.45999     C
C      0.21377  0.45999  0.94175     C
C      0.21377  0.94175  0.38449     C
C      0.23361  0.40205  0.94141     C
C      0.23361  0.42293  0.40205     C
C      0.23361  0.94141  0.42293     C
S      0.23378   0.0192  0.18376     S
S      0.23378  0.18376  0.56326     S
S      0.23378  0.56326   0.0192     S
S      0.26622  0.31624   0.4808     S
S      0.26622   0.4808  0.93674     S
S      0.26622  0.93674  0.31624     S
C      0.26639  0.07707  0.55859     C
C      0.26639  0.09795  0.07707     C
C      0.26639  0.55859  0.09795     C
C      0.28623  0.04001  0.11551     C
C      0.28623  0.11551  0.55825     C
C      0.28623  0.55825  0.04001     C
H       0.2893   0.0387   0.5557     H
H       0.2893   0.1163   0.0387     H
H       0.2893   0.5557   0.1163     H
C      0.29658  0.37596  0.93562     C
C      0.29658  0.39184  0.37596     C
C      0.29658  0.93562  0.39184     C
S      0.31624  0.26622  0.93674     S
S      0.31624   0.4808  0.26622     S
S      0.31624  0.93674   0.4808     S
C      0.31782  0.33444   0.4126     C
C      0.31782   0.4126  0.93514     C
C      0.31782  0.93514  0.33444     C
C      0.33444  0.31782  0.93514     C
C      0.33444   0.4126  0.31782     C
C      0.33444  0.93514   0.4126     C
C      0.34699  0.10345  0.55241     C
C      0.34699  0.55241  0.99715     C
C      0.34699  0.99715  0.10345     C
O      0.35718  0.14044  0.55636     O
O      0.35718  0.55636  0.94602     O
O      0.35718  0.94602  0.14044     O
O      0.35956  0.14282  0.94364     O
O      0.35956  0.55398  0.14282     O
O      0.35956  0.94364  0.55398     O
C      0.37596  0.29658  0.39184     C
C      0.37596  0.39184  0.93562     C
C      0.37596  0.93562  0.29658     C
H       0.3837   0.2107   0.4613     H
H       0.3837   0.4613   0.9443     H
H       0.3837   0.9443   0.2107     H
C      0.38449  0.21377  0.94175     C
C      0.38449  0.45999  0.21377     C
C      0.38449  0.94175  0.45999     C
O      0.38782  0.01448  0.05716     O
O      0.38782  0.05716  0.54054     O
O      0.38782  0.54054  0.01448     O
C      0.39184  0.29658  0.93562     C
C      0.39184  0.37596  0.29658     C
C      0.39184  0.93562  0.37596     C
C      0.39655  0.15301  0.94759     C
C      0.39655  0.50285  0.15301     C
C      0.39655  0.94759  0.50285     C
C      0.40205  0.23361  0.42293     C
C      0.40205  0.42293  0.94141     C
C      0.40205  0.94141  0.23361     C
Cd     0.41102  0.04281  0.95719    Cd
Cd     0.41102  0.58898  0.04281    Cd
Cd     0.41102  0.95719  0.58898    Cd
C       0.4126  0.31782  0.33444     C
C       0.4126  0.33444  0.93514     C
C       0.4126  0.93514  0.31782     C
C      0.42293  0.23361  0.94141     C
C      0.42293  0.40205  0.23361     C
C      0.42293  0.94141  0.40205     C
C      0.43514  0.81782  0.83444     C
C      0.43514  0.83444   0.9126     C
C      0.43514   0.9126  0.81782     C
C      0.43562  0.79658  0.89184     C
C      0.43562  0.87596  0.79658     C
C      0.43562  0.89184  0.87596     C
S      0.43674  0.76622  0.81624     S
S      0.43674  0.81624   0.9808     S
S      0.43674   0.9808  0.76622     S
C      0.44141  0.73361  0.92293     C
C      0.44141  0.90205  0.73361     C
C      0.44141  0.92293  0.90205     C
C      0.44175  0.71377  0.88449     C
C      0.44175  0.88449  0.95999     C
C      0.44175  0.95999  0.71377     C
O      0.44284  0.11218  0.95946     O
O      0.44284  0.48552  0.11218     O
O      0.44284  0.95946  0.48552     O
O      0.44364  0.05398  0.64282     O
O      0.44364  0.64282  0.85956     O
O      0.44364  0.85956  0.05398     O
H       0.4443   0.7107   0.9613     H
H       0.4443   0.8837   0.7107     H
H       0.4443   0.9613   0.8837     H
O      0.44602  0.05636  0.85718     O
O      0.44602  0.64044  0.05636     O
O      0.44602  0.85718  0.64044     O
C      0.44759  0.00285  0.65301     C
C      0.44759  0.65301  0.89655     C
C      0.44759  0.89655  0.00285     C
Cd     0.45719  0.08898  0.54281    Cd
Cd     0.45719  0.54281  0.91102    Cd
Cd     0.45719  0.91102  0.08898    Cd
O      0.45946  0.61218  0.94284     O
O      0.45946  0.94284  0.98552     O
O      0.45946  0.98552  0.61218     O
C      0.45999  0.21377  0.38449     C
C      0.45999  0.38449  0.94175     C
C      0.45999  0.94175  0.21377     C
H       0.4613   0.2107   0.9443     H
H       0.4613   0.3837   0.2107     H
H       0.4613   0.9443   0.3837     H
S       0.4808  0.26622  0.31624     S
S       0.4808  0.31624  0.93674     S
S       0.4808  0.93674  0.26622     S
O      0.48552  0.11218  0.44284     O
O      0.48552  0.44284  0.95946     O
O      0.48552  0.95946  0.11218     O
C      0.49715  0.05241  0.84699     C
C      0.49715  0.60345  0.05241     C
C      0.49715  0.84699  0.60345     C
C      0.50285  0.15301  0.39655     C
C      0.50285  0.39655  0.94759     C
C      0.50285  0.94759  0.15301     C
O      0.51448  0.04054  0.88782     O
O      0.51448  0.55716  0.04054     O
O      0.51448  0.88782  0.55716     O
S       0.5192  0.06326  0.73378     S
S       0.5192  0.68376  0.06326     S
S       0.5192  0.73378  0.68376     S
H       0.5387   0.0557   0.6163     H
H       0.5387   0.6163   0.7893     H
H       0.5387   0.7893   0.0557     H
C      0.54001  0.05825  0.78623     C
C      0.54001  0.61551  0.05825     C
C      0.54001  0.78623  0.61551     C
O      0.54054  0.01448  0.38782     O
O      0.54054  0.05716  0.01448     O
O      0.54054  0.38782  0.05716     O
Cd     0.54281  0.08898  0.91102    Cd
Cd     0.54281  0.45719  0.08898    Cd
Cd     0.54281  0.91102  0.45719    Cd
C      0.55241  0.10345  0.99715     C
C      0.55241  0.34699  0.10345     C
C      0.55241  0.99715  0.34699     C
O      0.55398  0.14282  0.35956     O
O      0.55398  0.35956  0.94364     O
O      0.55398  0.94364  0.14282     O
H       0.5557   0.0387   0.1163     H
H       0.5557   0.1163   0.2893     H
H       0.5557   0.2893   0.0387     H
O      0.55636  0.14044  0.94602     O
O      0.55636  0.35718  0.14044     O
O      0.55636  0.94602  0.35718     O
O      0.55716  0.04054  0.51448     O
O      0.55716  0.51448  0.88782     O
O      0.55716  0.88782  0.04054     O
C      0.55825  0.04001  0.28623     C
C      0.55825  0.11551  0.04001     C
C      0.55825  0.28623  0.11551     C
C      0.55859  0.07707  0.09795     C
C      0.55859  0.09795  0.26639     C
C      0.55859  0.26639  0.07707     C
S      0.56326   0.0192  0.23378     S
S      0.56326  0.18376   0.0192     S
S      0.56326  0.23378  0.18376     S
C      0.56438  0.10816  0.12404     C
C      0.56438  0.12404  0.20342     C
C      0.56438  0.20342  0.10816     C
C      0.56486   0.0874  0.18218     C
C      0.56486  0.16556   0.0874     C
C      0.56486  0.18218  0.16556     C
C      0.57707  0.05859  0.59795     C
C      0.57707  0.59795  0.76639     C
C      0.57707  0.76639  0.05859     C
C       0.5874  0.06486  0.68218     C
C       0.5874  0.66556  0.06486     C
C       0.5874  0.68218  0.66556     C
Cd     0.58898  0.04281  0.41102    Cd
Cd     0.58898  0.41102  0.95719    Cd
Cd     0.58898  0.95719  0.04281    Cd
C      0.59795  0.05859  0.76639     C
C      0.59795  0.57707  0.05859     C
C      0.59795  0.76639  0.57707     C
C      0.60345  0.05241  0.49715     C
C      0.60345  0.49715  0.84699     C
C      0.60345  0.84699  0.05241     C
C      0.60816  0.06438  0.62404     C
C      0.60816  0.62404  0.70342     C
C      0.60816  0.70342  0.06438     C
O      0.61218  0.45946  0.98552     O
O      0.61218  0.94284  0.45946     O
O      0.61218  0.98552  0.94284     O
C      0.61551  0.05825  0.54001     C
C      0.61551  0.54001  0.78623     C
C      0.61551  0.78623  0.05825     C
H       0.6163   0.0557   0.7893     H
H       0.6163   0.5387   0.0557     H
H       0.6163   0.7893   0.5387     H
C      0.62404  0.06438  0.70342     C
C      0.62404  0.60816  0.06438     C
C      0.62404  0.70342  0.60816     C
O      0.64044  0.05636  0.44602     O
O      0.64044  0.44602  0.85718     O
O      0.64044  0.85718  0.05636     O
O      0.64282  0.05398  0.85956     O
O      0.64282  0.44364  0.05398     O
O      0.64282  0.85956  0.44364     O
C      0.65301  0.00285  0.89655     C
C      0.65301  0.44759  0.00285     C
C      0.65301  0.89655  0.44759     C
C      0.66556  0.06486   0.5874     C
C      0.66556   0.5874  0.68218     C
C      0.66556  0.68218  0.06486     C
C      0.68218  0.06486  0.66556     C
C      0.68218   0.5874  0.06486     C
C      0.68218  0.66556   0.5874     C
S      0.68376  0.06326   0.5192     S
S      0.68376   0.5192  0.73378     S
S      0.68376  0.73378  0.06326     S
C      0.70342  0.06438  0.60816     C
C      0.70342  0.60816  0.62404     C
C      0.70342  0.62404  0.06438     C
H       0.7107   0.4443   0.8837     H
H       0.7107   0.8837   0.9613     H
H       0.7107   0.9613   0.4443     H
C      0.71377  0.44175  0.95999     C
C      0.71377  0.88449  0.44175     C
C      0.71377  0.95999  0.88449     C
C      0.73361  0.44141  0.90205     C
C      0.73361  0.90205  0.92293     C
C      0.73361  0.92293  0.44141     C
S      0.73378  0.06326  0.68376     S
S      0.73378   0.5192  0.06326     S
S      0.73378  0.68376   0.5192     S
S      0.76622  0.43674   0.9808     S
S      0.76622  0.81624  0.43674     S
S      0.76622   0.9808  0.81624     S
C      0.76639  0.05859  0.57707     C
C      0.76639  0.57707  0.59795     C
C      0.76639  0.59795  0.05859     C
C      0.78623  0.05825  0.61551     C
C      0.78623  0.54001  0.05825     C
C      0.78623  0.61551  0.54001     C
H       0.7893   0.0557   0.5387     H
H       0.7893   0.5387   0.6163     H
H       0.7893   0.6163   0.0557     H
C      0.79658  0.43562  0.87596     C
C      0.79658  0.87596  0.89184     C
C      0.79658  0.89184  0.43562     C
S      0.81624  0.43674  0.76622     S
S      0.81624  0.76622   0.9808     S
S      0.81624   0.9808  0.43674     S
C      0.81782  0.43514   0.9126     C
C      0.81782  0.83444  0.43514     C
C      0.81782   0.9126  0.83444     C
C      0.83444  0.43514  0.81782     C
C      0.83444  0.81782   0.9126     C
C      0.83444   0.9126  0.43514     C
C      0.84699  0.05241  0.60345     C
C      0.84699  0.49715  0.05241     C
C      0.84699  0.60345  0.49715     C
O      0.85718  0.05636  0.64044     O
O      0.85718  0.44602  0.05636     O
O      0.85718  0.64044  0.44602     O
O      0.85956  0.05398  0.44364     O
O      0.85956  0.44364  0.64282     O
O      0.85956  0.64282  0.05398     O
C      0.87596  0.43562  0.89184     C
C      0.87596  0.79658  0.43562     C
C      0.87596  0.89184  0.79658     C
H       0.8837   0.4443   0.9613     H
H       0.8837   0.7107   0.4443     H
H       0.8837   0.9613   0.7107     H
C      0.88449  0.44175  0.71377     C
C      0.88449  0.71377  0.95999     C
C      0.88449  0.95999  0.44175     C
O      0.88782  0.04054  0.55716     O
O      0.88782  0.51448  0.04054     O
O      0.88782  0.55716  0.51448     O
C      0.89184  0.43562  0.79658     C
C      0.89184  0.79658  0.87596     C
C      0.89184  0.87596  0.43562     C
C      0.89655  0.00285  0.44759     C
C      0.89655  0.44759  0.65301     C
C      0.89655  0.65301  0.00285     C
C      0.90205  0.44141  0.92293     C
C      0.90205  0.73361  0.44141     C
C      0.90205  0.92293  0.73361     C
Cd     0.91102  0.08898  0.45719    Cd
Cd     0.91102  0.45719  0.54281    Cd
Cd     0.91102  0.54281  0.08898    Cd
C       0.9126  0.43514  0.83444     C
C       0.9126  0.81782  0.43514     C
C       0.9126  0.83444  0.81782     C
C      0.92293  0.44141  0.73361     C
C      0.92293  0.73361  0.90205     C
C      0.92293  0.90205  0.44141     C
C      0.93514  0.31782   0.4126     C
C      0.93514  0.33444  0.31782     C
C      0.93514   0.4126  0.33444     C
C      0.93562  0.29658  0.37596     C
C      0.93562  0.37596  0.39184     C
C      0.93562  0.39184  0.29658     C
S      0.93674  0.26622   0.4808     S
S      0.93674  0.31624  0.26622     S
S      0.93674   0.4808  0.31624     S
C      0.94141  0.23361  0.40205     C
C      0.94141  0.40205  0.42293     C
C      0.94141  0.42293  0.23361     C
C      0.94175  0.21377  0.45999     C
C      0.94175  0.38449  0.21377     C
C      0.94175  0.45999  0.38449     C
O      0.94284  0.45946  0.61218     O
O      0.94284  0.61218  0.98552     O
O      0.94284  0.98552  0.45946     O
O      0.94364  0.14282  0.55398     O
O      0.94364  0.35956  0.14282     O
O      0.94364  0.55398  0.35956     O
H       0.9443   0.2107   0.3837     H
H       0.9443   0.3837   0.4613     H
H       0.9443   0.4613   0.2107     H
O      0.94602  0.14044  0.35718     O
O      0.94602  0.35718  0.55636     O
O      0.94602  0.55636  0.14044     O
C      0.94759  0.15301  0.50285     C
C      0.94759  0.39655  0.15301     C
C      0.94759  0.50285  0.39655     C
Cd     0.95719  0.04281  0.58898    Cd
Cd     0.95719  0.41102  0.04281    Cd
Cd     0.95719  0.58898  0.41102    Cd
O      0.95946  0.11218  0.48552     O
O      0.95946  0.44284  0.11218     O
O      0.95946  0.48552  0.44284     O
C      0.95999  0.44175  0.88449     C
C      0.95999  0.71377  0.44175     C
C      0.95999  0.88449  0.71377     C
H       0.9613   0.4443   0.7107     H
H       0.9613   0.7107   0.8837     H
H       0.9613   0.8837   0.4443     H
S       0.9808  0.43674  0.81624     S
S       0.9808  0.76622  0.43674     S
S       0.9808  0.81624  0.76622     S
O      0.98552  0.45946  0.94284     O
O      0.98552  0.61218  0.45946     O
O      0.98552  0.94284  0.61218     O
C      0.99715  0.10345  0.34699     C
C      0.99715  0.34699  0.55241     C
C      0.99715  0.55241  0.10345     C
