data_I
_chemical_name_common  '/home/zhangsd/repos/MofS-CGCNN/ML/data/SSD/clean_cifs/QAKFIU_clean'
_cell_length_a 27.84100
_cell_length_b  7.52660
_cell_length_c 17.41300
_cell_angle_alpha 90.00000
_cell_angle_beta  90.00000
_cell_angle_gamma 90.00000
_space_group_name_H-M_alt      'P 1'


loop_
_space_group_symop_operation_xyz
  'x, y, z' 

loop_
_atom_site_label
_atom_site_fract_x
_atom_site_fract_y
_atom_site_fract_z
_atom_site_type_symbol
C      0.00466   0.3382   0.6263     C
C      0.00466   0.6618   0.1263     C
O      0.01028   0.1364  0.14943     O
O      0.01028   0.8636  0.64943     O
H        0.014   0.3655   0.6762     H
H        0.014   0.6345   0.1762     H
C      0.02233   0.2554   0.0238     C
C      0.02233   0.7446   0.5238     C
C      0.02472   0.2247   0.5001     C
C      0.02472   0.7753   0.0001     C
C      0.03638   0.2235   0.1069     C
C      0.03638   0.7765   0.6069     C
C      0.03715   0.2665   0.5746     C
C      0.03715   0.7335   0.0746     C
C      0.04223   0.3684    0.898     C
C      0.04223   0.6316    0.398     C
H       0.0473   0.1771   0.4665     H
H       0.0473   0.8229   0.9665     H
C      0.05543   0.3267   0.9729     C
C      0.05543   0.6733   0.4729     C
O      0.06407   0.4892  0.77706     O
O      0.06407   0.5108  0.27706     O
H       0.0734     0.14   0.6988     H
H       0.0734     0.86   0.1988     H
O      0.07634   0.2929  0.12663     O
O      0.07634   0.7071  0.62663     O
C      0.07699   0.4678   0.8471     C
C      0.07699   0.5322   0.3471     C
H       0.0868   0.3469   0.9891     H
H       0.0868   0.6531   0.4891     H
N      0.08723   0.2487  0.59782     N
N      0.08723   0.7513  0.09782     N
Zn     0.09747  0.30632  0.23386    Zn
Zn     0.09747  0.69368  0.73386    Zn
C      0.09793   0.1813   0.6673     C
C      0.09793   0.8187   0.1673     C
O      0.11345   0.4671   0.3745     O
O      0.11345   0.5329   0.8745     O
H       0.1148   0.3513   0.5026     H
H       0.1148   0.6487   0.0026     H
C       0.1225   0.3062   0.5507     C
C       0.1225   0.6938   0.0507     C
C      0.14486   0.1727   0.6926     C
C      0.14486   0.8273   0.1926     C
H       0.1517   0.1274   0.7411     H
H       0.1517   0.8726   0.2411     H
H        0.159   0.2457   0.1019     H
H        0.159   0.7543   0.6019     H
N      0.16937   0.2975   0.2112     N
N      0.16937   0.7025   0.7112     N
C      0.16968   0.2985   0.5734     C
C      0.16968   0.7015   0.0734     C
C      0.18227   0.2324   0.6451     C
C      0.18227   0.7676   0.1451     C
C      0.18276    0.264   0.1385     C
C      0.18276    0.736   0.6385     C
H       0.1936   0.3381   0.5402     H
H       0.1936   0.6619   0.0402     H
H       0.1959   0.3449   0.3139     H
H       0.1959   0.6551   0.8139     H
C      0.20439   0.3213   0.2632     C
C      0.20439   0.6787   0.7632     C
H        0.224   0.1717   0.7822     H
H        0.224   0.8283   0.2822     H
C      0.23003   0.2556   0.1159     C
C      0.23003   0.7444   0.6159     C
C      0.23345   0.2215   0.6692     C
C      0.23345   0.7785   0.1692     C
H       0.2375   0.2345   0.0647     H
H       0.2375   0.7655   0.5647     H
C      0.24722   0.1879   0.7444     C
C      0.24722   0.8121   0.2444     C
C      0.25278   0.3121   0.2444     C
C      0.25278   0.6879   0.7444     C
H       0.2625   0.2655   0.5647     H
H       0.2625   0.7345   0.0647     H
C      0.26655   0.2785   0.1692     C
C      0.26655   0.7215   0.6692     C
C      0.26997   0.2444   0.6159     C
C      0.26997   0.7556   0.1159     C
H        0.276   0.3283   0.2822     H
H        0.276   0.6717   0.7822     H
C      0.29561   0.1787   0.7632     C
C      0.29561   0.8213   0.2632     C
H       0.3041   0.1551   0.8139     H
H       0.3041   0.8449   0.3139     H
H       0.3064   0.1619   0.0402     H
H       0.3064   0.8381   0.5402     H
C      0.31724    0.236   0.6385     C
C      0.31724    0.764   0.1385     C
C      0.31773   0.2676   0.1451     C
C      0.31773   0.7324   0.6451     C
C      0.33032   0.2015   0.0734     C
C      0.33032   0.7985   0.5734     C
N      0.33063   0.2025   0.7112     N
N      0.33063   0.7975   0.2112     N
H        0.341   0.2543   0.6019     H
H        0.341   0.7457   0.1019     H
H       0.3483   0.3726   0.2411     H
H       0.3483   0.6274   0.7411     H
C      0.35514   0.3273   0.1926     C
C      0.35514   0.6727   0.6926     C
C       0.3775   0.1938   0.0507     C
C       0.3775   0.8062   0.5507     C
H       0.3852   0.1487   0.0026     H
H       0.3852   0.8513   0.5026     H
O      0.38655   0.0329   0.8745     O
O      0.38655   0.9671   0.3745     O
C      0.40207   0.3187   0.1673     C
C      0.40207   0.6813   0.6673     C
Zn     0.40253  0.19368  0.73386    Zn
Zn     0.40253  0.80632  0.23386    Zn
N      0.41277   0.2513  0.09782     N
N      0.41277   0.7487  0.59782     N
H       0.4132   0.1531   0.4891     H
H       0.4132   0.8469   0.9891     H
C      0.42301   0.0322   0.3471     C
C      0.42301   0.9678   0.8471     C
O      0.42366   0.2071  0.62663     O
O      0.42366   0.7929  0.12663     O
H       0.4266     0.36   0.1988     H
H       0.4266     0.64   0.6988     H
O      0.43593   0.0108  0.27706     O
O      0.43593   0.9892  0.77706     O
C      0.44457   0.1733   0.4729     C
C      0.44457   0.8267   0.9729     C
H       0.4527   0.3229   0.9665     H
H       0.4527   0.6771   0.4665     H
C      0.45777   0.1316    0.398     C
C      0.45777   0.8684    0.898     C
C      0.46285   0.2335   0.0746     C
C      0.46285   0.7665   0.5746     C
C      0.46362   0.2765   0.6069     C
C      0.46362   0.7235   0.1069     C
C      0.47528   0.2753   0.0001     C
C      0.47528   0.7247   0.5001     C
C      0.47767   0.2446   0.5238     C
C      0.47767   0.7554   0.0238     C
H        0.486   0.1345   0.1762     H
H        0.486   0.8655   0.6762     H
O      0.48972   0.3636  0.64943     O
O      0.48972   0.6364  0.14943     O
C      0.49534   0.1618   0.1263     C
C      0.49534   0.8382   0.6263     C
C      0.50466   0.1618   0.3737     C
C      0.50466   0.8382   0.8737     C
O      0.51028   0.3636  0.85057     O
O      0.51028   0.6364  0.35057     O
H        0.514   0.1345   0.3238     H
H        0.514   0.8655   0.8238     H
C      0.52233   0.2446   0.9762     C
C      0.52233   0.7554   0.4762     C
C      0.52472   0.2753   0.4999     C
C      0.52472   0.7247   0.9999     C
C      0.53638   0.2765   0.8931     C
C      0.53638   0.7235   0.3931     C
C      0.53715   0.2335   0.4254     C
C      0.53715   0.7665   0.9254     C
C      0.54223   0.1316    0.102     C
C      0.54223   0.8684    0.602     C
H       0.5473   0.3229   0.5335     H
H       0.5473   0.6771   0.0335     H
C      0.55543   0.1733   0.0271     C
C      0.55543   0.8267   0.5271     C
O      0.56407   0.0108  0.22294     O
O      0.56407   0.9892  0.72294     O
H       0.5734     0.36   0.3012     H
H       0.5734     0.64   0.8012     H
O      0.57634   0.2071  0.87337     O
O      0.57634   0.7929  0.37337     O
C      0.57699   0.0322   0.1529     C
C      0.57699   0.9678   0.6529     C
H       0.5868   0.1531   0.0109     H
H       0.5868   0.8469   0.5109     H
N      0.58723   0.2513  0.40218     N
N      0.58723   0.7487  0.90218     N
Zn     0.59747  0.19368  0.76614    Zn
Zn     0.59747  0.80632  0.26614    Zn
C      0.59793   0.3187   0.3327     C
C      0.59793   0.6813   0.8327     C
O      0.61345   0.0329   0.6255     O
O      0.61345   0.9671   0.1255     O
H       0.6148   0.1487   0.4974     H
H       0.6148   0.8513   0.9974     H
C       0.6225   0.1938   0.4493     C
C       0.6225   0.8062   0.9493     C
C      0.64486   0.3273   0.3074     C
C      0.64486   0.6727   0.8074     C
H       0.6517   0.3726   0.2589     H
H       0.6517   0.6274   0.7589     H
H        0.659   0.2543   0.8981     H
H        0.659   0.7457   0.3981     H
N      0.66937   0.2025   0.7888     N
N      0.66937   0.7975   0.2888     N
C      0.66968   0.2015   0.4266     C
C      0.66968   0.7985   0.9266     C
C      0.68227   0.2676   0.3549     C
C      0.68227   0.7324   0.8549     C
C      0.68276    0.236   0.8615     C
C      0.68276    0.764   0.3615     C
H       0.6936   0.1619   0.4598     H
H       0.6936   0.8381   0.9598     H
H       0.6959   0.1551   0.6861     H
H       0.6959   0.8449   0.1861     H
C      0.70439   0.1787   0.7368     C
C      0.70439   0.8213   0.2368     C
H        0.724   0.3283   0.2178     H
H        0.724   0.6717   0.7178     H
C      0.73003   0.2444   0.8841     C
C      0.73003   0.7556   0.3841     C
C      0.73345   0.2785   0.3308     C
C      0.73345   0.7215   0.8308     C
H       0.7375   0.2655   0.9353     H
H       0.7375   0.7345   0.4353     H
C      0.74722   0.3121   0.2556     C
C      0.74722   0.6879   0.7556     C
C      0.75278   0.1879   0.7556     C
C      0.75278   0.8121   0.2556     C
H       0.7625   0.2345   0.4353     H
H       0.7625   0.7655   0.9353     H
C      0.76655   0.2215   0.8308     C
C      0.76655   0.7785   0.3308     C
C      0.76997   0.2556   0.3841     C
C      0.76997   0.7444   0.8841     C
H        0.776   0.1717   0.7178     H
H        0.776   0.8283   0.2178     H
C      0.79561   0.3213   0.2368     C
C      0.79561   0.6787   0.7368     C
H       0.8041   0.3449   0.1861     H
H       0.8041   0.6551   0.6861     H
H       0.8064   0.3381   0.9598     H
H       0.8064   0.6619   0.4598     H
C      0.81724    0.264   0.3615     C
C      0.81724    0.736   0.8615     C
C      0.81773   0.2324   0.8549     C
C      0.81773   0.7676   0.3549     C
C      0.83032   0.2985   0.9266     C
C      0.83032   0.7015   0.4266     C
N      0.83063   0.2975   0.2888     N
N      0.83063   0.7025   0.7888     N
H        0.841   0.2457   0.3981     H
H        0.841   0.7543   0.8981     H
H       0.8483   0.1274   0.7589     H
H       0.8483   0.8726   0.2589     H
C      0.85514   0.1727   0.8074     C
C      0.85514   0.8273   0.3074     C
C       0.8775   0.3062   0.9493     C
C       0.8775   0.6938   0.4493     C
H       0.8852   0.3513   0.9974     H
H       0.8852   0.6487   0.4974     H
O      0.88655   0.4671   0.1255     O
O      0.88655   0.5329   0.6255     O
C      0.90207   0.1813   0.8327     C
C      0.90207   0.8187   0.3327     C
Zn     0.90253  0.30632  0.26614    Zn
Zn     0.90253  0.69368  0.76614    Zn
N      0.91277   0.2487  0.90218     N
N      0.91277   0.7513  0.40218     N
H       0.9132   0.3469   0.5109     H
H       0.9132   0.6531   0.0109     H
C      0.92301   0.4678   0.6529     C
C      0.92301   0.5322   0.1529     C
O      0.92366   0.2929  0.37337     O
O      0.92366   0.7071  0.87337     O
H       0.9266     0.14   0.8012     H
H       0.9266     0.86   0.3012     H
O      0.93593   0.4892  0.72294     O
O      0.93593   0.5108  0.22294     O
C      0.94457   0.3267   0.5271     C
C      0.94457   0.6733   0.0271     C
H       0.9527   0.1771   0.0335     H
H       0.9527   0.8229   0.5335     H
C      0.95777   0.3684    0.602     C
C      0.95777   0.6316    0.102     C
C      0.96285   0.2665   0.9254     C
C      0.96285   0.7335   0.4254     C
C      0.96362   0.2235   0.3931     C
C      0.96362   0.7765   0.8931     C
C      0.97528   0.2247   0.9999     C
C      0.97528   0.7753   0.4999     C
C      0.97767   0.2554   0.4762     C
C      0.97767   0.7446   0.9762     C
H        0.986   0.3655   0.8238     H
H        0.986   0.6345   0.3238     H
O      0.98972   0.1364  0.35057     O
O      0.98972   0.8636  0.85057     O
C      0.99534   0.3382   0.8737     C
C      0.99534   0.6618   0.3737     C
