data_I
_chemical_name_common  '/home/zhangsd/repos/MofS-CGCNN/ML/data/SSD/clean_cifs/QAPPUT_clean'
_cell_length_a 10.36050
_cell_length_b 10.52240
_cell_length_c 15.01400
_cell_angle_alpha 89.97900
_cell_angle_beta  76.65600
_cell_angle_gamma 89.98000
_space_group_name_H-M_alt      'P 1'


loop_
_space_group_symop_operation_xyz
  'x, y, z' 

loop_
_atom_site_label
_atom_site_fract_x
_atom_site_fract_y
_atom_site_fract_z
_atom_site_type_symbol
H        0.023    0.558    0.283     H
H        0.029    0.943    0.779     H
C       0.0316   0.9123   0.8368     C
C       0.0327   0.5886   0.3367     C
C       0.0603   0.6638   0.5033     C
C       0.0606   0.8363   0.0031     C
C       0.0639   0.3342   0.5142     C
C       0.0643   0.1658   0.0133     C
H        0.073    0.697    0.558     H
H        0.079    0.814    0.064     H
C       0.0795   0.3722   0.5988     C
C         0.08    0.128   0.0988     C
H        0.099    0.215    0.748     H
H        0.103    0.174    0.307     H
H        0.115    0.308    0.787     H
H        0.118    0.281    0.256     H
H        0.134    0.316    0.474     H
H        0.136    0.191    0.969     H
N       0.1509   0.2384    0.273     N
N       0.1513   0.2595   0.7723     N
C       0.1523   0.9106   0.8607     C
C       0.1528   0.5891   0.3608     C
N       0.1687    0.627   0.4418     N
N        0.169   0.8733   0.9417     N
C       0.2119   0.1336   0.1194     C
C       0.2119   0.3663   0.6193     C
H        0.225    0.555    0.319     H
H        0.234    0.938    0.813     H
N       0.2383   0.3176   0.6972     N
N       0.2384   0.1825    0.197     N
H        0.322      0.9    0.213     H
N       0.3225   0.3987   0.5627     N
N        0.323   0.1013   0.0622     N
H        0.324    0.587    0.715     H
H         0.34    0.121    0.358     H
H        0.342    0.381    0.856     H
Ag     0.36222  0.88787  0.98461    Ag
Ag     0.36223  0.61213  0.48461    Ag
C       0.3713   0.1815   0.1842     C
C       0.3723    0.318    0.684     C
C         0.39   0.8443   0.2001     C
C       0.3903   0.6548   0.7003     C
C       0.4068   0.3215   0.8414     C
C        0.407   0.1781   0.3415     C
H        0.422    0.834    0.326     H
N       0.4247   0.1324   0.1041     N
N       0.4252   0.3674   0.6041     N
H        0.426    0.663    0.821     H
N       0.4264   0.8037    0.114     N
N       0.4268   0.6961   0.6141     N
H        0.443    0.191    0.467     H
C        0.443   0.2757   0.7534     C
C       0.4435   0.2241    0.253     C
H        0.446    0.311    0.965     H
C       0.4509   0.8079   0.2692     C
C       0.4512   0.6922   0.7684     C
C       0.4748   0.2803   0.9054     C
C       0.4751   0.2195   0.4047     C
C       0.5249   0.7805   0.5953     C
C       0.5252   0.7197   0.0946     C
C       0.5488   0.3078   0.2316     C
C       0.5491   0.1921   0.7308     C
H        0.554    0.689    0.035     H
C       0.5565   0.7759    0.747     C
C        0.557   0.7243   0.2466     C
H        0.557    0.809    0.533     H
N       0.5732   0.3039   0.3859     N
N       0.5736   0.1963    0.886     N
H        0.574    0.337    0.179     H
N       0.5748   0.6326   0.3959     N
N       0.5753   0.8676   0.8959     N
H        0.578    0.166    0.674     H
C        0.593   0.8219   0.6585     C
C       0.5932   0.6785   0.1586     C
C       0.6097   0.3452   0.2997     C
C         0.61   0.1557   0.7999     C
C       0.6277    0.682    0.316     C
C       0.6287   0.8185   0.8158     C
Ag     0.63777  0.38787  0.51539    Ag
Ag     0.63778  0.11213  0.01539    Ag
H        0.658    0.619    0.144     H
H         0.66    0.879    0.642     H
H        0.676    0.413    0.285     H
N        0.677   0.8987   0.9378     N
N       0.6775   0.6013   0.4373     N
H        0.678      0.1    0.787     H
N       0.7616   0.8175    0.803     N
N       0.7617   0.6824   0.3028     N
H        0.766    0.062    0.187     H
H        0.775    0.445    0.681     H
C       0.7881   0.6337   0.3807     C
C       0.7881   0.8664   0.8806     C
N        0.831   0.1267   0.0583     N
N       0.8313    0.373   0.5582     N
C       0.8472   0.4109   0.6392     C
C       0.8477   0.0894   0.1393     C
N       0.8487   0.7405   0.2277     N
N       0.8491   0.7616    0.727     N
H        0.864    0.809    0.031     H
H        0.866    0.684    0.526     H
H        0.882    0.719    0.744     H
H        0.885    0.692    0.213     H
H        0.897    0.826    0.693     H
H        0.901    0.785    0.252     H
C         0.92    0.872   0.9012     C
C       0.9205   0.6278   0.4012     C
H        0.921    0.186    0.936     H
H        0.927    0.303    0.442     H
C       0.9357   0.8342   0.9867     C
C       0.9361   0.6658   0.4858     C
C       0.9394   0.1637   0.9969     C
C       0.9397   0.3362   0.4967     C
C       0.9673   0.4114   0.6633     C
C       0.9684   0.0877   0.1632     C
H        0.971    0.057    0.221     H
H        0.977    0.442    0.717     H
