data_I
_chemical_name_common  '/home/zhangsd/repos/MofS-CGCNN/ML/data/SSD/clean_cifs/QAPQEE_clean'
_cell_length_a 15.20350
_cell_length_b 16.59190
_cell_length_c 16.12400
_cell_angle_alpha 90.00000
_cell_angle_beta  116.84900
_cell_angle_gamma 90.00000
_space_group_name_H-M_alt      'P 1'


loop_
_space_group_symop_operation_xyz
  'x, y, z' 

loop_
_atom_site_label
_atom_site_fract_x
_atom_site_fract_y
_atom_site_fract_z
_atom_site_type_symbol
H       0.0228   0.2334    0.344     H
H       0.0228   0.7666    0.844     H
Ag     0.07027  0.41106  0.39558    Ag
Ag     0.07027  0.58894  0.89558    Ag
C      0.07047  0.22158  0.40574     C
C      0.07047  0.77842  0.90574     C
H       0.0806   0.1028   0.3798     H
H       0.0806   0.8972   0.8798     H
N      0.09678  0.38437  0.20418     N
N      0.09678  0.61563  0.70418     N
H       0.0998   0.4145   0.8399     H
H       0.0998   0.5855   0.3399     H
N      0.10146  0.28183  0.46741     N
N      0.10146  0.71817  0.96741     N
N      0.10313  0.46296  0.95302     N
N      0.10313  0.53704  0.45302     N
C       0.1037  0.14335  0.42644     C
C       0.1037  0.85665  0.92644     C
C       0.1104  0.40276   0.9014     C
C       0.1104  0.59724   0.4014     C
H       0.1133   0.4872    0.077     H
H       0.1133   0.5128    0.577     H
C      0.11866  0.44519  0.03949     C
C      0.11866  0.55481  0.53949     C
H        0.132   0.1817    0.728     H
H        0.132   0.8183    0.228     H
C       0.1326   0.3248   0.9327     C
C       0.1326   0.6752   0.4327     C
H       0.1363   0.2838   0.8933     H
H       0.1363   0.7162   0.3933     H
N      0.13938   0.3689   0.2988     N
N      0.13938   0.6311   0.7988     N
C      0.14218  0.36833  0.07717     C
C      0.14218  0.63167  0.57717     C
C       0.1495  0.30685   0.0229     C
C       0.1495  0.69315   0.5229     C
C      0.15707   0.3573    0.173     C
C      0.15707   0.6427    0.673     C
H       0.1658   0.2536   0.0466     H
H       0.1658   0.7464   0.5466     H
C      0.16677  0.26358  0.55504     C
C      0.16677  0.73642  0.05504     C
C      0.17143  0.12508  0.51683     C
C      0.17143  0.87492  0.01683     C
H        0.182    0.263     0.75     H
H        0.182    0.737     0.25     H
N      0.18221   0.2096  0.76514     N
N      0.18221   0.7904  0.26514     N
H        0.189   0.3055   0.6001     H
H        0.189   0.6945   0.1001     H
H       0.1957   0.0717   0.5335     H
H       0.1957   0.9283   0.0335     H
C      0.20316  0.18656  0.58266     C
C      0.20316  0.81344  0.08266     C
C       0.2238  0.33295  0.32155     C
C       0.2238  0.66705  0.82155     C
N      0.23705  0.32302  0.24379     N
N      0.23705  0.67698  0.74379     N
N      0.26295  0.17698  0.75621     N
N      0.26295  0.82302  0.25621     N
C       0.2762  0.16705  0.67845     C
C       0.2762  0.83295  0.17845     C
C      0.29684  0.31344  0.41734     C
C      0.29684  0.68656  0.91734     C
H       0.3043   0.4283   0.4665     H
H       0.3043   0.5717   0.9665     H
H        0.311   0.1945   0.3999     H
H        0.311   0.8055   0.8999     H
N      0.31779   0.2904  0.23486     N
N      0.31779   0.7096  0.73486     N
H        0.318    0.237     0.25     H
H        0.318    0.763     0.75     H
C      0.32857  0.37492  0.48317     C
C      0.32857  0.62508  0.98317     C
C      0.33323  0.23642  0.44496     C
C      0.33323  0.76358  0.94496     C
H       0.3342   0.2464   0.9534     H
H       0.3342   0.7536   0.4534     H
C      0.34293   0.1427    0.827     C
C      0.34293   0.8573    0.327     C
C       0.3505  0.19315   0.9771     C
C       0.3505  0.80685   0.4771     C
C      0.35782  0.13167  0.92283     C
C      0.35782  0.86833  0.42283     C
N      0.36062   0.1311   0.7012     N
N      0.36062   0.8689   0.2012     N
H       0.3637   0.2162   0.1067     H
H       0.3637   0.7838   0.6067     H
C       0.3674   0.1752   0.0673     C
C       0.3674   0.8248   0.5673     C
H        0.368   0.3183    0.272     H
H        0.368   0.6817    0.772     H
C      0.38134  0.05481  0.96051     C
C      0.38134  0.94519  0.46051     C
H       0.3867   0.0128    0.923     H
H       0.3867   0.9872    0.423     H
C       0.3896  0.09724   0.0986     C
C       0.3896  0.90276   0.5986     C
C       0.3963  0.35665  0.57356     C
C       0.3963  0.64335  0.07356     C
N      0.39687  0.03704  0.04698     N
N      0.39687  0.96296  0.54698     N
N      0.39854  0.21817  0.53259     N
N      0.39854  0.78183  0.03259     N
H       0.4002   0.0855   0.1601     H
H       0.4002   0.9145   0.6601     H
N      0.40322  0.11563  0.79582     N
N      0.40322  0.88437  0.29582     N
H       0.4194   0.3972   0.6202     H
H       0.4194   0.6028   0.1202     H
C      0.42953  0.27842  0.59426     C
C      0.42953  0.72158  0.09426     C
Ag     0.42973  0.08894  0.60442    Ag
Ag     0.42973  0.91106  0.10442    Ag
H       0.4772   0.2666    0.656     H
H       0.4772   0.7334    0.156     H
H       0.5228   0.2666    0.844     H
H       0.5228   0.7334    0.344     H
Ag     0.57027  0.08894  0.89558    Ag
Ag     0.57027  0.91106  0.39558    Ag
C      0.57047  0.27842  0.90574     C
C      0.57047  0.72158  0.40574     C
H       0.5806   0.3972   0.8798     H
H       0.5806   0.6028   0.3798     H
N      0.59678  0.11563  0.70418     N
N      0.59678  0.88437  0.20418     N
H       0.5998   0.0855   0.3399     H
H       0.5998   0.9145   0.8399     H
N      0.60146  0.21817  0.96741     N
N      0.60146  0.78183  0.46741     N
N      0.60313  0.03704  0.45302     N
N      0.60313  0.96296  0.95302     N
C       0.6037  0.35665  0.92644     C
C       0.6037  0.64335  0.42644     C
C       0.6104  0.09724   0.4014     C
C       0.6104  0.90276   0.9014     C
H       0.6133   0.0128    0.577     H
H       0.6133   0.9872    0.077     H
C      0.61866  0.05481  0.53949     C
C      0.61866  0.94519  0.03949     C
H        0.632   0.3183    0.228     H
H        0.632   0.6817    0.728     H
C       0.6326   0.1752   0.4327     C
C       0.6326   0.8248   0.9327     C
H       0.6363   0.2162   0.3933     H
H       0.6363   0.7838   0.8933     H
N      0.63938   0.1311   0.7988     N
N      0.63938   0.8689   0.2988     N
C      0.64218  0.13167  0.57717     C
C      0.64218  0.86833  0.07717     C
C       0.6495  0.19315   0.5229     C
C       0.6495  0.80685   0.0229     C
C      0.65707   0.1427    0.673     C
C      0.65707   0.8573    0.173     C
H       0.6658   0.2464   0.5466     H
H       0.6658   0.7536   0.0466     H
C      0.66677  0.23642  0.05504     C
C      0.66677  0.76358  0.55504     C
C      0.67143  0.37492  0.01683     C
C      0.67143  0.62508  0.51683     C
H        0.682    0.237     0.25     H
H        0.682    0.763     0.75     H
N      0.68221   0.2904  0.26514     N
N      0.68221   0.7096  0.76514     N
H        0.689   0.1945   0.1001     H
H        0.689   0.8055   0.6001     H
H       0.6957   0.4283   0.0335     H
H       0.6957   0.5717   0.5335     H
C      0.70316  0.31344  0.08266     C
C      0.70316  0.68656  0.58266     C
C       0.7238  0.16705  0.82155     C
C       0.7238  0.83295  0.32155     C
N      0.73705  0.17698  0.74379     N
N      0.73705  0.82302  0.24379     N
N      0.76295  0.32302  0.25621     N
N      0.76295  0.67698  0.75621     N
C       0.7762  0.33295  0.17845     C
C       0.7762  0.66705  0.67845     C
C      0.79684  0.18656  0.91734     C
C      0.79684  0.81344  0.41734     C
H       0.8043   0.0717   0.9665     H
H       0.8043   0.9283   0.4665     H
H        0.811   0.3055   0.8999     H
H        0.811   0.6945   0.3999     H
N      0.81779   0.2096  0.73486     N
N      0.81779   0.7904  0.23486     N
H        0.818    0.263     0.75     H
H        0.818    0.737     0.25     H
C      0.82857  0.12508  0.98317     C
C      0.82857  0.87492  0.48317     C
C      0.83323  0.26358  0.94496     C
C      0.83323  0.73642  0.44496     C
H       0.8342   0.2536   0.4534     H
H       0.8342   0.7464   0.9534     H
C      0.84293   0.3573    0.327     C
C      0.84293   0.6427    0.827     C
C       0.8505  0.30685   0.4771     C
C       0.8505  0.69315   0.9771     C
C      0.85782  0.36833  0.42283     C
C      0.85782  0.63167  0.92283     C
N      0.86062   0.3689   0.2012     N
N      0.86062   0.6311   0.7012     N
H       0.8637   0.2838   0.6067     H
H       0.8637   0.7162   0.1067     H
C       0.8674   0.3248   0.5673     C
C       0.8674   0.6752   0.0673     C
H        0.868   0.1817    0.772     H
H        0.868   0.8183    0.272     H
C      0.88134  0.44519  0.46051     C
C      0.88134  0.55481  0.96051     C
H       0.8867   0.4872    0.423     H
H       0.8867   0.5128    0.923     H
C       0.8896  0.40276   0.5986     C
C       0.8896  0.59724   0.0986     C
C       0.8963  0.14335  0.07356     C
C       0.8963  0.85665  0.57356     C
N      0.89687  0.46296  0.54698     N
N      0.89687  0.53704  0.04698     N
N      0.89854  0.28183  0.03259     N
N      0.89854  0.71817  0.53259     N
H       0.9002   0.4145   0.6601     H
H       0.9002   0.5855   0.1601     H
N      0.90322  0.38437  0.29582     N
N      0.90322  0.61563  0.79582     N
H       0.9194   0.1028   0.1202     H
H       0.9194   0.8972   0.6202     H
C      0.92953  0.22158  0.09426     C
C      0.92953  0.77842  0.59426     C
Ag     0.92973  0.41106  0.10442    Ag
Ag     0.92973  0.58894  0.60442    Ag
H       0.9772   0.2334    0.156     H
H       0.9772   0.7666    0.656     H
