data_I
_chemical_name_common  '/home/zhangsd/repos/MofS-CGCNN/ML/data/SSD/clean_cifs/QERZUI01_clean'
_cell_length_a  5.11860
_cell_length_b 11.32540
_cell_length_c 12.57660
_cell_angle_alpha 92.02930
_cell_angle_beta  101.74200
_cell_angle_gamma 79.97900
_space_group_name_H-M_alt      'P 1'


loop_
_space_group_symop_operation_xyz
  'x, y, z' 

loop_
_atom_site_label
_atom_site_fract_x
_atom_site_fract_y
_atom_site_fract_z
_atom_site_type_symbol
H       0.0485   0.0565   0.1234     H
N      0.04867   0.1661  0.88914     N
C      0.05178   0.0559  0.46936     C
C      0.05279   0.5663  0.94018     C
Cu     0.05564  0.78349  0.22594    Cu
C      0.09047   0.9868  0.37874     C
H       0.0925   0.4056   0.4592     H
C      0.11261   0.0663  0.05982     C
H       0.1405    0.122   0.4878     H
N      0.15953   0.6661  0.11086     N
C      0.19437   0.5981  0.36834     C
H       0.2097    0.007   0.3372     H
O      0.21013   0.3763  0.80046     O
C      0.25182   0.4279  0.49984     C
C        0.278   0.0981   0.8724     C
O      0.30285   0.6831   0.3435     O
C      0.30901   0.4966  0.95702     C
H       0.3242   0.2972   0.6118     H
H       0.3349   0.1078   0.8072     H
C      0.34821   0.5259  0.46802     C
C      0.35199   0.9966  0.04298     C
C      0.38895   0.4084   0.8721     C
C      0.39057   0.3635  0.59134     C
C       0.4056   0.5981   0.1276     C
O      0.40967   0.8763  0.19954     O
C      0.43535   0.0141   0.9467     C
C      0.48865   0.5141   0.0533     C
C      0.51685   0.9084   0.1279     C
H       0.5277   0.6078   0.1928     H
C      0.58242   0.5559  0.53064     C
H        0.597   0.9692   0.9324     H
N      0.62033   0.3935  0.65246     N
H       0.6333   0.9056   0.5408     H
O      0.64464   0.3739  0.88168     O
H       0.6527    0.622   0.5122     H
O      0.65595   0.0723   0.6799     O
H       0.6646   0.4692   0.0676     H
C      0.71173   0.4868  0.62126     C
H       0.7124   0.7972   0.3882     H
C      0.75198   0.9279  0.50016     C
O      0.76296   0.8739  0.11832     O
C      0.79923   0.8635  0.40866     C
H       0.8103   0.1975    0.997     H
H       0.8133   0.6975    0.003     H
C      0.82603   0.0981  0.63166     C
Cu      0.8297  0.28349  0.77406    Cu
H       0.8725    0.507   0.6628     H
C      0.88019   0.0259  0.53198     C
H       0.9251   0.5565   0.8766     H
O      0.95935   0.1831   0.6565     O
N      0.96787   0.8935  0.34754     N
C      0.96966   0.1497  0.98332     C
O      0.97605   0.5723   0.3201     O
C      0.98634   0.6497  0.01668     C
