data_I
_chemical_name_common  '/home/zhangsd/repos/MofS-CGCNN/ML/data/SSD/clean_cifs/QEZZAY_clean'
_cell_length_a 14.32800
_cell_length_b 14.32800
_cell_length_c 10.09660
_cell_angle_alpha 90.00000
_cell_angle_beta  90.00000
_cell_angle_gamma 120.00000
_space_group_name_H-M_alt      'P 1'


loop_
_space_group_symop_operation_xyz
  'x, y, z' 

loop_
_atom_site_label
_atom_site_fract_x
_atom_site_fract_y
_atom_site_fract_z
_atom_site_type_symbol
S      0.00489   0.5244  0.86328     S
O      0.02937  0.61701   0.2812     O
O      0.03111  0.54735   0.5015     O
O      0.04695    0.464   0.3003     O
O       0.0923  0.40363   0.0565     O
O      0.09469  0.24741   0.9792     O
O       0.1226  0.57412   0.8671     O
O       0.1249  0.29497   0.2096     O
Eu     0.14347  0.58407  0.11308    Eu
S      0.14357  0.33717  0.07498     S
O      0.14455  0.74095   0.0453     O
O      0.15272  0.90531   0.9792     O
O      0.17007   0.8751   0.2096     O
S       0.1936  0.85643  0.07498     S
O      0.24741  0.09469   0.4792     O
O      0.25905   0.4036   0.0453     O
O      0.27759  0.72216   0.2664     O
O      0.27784  0.55543   0.2664     O
O      0.29497   0.1249   0.7096     O
O      0.31133   0.9077   0.0565     O
O      0.33333  0.66667   0.0284     O
S      0.33333  0.66667  0.32408     S
O      0.33333  0.66667   0.4657     O
S      0.33717  0.14357  0.57498     S
O      0.38299  0.41236   0.2812     O
O       0.4036  0.25905   0.5453     O
O      0.40363   0.0923   0.5565     O
O      0.41236  0.38299   0.7812     O
Eu     0.41593   0.5594  0.11308    Eu
O      0.41705  0.95305   0.3003     O
O      0.42588  0.54848   0.8671     O
Eu      0.4406  0.85653  0.11308    Eu
O      0.44457  0.72241   0.2664     O
O      0.45152   0.8774   0.8671     O
O      0.45265  0.48376   0.5015     O
O        0.464  0.04695   0.8003     O
S       0.4756  0.48049  0.86328     S
S      0.48049   0.4756  0.36328     S
O      0.48376  0.45265   0.0015     O
O      0.51624  0.96889   0.5015     O
S      0.51951  0.99511  0.86328     S
S       0.5244  0.00489  0.36328     S
O        0.536  0.58295   0.3003     O
O      0.54735  0.03111   0.0015     O
O      0.54848  0.42588   0.3671     O
O      0.55543  0.27784   0.7664     O
Eu      0.5594  0.41593  0.61308    Eu
O      0.57412   0.1226   0.3671     O
O      0.58295    0.536   0.8003     O
Eu     0.58407  0.14347  0.61308    Eu
O      0.58764  0.97063   0.2812     O
O      0.59637  0.68867   0.0565     O
O       0.5964  0.85545   0.0453     O
O      0.61701  0.02937   0.7812     O
S      0.66283   0.8064  0.07498     S
O      0.66667  0.33333   0.5284     O
S      0.66667  0.33333  0.82408     S
O      0.66667  0.33333   0.9657     O
O      0.68867  0.59637   0.5565     O
O      0.70503  0.82993   0.2096     O
O      0.72216  0.27759   0.7664     O
O      0.72241  0.44457   0.7664     O
O      0.74095  0.14455   0.5453     O
O      0.75259  0.84728   0.9792     O
S       0.8064  0.66283  0.57498     S
O      0.82993  0.70503   0.7096     O
O      0.84728  0.75259   0.4792     O
O      0.85545   0.5964   0.5453     O
S      0.85643   0.1936  0.57498     S
Eu     0.85653   0.4406  0.61308    Eu
O       0.8751  0.17007   0.7096     O
O       0.8774  0.45152   0.3671     O
O      0.90531  0.15272   0.4792     O
O       0.9077  0.31133   0.5565     O
O      0.95305  0.41705   0.8003     O
O      0.96889  0.51624   0.0015     O
O      0.97063  0.58764   0.7812     O
S      0.99511  0.51951  0.36328     S
