data_I
_chemical_name_common  '/home/zhangsd/repos/MofS-CGCNN/ML/data/SSD/clean_cifs/QIQZIB_clean'
_cell_length_a 13.65420
_cell_length_b 13.65420
_cell_length_c 42.16000
_cell_angle_alpha 90.00000
_cell_angle_beta  90.00000
_cell_angle_gamma 90.00000
_space_group_name_H-M_alt      'P 1'


loop_
_space_group_symop_operation_xyz
  'x, y, z' 

loop_
_atom_site_label
_atom_site_fract_x
_atom_site_fract_y
_atom_site_fract_z
_atom_site_type_symbol
C       0.0051    0.635  0.05046     C
O       0.0074   0.2451  0.47941     O
C       0.0087   0.5305  0.39205     C
C       0.0098   0.4133  0.58139     C
C       0.0112     0.45   0.3412     C
Cu     0.01279  0.94233  0.52928    Cu
H       0.0136   0.5976   0.8276     H
H       0.0236   0.3126   0.9276     H
O       0.0253    0.154  0.06065     O
C       0.0277   0.5388  0.87136     C
O       0.0283  0.88163  0.94168     O
C       0.0303   0.4592  0.92445     C
C       0.0305   0.4913  0.64205     C
N      0.03088   0.4123  0.22213     N
C       0.0384   0.3691  0.93897     C
O       0.0388   0.2703  0.42406     O
C       0.0388   0.4723  0.12136     C
C       0.0394   0.4423  0.19218     C
S      0.03958   0.1998  0.44926     S
C       0.0408   0.5303  0.67445     C
Cu     0.04182  0.17228  0.52036    Cu
O      0.04611  0.04611      0.5     O
O       0.0486   0.2922  0.54446     O
C         0.05   0.5112   0.0912     C
H       0.0552   0.6012    0.933     H
Cu     0.05767  0.98721  0.97072    Cu
C       0.0577   0.5394  0.94218     C
C       0.0578     0.59  0.73476     C
H       0.0636   0.6088   0.7559     H
N      0.06726  0.36171  0.96926     N
O       0.0689  0.60041  0.03302     O
Cu      0.0782  0.22394  0.98633    Cu
O      0.07859     0.79  0.49087     O
H       0.0787   0.4208   0.1278     H
H       0.0792   0.5787   0.8778     H
C       0.0816   0.3793  0.60221     C
C       0.0834   0.5915  0.38171     C
O       0.0861    0.867  0.04517     O
C       0.0867   0.5098  0.33139     C
N       0.0877  0.53088  0.97213     N
C         0.09   0.4422  0.98476     C
O      0.09106  0.09106      0.0     O
C       0.0915   0.4166  0.63171     C
H       0.0976   0.4864   0.0776     H
O      0.10041   0.4311  0.28302     O
H       0.1012   0.4448    0.183     H
O       0.1033  0.27848  0.03024     O
H       0.1079   0.6396   0.3952     H
H       0.1088   0.4364   0.0059     H
S      0.11365  0.21554  0.05821     S
O      0.11837   0.9717  0.55832     O
C       0.1207   0.5816  0.35221     C
H       0.1237   0.3298   0.5956     H
O        0.126   0.2732  0.08646     O
C       0.1309   0.5384  0.68897     C
Cu     0.13234  0.65183  0.99602    Cu
O        0.133   0.9139  0.45483     O
C        0.135   0.4949  0.30046     C
N      0.13829  0.56726  0.71926     N
O       0.1393   0.1603  0.45367     O
H       0.1396   0.3921   0.6452     H
O       0.1403   0.7467  0.43881     O
S       0.1486  0.81358   0.4655     S
O       0.1495   0.1983  0.94609     O
Cu     0.15183  0.36766  0.24602    Cu
O        0.154   0.0253  0.93935     O
O       0.1603   0.1393  0.54633     O
H       0.1702   0.6237   0.3456     H
Cu     0.17228  0.04182  0.47964    Cu
S      0.18642   0.8514   0.0345     S
H       0.1874   0.5236   0.6776     H
O       0.1964   0.7521  0.02088     O
O       0.1983   0.1495  0.05391     O
S       0.1998  0.03958  0.55074     S
O       0.2078   0.5486  0.29446     O
O         0.21  0.92141  0.00913     O
S      0.21554  0.11365  0.94179     S
O      0.22152   0.6033  0.78024     O
Cu     0.22394   0.0782  0.01367    Cu
O       0.2268    0.626  0.83646     O
O       0.2297   0.5388  0.17406     O
O       0.2451   0.0074  0.52059     O
O       0.2467   0.3597  0.68881     O
O       0.2479   0.8036  0.47912     O
O       0.2521   0.3036  0.27088     O
O       0.2533   0.8597  0.06119     O
O       0.2549   0.5074  0.22941     O
O       0.2703   0.0388  0.57594     O
O       0.2732    0.126  0.91354     O
Cu     0.27606   0.5782  0.73633    Cu
O      0.27848   0.1033  0.96976     O
S      0.28446  0.61365  0.80821     S
O         0.29  0.42141  0.74087     O
O       0.2922   0.0486  0.45554     O
S       0.3002  0.53958  0.19926     S
O       0.3017   0.6495  0.69609     O
O       0.3036   0.2521  0.72912     O
H       0.3126   0.0236   0.0724     H
S      0.31358   0.3514   0.7155     S
Cu     0.32772  0.54182  0.27036    Cu
H       0.3298   0.1237   0.4044     H
O       0.3397   0.6393  0.20367     O
O        0.346   0.5253  0.81065     O
Cu     0.34817  0.86766  0.50398    Cu
O       0.3505   0.6983  0.80391     O
S       0.3514  0.31358   0.2845     S
O       0.3597   0.2467  0.31119     O
H       0.3604   0.8921   0.1048     H
O       0.3607   0.6603  0.29633     O
N      0.36171  0.06726  0.03074     N
C        0.365   0.9949  0.44954     C
O        0.367   0.4139  0.29517     O
Cu     0.36766  0.15183  0.75398    Cu
C       0.3691   0.0384  0.06103     C
O        0.374   0.7732  0.66354     O
H       0.3763   0.8298   0.1544     H
C       0.3793   0.0816  0.39779     C
O      0.38163   0.4717  0.19168     O
S      0.38635  0.71554  0.69179     S
H       0.3912   0.9364   0.7441     H
H       0.3921   0.1396   0.3548     H
O       0.3967  0.77848  0.71976     O
H       0.3988   0.9448    0.567     H
O      0.39959   0.9311  0.46698     O
H       0.4024   0.9864   0.6724     H
C       0.4085   0.9166  0.11829     C
O      0.40894  0.59106     0.75     O
C         0.41   0.9422  0.76524     C
N       0.4123  0.03088  0.77787     N
C       0.4133   0.0098  0.41861     C
O       0.4139    0.367  0.70483     O
C       0.4166   0.0915  0.36829     C
C       0.4184   0.8793  0.14779     C
H       0.4208   0.0787   0.8722     H
H       0.4213   0.9208   0.6222     H
O      0.42141     0.29  0.25913     O
Cu      0.4218  0.72394  0.76367    Cu
O       0.4311  0.10041  0.71698     O
N      0.43274  0.86171  0.78074     N
H       0.4364   0.1088   0.9941     H
C       0.4422     0.09  0.01524     C
C       0.4423   0.0394  0.80782     C
Cu     0.44233  0.48721  0.77928    Cu
H       0.4448   0.1012    0.817     H
C         0.45   0.0112   0.6588     C
O       0.4514   0.7922  0.20554     O
O      0.45389  0.54611     0.25     O
Cu     0.45818  0.67228  0.22964    Cu
C       0.4592   0.0303  0.07555     C
S      0.46042   0.6998  0.30074     S
C       0.4606   0.9423  0.55782     C
O       0.4612   0.7703  0.32594     O
C       0.4612   0.9723  0.62864     C
C       0.4616   0.8691  0.81103     C
N      0.46912   0.9123  0.52787     N
C       0.4695   0.9913  0.10795     C
C       0.4697   0.9592  0.82555     C
O       0.4717  0.38163  0.80832     O
C       0.4723   0.0388  0.87864     C
O       0.4747    0.654  0.68935     O
H       0.4764   0.8126   0.8224     H
H       0.4864   0.0976   0.9224     H
Cu     0.48721  0.44233  0.22072    Cu
C       0.4888     0.95   0.4088     C
C       0.4902   0.9133  0.16861     C
C       0.4913   0.0305  0.35795     C
O       0.4926   0.7451  0.27059     O
C       0.4949    0.135  0.69954     C
C       0.5051    0.865  0.19954     C
O       0.5074   0.2549  0.77059     O
C       0.5087   0.9695  0.85795     C
C       0.5098   0.0867  0.66861     C
C       0.5112     0.05   0.9088     C
Cu     0.51279  0.55767  0.72072    Cu
H       0.5136   0.9024   0.4224     H
H       0.5236   0.1874   0.3224     H
O       0.5253    0.346  0.18935     O
C       0.5277   0.9612  0.37864     C
O       0.5283  0.61837  0.30832     O
C       0.5303   0.0408  0.32555     C
C       0.5305   0.0087  0.60795     C
N      0.53088   0.0877  0.02787     N
C       0.5384   0.1309  0.31103     C
C       0.5388   0.0277  0.12864     C
O       0.5388   0.2297  0.82594     O
C       0.5394   0.0577  0.05782     C
S      0.53958   0.3002  0.80074     S
C       0.5408   0.9697  0.57555     C
Cu     0.54182  0.32772  0.72964    Cu
O      0.54611  0.45389     0.75     O
O       0.5486   0.2078  0.70554     O
C         0.55   0.9888   0.1588     C
H       0.5552   0.8988    0.317     H
Cu     0.55767  0.51279  0.27928    Cu
C       0.5577   0.9606  0.30782     C
C       0.5578     0.91  0.51524     C
H       0.5636   0.8912   0.4941     H
N      0.56726  0.13829  0.28074     N
O       0.5689  0.89959  0.21698     O
Cu      0.5782  0.27606  0.26367    Cu
O      0.57859     0.71  0.75913     O
H       0.5787   0.0792   0.1222     H
H       0.5792   0.9213   0.3722     H
C       0.5816   0.1207  0.64779     C
C       0.5834   0.9085  0.86829     C
O       0.5861    0.633  0.20483     O
C       0.5867   0.9902  0.91861     C
N       0.5877  0.96912  0.27787     N
C         0.59   0.0578  0.26524     C
O      0.59106  0.40894     0.25     O
C       0.5915   0.0834  0.61829     C
H       0.5976   0.0136   0.1724     H
O      0.60041   0.0689  0.96698     O
H       0.6012   0.0552    0.067     H
O       0.6033  0.22152  0.21976     O
H       0.6079   0.8604   0.8548     H
H       0.6088   0.0636   0.2441     H
S      0.61365  0.28446  0.19179     S
O      0.61837   0.5283  0.69168     O
C       0.6207   0.9184  0.89779     C
H       0.6237   0.1702   0.6544     H
O        0.626   0.2268  0.16354     O
C       0.6309   0.9616  0.56103     C
Cu     0.63234  0.84817  0.25398    Cu
O        0.633   0.5861  0.79517     O
C        0.635   0.0051  0.94954     C
N      0.63829  0.93274  0.53074     N
O       0.6393   0.3397  0.79633     O
H       0.6396   0.1079   0.6048     H
O       0.6403   0.7533  0.81119     O
S       0.6486  0.68642   0.7845     S
O       0.6495   0.3017  0.30391     O
Cu     0.65183  0.13234  0.00398    Cu
O        0.654   0.4747  0.31065     O
O       0.6603   0.3607  0.70367     O
H       0.6702   0.8763   0.9044     H
Cu     0.67228  0.45818  0.77036    Cu
S      0.68642   0.6486   0.2155     S
H       0.6874   0.9764   0.5724     H
O       0.6964   0.7479  0.22912     O
O       0.6983   0.3505  0.19609     O
S       0.6998  0.46042  0.69926     S
O       0.7078   0.9514  0.95554     O
O         0.71  0.57859  0.24087     O
S      0.71554  0.38635  0.30821     S
O      0.72152   0.8967  0.46976     O
Cu     0.72394   0.4218  0.23633    Cu
O       0.7268    0.874  0.41354     O
O       0.7297   0.9612  0.07594     O
O       0.7451   0.4926  0.72941     O
O       0.7467   0.1403  0.56119     O
O       0.7479   0.6964  0.77088     O
O       0.7521   0.1964  0.97912     O
O       0.7533   0.6403  0.18881     O
O       0.7549   0.9926  0.02059     O
O       0.7703   0.4612  0.67406     O
O       0.7732    0.374  0.33646     O
Cu     0.77606   0.9218  0.51367    Cu
O      0.77848   0.3967  0.28024     O
S      0.78446  0.88635  0.44179     S
O         0.79  0.07859  0.50913     O
O       0.7922   0.4514  0.79446     O
S       0.8002  0.96042  0.05074     S
O       0.8017   0.8505  0.55391     O
O       0.8036   0.2479  0.52088     O
H       0.8126   0.4764   0.1776     H
S      0.81358   0.1486   0.5345     S
Cu     0.82772  0.95818  0.97964    Cu
H       0.8298   0.3763   0.8456     H
O       0.8397   0.8607  0.04633     O
O        0.846   0.9747  0.43935     O
Cu     0.84817  0.63234  0.74602    Cu
O       0.8505   0.8017  0.44609     O
S       0.8514  0.18642   0.9655     S
O       0.8597   0.2533  0.93881     O
H       0.8604   0.6079   0.1452     H
O       0.8607   0.8397  0.95367     O
N      0.86171  0.43274  0.21926     N
C        0.865   0.5051  0.80046     C
O        0.867   0.0861  0.95483     O
Cu     0.86766  0.34817  0.49602    Cu
C       0.8691   0.4616  0.18897     C
O        0.874   0.7268  0.58646     O
H       0.8763   0.6702   0.0956     H
C       0.8793   0.4184  0.85221     C
O      0.88163   0.0283  0.05832     O
S      0.88635  0.78446  0.55821     S
H       0.8912   0.5636   0.5059     H
H       0.8921   0.3604   0.8952     H
O       0.8967  0.72152  0.53024     O
H       0.8988   0.5552    0.683     H
O      0.89959   0.5689  0.78302     O
H       0.9024   0.5136   0.5776     H
C       0.9085   0.5834  0.13171     C
O      0.90894  0.90894      0.5     O
C         0.91   0.5578  0.48476     C
N       0.9123  0.46912  0.47213     N
C       0.9133   0.4902  0.83139     C
O       0.9139    0.133  0.54517     O
C       0.9166   0.4085  0.88171     C
C       0.9184   0.6207  0.10221     C
H       0.9208   0.4213   0.3778     H
H       0.9213   0.5792   0.6278     H
O      0.92141     0.21  0.99087     O
Cu      0.9218  0.77606  0.48633    Cu
O       0.9311  0.39959  0.53302     O
N      0.93274  0.63829  0.46926     N
H       0.9364   0.3912   0.2559     H
C       0.9422     0.41  0.23476     C
C       0.9423   0.4606  0.44218     C
Cu     0.94233  0.01279  0.47072    Cu
H       0.9448   0.3988    0.433     H
C         0.95   0.4888   0.5912     C
O       0.9514   0.7078  0.04446     O
O      0.95389  0.95389      0.0     O
Cu     0.95818  0.82772  0.02036    Cu
C       0.9592   0.4697  0.17445     C
S      0.96042   0.8002  0.94926     S
C       0.9606   0.5577  0.69218     C
C       0.9612   0.5277  0.62136     C
O       0.9612   0.7297  0.92406     O
C       0.9616   0.6309  0.43897     C
N      0.96912   0.5877  0.72213     N
C       0.9695   0.5087  0.14205     C
C       0.9697   0.5408  0.42445     C
O       0.9717  0.11837  0.44168     O
C       0.9723   0.4612  0.37136     C
O       0.9747    0.846  0.56065     O
H       0.9764   0.6874   0.4276     H
H       0.9864   0.4024   0.3276     H
Cu     0.98721  0.05767  0.02928    Cu
C       0.9888     0.55   0.8412     C
C       0.9902   0.5867  0.08139     C
C       0.9913   0.4695  0.89205     C
O       0.9926   0.7549  0.97941     O
C       0.9949    0.365  0.55046     C
