data_I
_chemical_name_common  '/home/zhangsd/repos/MofS-CGCNN/ML/data/SSD/clean_cifs/QITZIE_clean'
_cell_length_a 11.62400
_cell_length_b 13.39500
_cell_length_c 21.37800
_cell_angle_alpha 108.23000
_cell_angle_beta  96.32000
_cell_angle_gamma 103.03000
_space_group_name_H-M_alt      'P 1'


loop_
_space_group_symop_operation_xyz
  'x, y, z' 

loop_
_atom_site_label
_atom_site_fract_x
_atom_site_fract_y
_atom_site_fract_z
_atom_site_type_symbol
C       0.0012   0.5373   0.0695     C
C       0.0065   0.5764    0.142     C
H       0.0071   0.4444   0.5367     H
H       0.0084   0.8206   0.0039     H
C       0.0109    0.835   0.9642     C
C       0.0123   0.4588   0.7549     C
C       0.0214   0.8816   0.8512     C
H       0.0242   0.8972   0.8118     H
C       0.0287   0.4962    0.823     C
H       0.0376   0.5084   0.7337     H
N       0.0395   0.6477   0.2836     N
C       0.0526   0.6852   0.1826     C
H       0.0536   0.1946   0.3431     H
C       0.0635   0.2095   0.1498     C
H       0.0635   0.5703   0.8469     H
H       0.0641   0.3721   0.3552     H
C       0.0669   0.7174   0.2508     C
C       0.0705   0.2356   0.0925     C
N       0.0708   0.3772   0.5967     N
H       0.0743   0.7376   0.1628     H
C       0.0768     0.43   0.5531     C
C       0.0813   0.5574   0.9735     C
C       0.0855   0.5941   0.0416     C
C       0.0953   0.9252   0.9653     C
Ni     0.09574  0.69972  0.38788    Ni
H       0.0972   0.7916   0.2758     H
C       0.1031   0.9508   0.9095     C
H       0.1167   0.0706   0.8272     H
H       0.1168   0.2541   0.1896     H
H        0.117   0.6993    0.589     H
C       0.1216   0.2383   0.3358     C
C       0.1291    0.345   0.3446     C
H       0.1357   0.7079   0.7008     H
H       0.1359   0.5979   0.9558     H
H       0.1444   0.6568   0.0693     H
H       0.1482   0.9697   0.0053     H
H       0.1504   0.2857   0.9908     H
O       0.1517   0.7514   0.4911     O
O       0.1521   0.5621   0.3779     O
C       0.1625   0.3309   0.0902     C
C        0.174   0.3617   0.6206     C
H       0.1741   0.3268   0.6519     H
H       0.1784   0.5019   0.5012     H
C       0.1798   0.4642    0.531     C
C       0.1833   0.0997   0.8622     C
C       0.1847   0.7472   0.6202     C
C       0.1901   0.3406   0.0314     C
C       0.1949   0.7513   0.6872     C
C       0.1964   0.0502   0.9101     C
O       0.1973   0.0894   0.3131     O
C       0.2138   0.1948   0.3164     C
H       0.2147   0.4133   0.1909     H
H       0.2176   0.0473   0.1887     H
C       0.2278   0.4157   0.1491     C
C       0.2312   0.4132   0.3381     C
C       0.2321   0.5306   0.3495     C
C       0.2511   0.8054   0.5271     C
C       0.2534   0.0059   0.2082     C
H       0.2602   0.2288   0.8368     H
C       0.2605   0.0245   0.2749     C
C       0.2681    0.809   0.5993     C
C        0.272   0.1942   0.8675     C
C       0.2761   0.4308   0.0313     C
C       0.2805   0.3954   0.6005     C
C       0.2836   0.4439   0.5519     C
H       0.2898   0.9139   0.1235     H
H       0.2905   0.4345     0.99     H
H       0.2939   0.8363   0.9119     H
C       0.2954   0.8219   0.7311     C
C       0.2964   0.0934   0.9572     C
C       0.2984   0.9271   0.1694     C
O       0.3048   0.8385   0.7998     O
H       0.3103   0.0616   0.9892     H
O       0.3117   0.5877   0.3291     O
C       0.3124   0.5035   0.1445     C
C       0.3146   0.9664   0.3026     C
C       0.3169   0.2623   0.3085     C
C       0.3174   0.7756   0.8883     C
H       0.3192   0.9784   0.3482     H
C       0.3233    0.371   0.3184     C
C       0.3257   0.7573   0.8246     C
O       0.3383   0.8561   0.5086     O
N       0.3395   0.5123   0.0864     N
H       0.3402   0.7216   0.9654     H
C        0.343   0.7059   0.9201     C
C       0.3502   0.6635   0.7859     C
H       0.3506   0.6495   0.7405     H
H       0.3508   0.3856   0.6198     H
H        0.353     0.56   0.1842     H
C       0.3558   0.8671   0.1964     C
C       0.3646   0.8875   0.2643     C
C       0.3668   0.8797   0.6451     C
N       0.3716   0.2362   0.9141     N
H       0.3733   0.6119   0.5148     H
C       0.3734   0.6108   0.8839     C
C       0.3747   0.5892   0.8166     C
O       0.3757    0.751   0.0917     O
C       0.3804    0.885   0.7123     C
C       0.3809   0.1875   0.9582     C
H       0.3811   0.2348   0.2966     H
H        0.391   0.4156   0.3116     H
H       0.3917   0.5258   0.7914     H
C       0.3961   0.4742   0.5262     C
C       0.4036   0.7819   0.1552     C
H       0.4037    0.849   0.2847     H
O       0.4066   0.4432   0.8858     O
C       0.4102   0.5413     0.92     C
C       0.4235   0.5659   0.5086     C
H       0.4252   0.9245    0.632     H
O       0.4468   0.5856   0.9822     O
H       0.4484   0.2174   0.9926     H
H       0.4485   0.9322   0.7435     H
H       0.4598   0.3481   0.5314     H
O       0.4719   0.7379   0.1819     O
C       0.4751   0.4091   0.5184     C
Ni     0.48261  0.63682  0.08464    Ni
Ni     0.51739  0.36318  0.91536    Ni
C       0.5249   0.5909   0.4816     C
O       0.5281   0.2621   0.8181     O
H       0.5402   0.6519   0.4686     H
H       0.5515   0.0678   0.2565     H
H       0.5516   0.7826   0.0074     H
O       0.5532   0.4144   0.0178     O
H       0.5748   0.0755    0.368     H
C       0.5765   0.4341   0.4914     C
C       0.5898   0.4587     0.08     C
O       0.5934   0.5568   0.1142     O
H       0.5963    0.151   0.7153     H
C       0.5964   0.2181   0.8448     C
C       0.6039   0.5258   0.4738     C
H       0.6083   0.4742   0.2086     H
H        0.609   0.5844   0.6884     H
H       0.6189   0.7652   0.7034     H
C       0.6191   0.8125   0.0418     C
C       0.6196    0.115   0.2877     C
O       0.6243    0.249   0.9083     O
C       0.6253   0.4108   0.1834     C
C       0.6266   0.3892   0.1161     C
H       0.6267   0.3881   0.4852     H
N       0.6284   0.7638   0.0859     N
C       0.6332   0.1203   0.3549     C
C       0.6354   0.1125   0.7357     C
C       0.6442   0.1329   0.8036     C
H        0.647     0.44   0.8158     H
H       0.6492   0.6144   0.3802     H
H       0.6494   0.3505   0.2595     H
C       0.6498   0.3365   0.2141     C
C        0.657   0.2941   0.0799     C
H       0.6598   0.2784   0.0346     H
N       0.6605   0.4877   0.9136     N
O       0.6617   0.1439   0.4914     O
C       0.6743   0.2427   0.1754     C
C       0.6767    0.629   0.6816     C
H       0.6808   0.0216   0.6518     H
C       0.6826   0.2244   0.1117     C
C       0.6831   0.7377   0.6915     C
C       0.6854   0.0336   0.6974     C
C       0.6876   0.4965   0.8555     C
O       0.6883   0.4123   0.6709     O
H       0.6897   0.9384   0.0108     H
O       0.6952   0.1615   0.2002     O
C       0.7016   0.0729   0.8306     C
C       0.7036   0.9066   0.0428     C
C       0.7046   0.1781   0.2689     C
H       0.7061   0.1637   0.0881     H
H       0.7095   0.5655     0.01     H
H       0.7102   0.0861   0.8765     H
C       0.7164   0.5561   0.4481     C
C       0.7195   0.6046   0.3995     C
C       0.7239   0.5692   0.9687     C
C        0.728   0.8058   0.1325     C
C       0.7319    0.191   0.4007     C
C       0.7395   0.9755   0.7251     C
H       0.7398   0.7712   0.1632     H
C       0.7466   0.9941   0.7918     C
C       0.7489   0.1946   0.4729     C
C       0.7679   0.4694   0.6505     C
C       0.7688   0.5868   0.6619     C
C       0.7722   0.5843   0.8509     C
H       0.7824   0.9527   0.8113     H
H       0.7853   0.5867   0.8091     H
C       0.7862   0.8052   0.6836     C
O       0.8027   0.9106   0.6869     O
C       0.8036   0.9498   0.0899     C
C       0.8051   0.2487   0.3128     C
C       0.8099   0.6594   0.9686     C
C       0.8153   0.2528   0.3798     C
C       0.8167   0.9003   0.1378     C
C       0.8202   0.5358    0.469     C
H       0.8216   0.4981   0.4988     H
H       0.8259   0.6732   0.3481     H
C        0.826   0.6383   0.3794     C
C       0.8375   0.6691   0.9098     C
O       0.8479   0.4379   0.6221     O
O       0.8483   0.2486   0.5089     O
H       0.8496   0.7143   0.0092     H
H       0.8518   0.0303   0.9947     H
H       0.8556   0.3432   0.9307     H
H       0.8641   0.4021   0.0442     H
H       0.8643   0.2921   0.2992     H
C       0.8709    0.655   0.6554     C
C       0.8784   0.7617   0.6642     C
H        0.883   0.3007    0.411     H
H       0.8832   0.7459   0.8104     H
H       0.8833   0.9294   0.1728     H
C       0.8969   0.0492   0.0905     C
H       0.9028   0.2084   0.7242     H
Ni     0.90426  0.30028  0.61212    Ni
C       0.9047   0.0748   0.0347     C
C       0.9145   0.4059   0.9584     C
C       0.9187   0.4426   0.0265     C
C       0.9232     0.57   0.4469     C
H       0.9257   0.2624   0.8372     H
N       0.9292   0.6228   0.4033     N
C       0.9295   0.7644   0.9075     C
C       0.9331   0.2826   0.7492     C
H       0.9359   0.6279   0.6448     H
H       0.9365   0.4297   0.1531     H
C       0.9365   0.7905   0.8502     C
H       0.9464   0.8054   0.6569     H
C       0.9474   0.3148   0.8174     C
N       0.9605   0.3523   0.7164     N
H       0.9624   0.4916   0.2663     H
C       0.9713   0.5038    0.177     C
H       0.9758   0.1028   0.1882     H
C       0.9786   0.1184   0.1488     C
C       0.9877   0.5412   0.2451     C
C       0.9891    0.165   0.0358     C
H       0.9916   0.1794   0.9961     H
H       0.9929   0.5556   0.4633     H
C       0.9935   0.4236    0.858     C
C       0.9988   0.4627   0.9305     C
