data_I
_chemical_name_common  '/home/zhangsd/repos/MofS-CGCNN/ML/data/SSD/clean_cifs/QOBWIN_clean'
_cell_length_a  9.29940
_cell_length_b  9.75100
_cell_length_c 14.33480
_cell_angle_alpha 90.00000
_cell_angle_beta  90.97400
_cell_angle_gamma 90.00000
_space_group_name_H-M_alt      'P 1'


loop_
_space_group_symop_operation_xyz
  'x, y, z' 

loop_
_atom_site_label
_atom_site_fract_x
_atom_site_fract_y
_atom_site_fract_z
_atom_site_type_symbol
O       0.0377   0.4074   0.1467     O
P       0.0444   0.9289   0.7622     P
O       0.0582   0.4608   0.3193     O
Zn      0.0706   0.6135   0.7544    Zn
Zn       0.077   0.2396    0.773    Zn
O        0.101   0.5443     0.63     O
O       0.1178   0.3135   0.8957     O
O       0.1196   0.0699    0.203     O
O       0.1369   0.8025   0.7421     O
O       0.1471   0.0511    0.775     O
O       0.1687   0.2987   0.6637     O
O       0.1834   0.3883   0.5045     O
O        0.194    0.554   0.8575     O
P       0.2046   0.4262   0.6065     P
Zn      0.2284   0.3769   0.3755    Zn
O       0.2416   0.1857   0.3378     O
Zn      0.2437    0.404     0.13    Zn
P       0.2438   0.4165   0.9014     P
P       0.2646    0.122   0.2423     P
O       0.2863   0.4401   0.0026     O
O       0.3238   0.2292    0.174     O
O       0.3242   0.5618   0.1994     O
O       0.3611   0.4699   0.6291     O
O       0.3645   0.0012   0.2483     O
O       0.3718   0.3606   0.8494     O
O       0.4123   0.4629   0.3518     O
O        0.418   0.0024   0.7781     O
H       0.4364   0.9232   0.7981     H
P       0.4444   0.5628   0.2725     P
Zn      0.4677   0.3853   0.7327    Zn
O       0.4755   0.7045   0.3087     O
O       0.5245   0.2045   0.6913     O
Zn      0.5323   0.8853   0.2673    Zn
P       0.5556   0.0628   0.7275     P
H       0.5636   0.4232   0.2019     H
O        0.582   0.5024   0.2219     O
O       0.5877   0.9629   0.6482     O
O       0.6282   0.8606   0.1506     O
O       0.6355   0.5012   0.7517     O
O       0.6389   0.9699   0.3709     O
O       0.6758   0.0618   0.8006     O
O       0.6762   0.7292    0.826     O
O       0.7137   0.9401   0.9974     O
P       0.7354    0.622   0.7577     P
P       0.7562   0.9165   0.0986     P
Zn      0.7563    0.904     0.87    Zn
O       0.7584   0.6857   0.6622     O
Zn      0.7716   0.8769   0.6245    Zn
P       0.7954   0.9262   0.3935     P
O        0.806    0.054   0.1425     O
O       0.8166   0.8883   0.4955     O
O       0.8313   0.7987   0.3363     O
O       0.8529   0.5511    0.225     O
O       0.8631   0.3025   0.2579     O
O       0.8804   0.5699    0.797     O
O       0.8822   0.8135   0.1043     O
O        0.899   0.0443     0.37     O
Zn       0.923   0.7396    0.227    Zn
Zn      0.9294   0.1135   0.2456    Zn
O       0.9418   0.9608   0.6807     O
P       0.9556   0.4289   0.2378     P
O       0.9623   0.9074   0.8533     O
