data_I
_chemical_name_common  '/home/zhangsd/repos/MofS-CGCNN/ML/data/SSD/clean_cifs/QOFKUT_clean'
_cell_length_a 14.33190
_cell_length_b 14.33190
_cell_length_c 14.33190
_cell_angle_alpha 108.95400
_cell_angle_beta  108.95400
_cell_angle_gamma 110.51000
_space_group_name_H-M_alt      'P 1'


loop_
_space_group_symop_operation_xyz
  'x, y, z' 

loop_
_atom_site_label
_atom_site_fract_x
_atom_site_fract_y
_atom_site_fract_z
_atom_site_type_symbol
O      0.00941  0.26138  0.54717     O
C       0.0163   0.7731   0.0634     C
H       0.0247   0.1006   0.9003     H
C         0.03   0.8831   0.0901     C
N       0.0331   0.4066   0.9765     N
O      0.03776  0.49059  0.75197     O
Cu     0.04851   0.5648  0.41197    Cu
C       0.0636   0.3283   0.9515     C
Cu      0.0648  0.15283  0.51629    Cu
N       0.0673    0.638   0.0223     N
N       0.0699   0.9434   0.4765     N
C       0.0789   0.7751   0.4432     C
N       0.0934   0.5699   0.6265     N
C       0.0995   0.7491   0.0478     C
N       0.1157    0.045   0.4777     N
C       0.1232   0.8879   0.4515     C
C        0.125   0.9643   0.1015     C
O      0.12962  0.72067  0.42867     O
H       0.1352   0.0368   0.1186     H
C       0.1357   0.5789   0.8038     C
Cu     0.13654  0.54851  0.98371    Cu
N        0.138   0.6157   0.5707     N
C       0.1681   0.3643   0.9432     C
C       0.1717   0.6232   0.7353     C
C       0.1981   0.8343    0.061     C
O      0.20095  0.62962  0.90895     O
C       0.2013   0.0517   0.4522     C
O        0.208  0.29905  0.92867     O
C       0.2088   0.9391   0.0873     C
C       0.2097   0.9529   0.4366     C
O      0.21421  0.46224  0.95283     O
O      0.22067    0.292  0.59105     O
O      0.23862  0.28579  0.74803     O
C       0.2491   0.7013   0.6496     C
H       0.2538   0.8194    0.052     H
H       0.2674   0.2018    0.448     H
C       0.2731   0.7097   0.7568     C
C       0.2733   0.1371    0.439     C
H       0.2733   0.9963   0.0964     H
C       0.2751   0.3319   0.6962     C
C        0.293   0.9399   0.4099     C
H       0.2982   0.2462   0.0656     H
H       0.2997   0.8756   0.4003     H
H       0.3194   0.7674   0.5656     H
H       0.3231   0.2267    0.223     H
C       0.3343   0.7733   0.6362     C
Cu     0.34717  0.36346  0.91197    Cu
C       0.3518   0.1215   0.4127     C
C       0.3628   0.0235   0.3985     C
C       0.3629   0.3019   0.1362     C
H       0.3756   0.4753   0.5759     H
C       0.3785   0.2912   0.2303     C
C       0.3831    0.793   0.8531     C
C       0.3879   0.4364   0.7647     C
H       0.3994   0.7997   0.9241     H
H       0.3999   0.1769   0.4036     H
H       0.4182   0.0166   0.3814     H
C       0.4391   0.8518   0.7303     C
C       0.4399     0.53   0.6469     C
N       0.4434   0.4669   0.8735     N
C       0.4483   0.4005   0.1496     C
C       0.4529   0.5163   0.7432     C
N        0.455   0.4327   0.0707     N
H       0.4632   0.0818   0.0984     H
C       0.4643   0.8628   0.8393     C
C       0.4765    0.375   0.3393     C
H       0.4834   0.3648   0.4016     H
H       0.4963   0.8999    0.723     H
H       0.5037   0.1001    0.277     H
H       0.5166   0.6352   0.5984     H
C       0.5235    0.625   0.6607     C
C       0.5357   0.1372   0.1607     C
H       0.5368   0.9182   0.9016     H
N        0.545   0.5673   0.9293     N
C       0.5471   0.4837   0.2568     C
C       0.5517   0.5995   0.8504     C
N       0.5566   0.5331   0.1265     N
C       0.5601     0.47   0.3531     C
C       0.5609   0.1482   0.2697     C
H       0.5818   0.9834   0.6186     H
H       0.6001   0.8231   0.5964     H
H       0.6006   0.2003   0.0759     H
C       0.6121   0.5636   0.2353     C
C       0.6169    0.207   0.1469     C
C       0.6215   0.7088   0.7697     C
H       0.6244   0.5247   0.4241     H
C       0.6371   0.6981   0.8638     C
C       0.6372   0.9765   0.6015     C
C       0.6482   0.8785   0.5873     C
Cu     0.65283  0.63654  0.08803    Cu
C       0.6657   0.2267   0.3638     C
H       0.6769   0.7733    0.777     H
H       0.6806   0.2326   0.4344     H
H       0.7003   0.1244   0.5997     H
H       0.7018   0.7538   0.9344     H
C        0.707   0.0601   0.5901     C
C       0.7249   0.6681   0.3038     C
H       0.7267   0.0037   0.9036     H
C       0.7267   0.8629    0.561     C
C       0.7269   0.2903   0.2432     C
H       0.7326   0.7982    0.552     H
H       0.7462   0.1806    0.948     H
C       0.7509   0.2987   0.3504     C
O      0.76138  0.71421  0.25197     O
O      0.77933    0.708  0.40895     O
O      0.78579  0.53776  0.04717     O
C       0.7903   0.0471   0.5634     C
C       0.7912   0.0609   0.9127     C
O        0.792  0.70095  0.07133     O
C       0.7987   0.9483   0.5478     C
O      0.79905  0.37038  0.09105     O
C       0.8019   0.1657    0.939     C
C       0.8283   0.3768   0.2647     C
C       0.8319   0.6357   0.0568     C
N        0.862   0.3843   0.4293     N
Cu     0.86346  0.45149  0.01629    Cu
C       0.8643   0.4211   0.1962     C
H       0.8648   0.9632   0.8814     H
O      0.87038  0.27933  0.57133     O
C        0.875   0.0357   0.8985     C
C       0.8768   0.1121   0.5485     C
N       0.8843    0.955   0.5223     N
C       0.9005   0.2509   0.9522     C
N       0.9066   0.4301   0.3735     N
C       0.9211   0.2249   0.5568     C
N       0.9301   0.0566   0.5235     N
N       0.9327    0.362   0.9777     N
Cu      0.9352  0.84717  0.48371    Cu
C       0.9364   0.6717   0.0485     C
Cu     0.95149   0.4352  0.58803    Cu
O      0.96224  0.50941  0.24803     O
N       0.9669   0.5934   0.0235     N
C         0.97   0.1169   0.9099     C
H       0.9753   0.8994   0.0997     H
C       0.9837   0.2269   0.9366     C
O      0.99059  0.73862  0.45283     O
