data_I
_chemical_name_common  '/home/zhangsd/repos/MofS-CGCNN/ML/data/SSD/clean_cifs/QOKCID_clean'
_cell_length_a  7.62380
_cell_length_b 12.34160
_cell_length_c 12.34160
_cell_angle_alpha 96.33890
_cell_angle_beta  94.16000
_cell_angle_gamma 85.84000
_space_group_name_H-M_alt      'P 1'


loop_
_space_group_symop_operation_xyz
  'x, y, z' 

loop_
_atom_site_label
_atom_site_fract_x
_atom_site_fract_y
_atom_site_fract_z
_atom_site_type_symbol
H       0.0127   0.9955   0.8791     H
H        0.016   0.1404   0.3642     H
O       0.0198   0.6123  0.26128     O
C       0.0368    0.278    0.994     C
C        0.049   0.1553   0.2931     C
C       0.0539    0.541    0.862     C
Zn     0.06318  0.76522  0.29722    Zn
H       0.0665   0.2168   0.9462     H
H       0.0862   0.2294    0.299     H
O       0.0903  0.10894  0.65866     O
C       0.1037   0.4412    0.785     C
C       0.1055   0.8586   0.7912     C
C       0.1074   0.9437   0.8747     C
C       0.1145   0.4083   0.1491     C
C       0.1292   0.6677   0.0157     C
C       0.1581   0.3175   0.0773     C
C       0.1768   0.5773   0.9419     C
O       0.1868  0.07972  0.25644     O
H       0.1961   0.4349   0.2035     H
H       0.2108   0.9471   0.5429     H
O       0.2128  0.78188  0.17824     O
O       0.2363   0.7738    0.421     O
C       0.2435   0.1069   0.7063     C
H         0.25   0.0088   0.0088     H
H         0.25   0.7267   0.7267     H
C         0.25   0.7832   0.7832     C
C         0.25   0.9523   0.9523     C
C       0.2565   0.7063   0.1069     C
O       0.2637    0.421   0.7738     O
O       0.2872  0.17824  0.78188     O
H       0.2892   0.5429   0.9471     H
H       0.3039   0.2035   0.4349     H
O       0.3132  0.25644  0.07972     O
C       0.3232   0.9419   0.5773     C
C       0.3419   0.0773   0.3175     C
C       0.3708   0.0157   0.6677     C
C       0.3855   0.1491   0.4083     C
C       0.3926   0.8747   0.9437     C
C       0.3945   0.7912   0.8586     C
C       0.3963    0.785   0.4412     C
O       0.4097  0.65866  0.10894     O
H       0.4138    0.299   0.2294     H
H       0.4335   0.9462   0.2168     H
Zn     0.43682  0.29722  0.76522    Zn
C       0.4461    0.862    0.541     C
C        0.451   0.2931   0.1553     C
C       0.4632    0.994    0.278     C
O       0.4802  0.26128   0.6123     O
H        0.484   0.3642   0.1404     H
H       0.4873   0.8791   0.9955     H
H       0.5127   0.1209   0.0045     H
H        0.516   0.6358   0.8596     H
O       0.5198  0.73872   0.3877     O
C       0.5368    0.006    0.722     C
C        0.549   0.7069   0.8447     C
C       0.5539    0.138    0.459     C
Zn     0.56318  0.70278  0.23478    Zn
H       0.5665   0.0538   0.7832     H
H       0.5862    0.701   0.7706     H
O       0.5903  0.34134  0.89106     O
C       0.6037    0.215   0.5588     C
C       0.6055   0.2088   0.1414     C
C       0.6074   0.1253   0.0563     C
C       0.6145   0.8509   0.5917     C
C       0.6292   0.9843   0.3323     C
C       0.6581   0.9227   0.6825     C
C       0.6768   0.0581   0.4227     C
O       0.6868  0.74356  0.92028     O
H       0.6961   0.7965   0.5651     H
H       0.7108   0.4571   0.0529     H
O       0.7128  0.82176  0.21812     O
O       0.7363    0.579   0.2262     O
C       0.7435   0.2937   0.8931     C
C         0.75   0.0477   0.0477     C
C         0.75   0.2168   0.2168     C
H         0.75   0.2733   0.2733     H
H         0.75   0.9912   0.9912     H
C       0.7565   0.8931   0.2937     C
O       0.7637   0.2262    0.579     O
O       0.7872  0.21812  0.82176     O
H       0.7892   0.0529   0.4571     H
H       0.8039   0.5651   0.7965     H
O       0.8132  0.92028  0.74356     O
C       0.8232   0.4227   0.0581     C
C       0.8419   0.6825   0.9227     C
C       0.8708   0.3323   0.9843     C
C       0.8855   0.5917   0.8509     C
C       0.8926   0.0563   0.1253     C
C       0.8945   0.1414   0.2088     C
C       0.8963   0.5588    0.215     C
O       0.9097  0.89106  0.34134     O
H       0.9138   0.7706    0.701     H
H       0.9335   0.7832   0.0538     H
Zn     0.93682  0.23478  0.70278    Zn
C       0.9461    0.459    0.138     C
C        0.951   0.8447   0.7069     C
C       0.9632    0.722    0.006     C
O       0.9802   0.3877  0.73872     O
H        0.984   0.8596   0.6358     H
H       0.9873   0.0045   0.1209     H
