data_I
_chemical_name_common  '/home/zhangsd/repos/MofS-CGCNN/ML/data/SSD/clean_cifs/QUBWIU_clean'
_cell_length_a 17.04100
_cell_length_b 17.04100
_cell_length_c 25.37100
_cell_angle_alpha 90.00000
_cell_angle_beta  90.00000
_cell_angle_gamma 90.00000
_space_group_name_H-M_alt      'P 1'


loop_
_space_group_symop_operation_xyz
  'x, y, z' 

loop_
_atom_site_label
_atom_site_fract_x
_atom_site_fract_y
_atom_site_fract_z
_atom_site_type_symbol
Na         0.0      0.0      0.0    Na
O       0.0007    0.855   0.9989     O
C       0.0011   0.7348   0.9517     C
H       0.0017   0.7352   0.9135     H
O       0.0035   0.3849   0.6726     O
H       0.0143   0.3383   0.7903     H
C       0.0231   0.6212    0.719     C
O       0.0237   0.3226   0.1972     O
O       0.0252   0.7236   0.2711     O
C       0.0287   0.3067   0.2458     C
H       0.0332    0.691   0.9631     H
C       0.0334   0.3754   0.7643     C
H       0.0336   0.3734   0.0063     H
H       0.0364   0.4266   0.7808     H
C        0.039   0.8088   0.9706     C
H       0.0734   0.4636   0.2808     H
N       0.0793   0.2795   0.9689     N
H       0.0811   0.2382   0.7382     H
C       0.0839   0.3466    0.006     C
O       0.0937   0.6198   0.7305     O
H       0.0941   0.3411   0.3098     H
H       0.1026   0.3092   0.8929     H
C       0.1043   0.3242   0.0608     C
C       0.1051   0.3241   0.2741     C
O       0.1069    0.821   0.9536     O
O       0.1079   0.3796   0.0938     O
N       0.1143   0.3509   0.7462     N
O       0.1151   0.4965   0.1726     O
O       0.1152   0.2525   0.0722     O
H       0.1166   0.3771   0.4931     H
Sm     0.11819  0.72447  0.19192    Sm
O       0.1198   0.5937   0.2305     O
Cu     0.11999  0.18517  0.00864    Cu
O       0.1204   0.3921   0.5938     O
C       0.1212   0.5231    0.219     C
Cu      0.1215  0.37104  0.66824    Cu
H       0.1229   0.3834   0.9931     H
C       0.1246   0.4666   0.2643     C
H       0.1266   0.4664   0.5063     H
C       0.1277   0.2661   0.7496     C
Cu     0.12896   0.3785  0.16824    Cu
C       0.1318   0.2869   0.9221     C
H       0.1365   0.2768   0.2759     H
H       0.1384   0.2516   0.7859     H
O        0.145   0.0007   0.0011     O
N       0.1491   0.3857   0.2462     N
C       0.1534   0.4161    0.506     C
O       0.1541   0.8408   0.0605     O
H       0.1589   0.4059   0.8098     H
O       0.1592   0.1541   0.9395     O
H       0.1617   0.4857   0.2903     H
C        0.164   0.2097   0.9064     C
H       0.1747   0.3223   0.9304     H
C       0.1758   0.3957   0.5608     C
C       0.1759   0.3949   0.7741     C
O       0.1774   0.4763   0.6972     O
H       0.1777   0.3253   0.4304     H
O        0.179   0.1069   0.0464     O
Cu     0.18517  0.88001  0.99136    Cu
O       0.1888   0.7611   0.2716     O
H       0.1908   0.3974   0.3929     H
H        0.191   0.5332   0.4631     H
C       0.1912    0.039   0.0294     C
C       0.1933   0.4713   0.7458     C
Na      0.1943   0.7664  0.88611    Na
C        0.195   0.2437   0.7159     C
O       0.1965   0.2042   0.8626     O
O       0.2024   0.2841   0.6731     O
O       0.2042   0.8035   0.1374     O
C       0.2097    0.836   0.0936     C
C       0.2131   0.3682   0.4221     C
O       0.2159   0.2976   0.1731     O
N       0.2205   0.4207   0.4689     N
H       0.2232   0.3635   0.7759     H
O       0.2236   0.5252   0.7711     O
Sm     0.22447  0.61819  0.69192    Sm
Na      0.2336   0.1943  0.11389    Na
C       0.2339   0.3723   0.2496     C
C       0.2348   0.5011   0.4517     C
H       0.2352   0.5017   0.4135     H
H       0.2382   0.9189   0.2618     H
O       0.2389   0.1888   0.7284     O
C       0.2437    0.805   0.2841     C
O       0.2475   0.3848   0.5722     O
H       0.2484   0.3616   0.2859     H
H       0.2516   0.8616   0.2141     H
O       0.2525   0.8848   0.9278     O
C       0.2563    0.305   0.2159     C
O       0.2611   0.6888   0.7716     O
H       0.2618   0.4189   0.2382     H
H       0.2648   0.0017   0.0865     H
C       0.2652   0.0011   0.0483     C
C       0.2661   0.8723   0.2504     C
Na      0.2664   0.6943  0.38611    Na
Sm     0.27553  0.11819  0.80808    Sm
O       0.2764   0.0252   0.7289     O
H       0.2768   0.8635   0.7241     H
N       0.2795   0.9207   0.0311     N
O       0.2841   0.7976   0.3269     O
C       0.2869   0.8682   0.0779     C
C       0.2903    0.336   0.4064     C
O       0.2958   0.3035   0.3626     O
O       0.2976   0.7841   0.8269     O
O       0.3035   0.7042   0.6374     O
C        0.305   0.7437   0.7841     C
Na      0.3057   0.2664  0.61389    Na
C       0.3067   0.9713   0.7542     C
C       0.3088    0.539   0.4706     C
H        0.309   0.0332   0.0369     H
H       0.3092   0.8974   0.1071     H
O       0.3112   0.2611   0.2284     O
Cu     0.31483  0.38001  0.50864    Cu
O        0.321   0.6069   0.4536     O
H       0.3223   0.8253   0.0696     H
O       0.3226   0.9763   0.8028     O
C       0.3241   0.8949   0.7259     C
C       0.3242   0.8957   0.9392     C
H       0.3253   0.8223   0.5696     H
C        0.336   0.7097   0.5936     C
H       0.3383   0.9857   0.2097     H
O       0.3408   0.6541   0.5605     O
H       0.3411   0.9059   0.6902     H
O       0.3459   0.3408   0.4395     O
C       0.3466   0.9161    0.994     C
N       0.3509   0.8857   0.2538     N
O        0.355   0.5007   0.4989     O
H       0.3616   0.7516   0.7141     H
H       0.3635   0.7768   0.2241     H
C       0.3682   0.7869   0.5779     C
Cu     0.37104   0.8785  0.33176    Cu
C       0.3723   0.7661   0.7504     C
H       0.3734   0.9664   0.9937     H
C       0.3754   0.9666   0.2357     C
H       0.3771   0.8834   0.5069     H
Cu      0.3785  0.87104  0.83176    Cu
C       0.3788   0.0231    0.281     C
O       0.3796   0.8921   0.9062     O
Cu     0.38001  0.68517  0.49136    Cu
O       0.3802   0.0937   0.2695     O
Sm     0.38181  0.22447  0.30808    Sm
H       0.3834   0.8771   0.0069     H
O       0.3848   0.7525   0.4278     O
O       0.3849   0.9965   0.3274     O
N       0.3857   0.8509   0.7538     N
O       0.3921   0.8796   0.4062     O
O       0.3931    0.321   0.5464     O
C       0.3949   0.8241   0.2259     C
C       0.3957   0.8242   0.4392     C
H       0.3974   0.8092   0.6071     H
H       0.4059   0.8411   0.1902     H
O       0.4063   0.1198   0.7695     O
C       0.4161   0.8466    0.494     C
H       0.4189   0.7382   0.7618     H
N       0.4207   0.7795   0.5311     N
H       0.4266   0.9636   0.2192     H
C        0.461   0.3088   0.5294     C
H       0.4636   0.9266   0.7192     H
H       0.4664   0.8734   0.4937     H
C       0.4666   0.8754   0.7357     C
H       0.4668    0.191   0.5369     H
C       0.4713   0.8067   0.2542     C
O       0.4748   0.2236   0.2289     O
O       0.4763   0.8226   0.3028     O
C       0.4769   0.1212    0.781     C
H       0.4857   0.8383   0.7097     H
O       0.4965   0.8849   0.8274     O
H       0.4983   0.2352   0.5865     H
C       0.4989   0.2348   0.5483     C
O       0.4993    0.355   0.5011     O
Na         0.5      0.5      0.5    Na
O       0.5007    0.645   0.5011     O
C       0.5011   0.7652   0.5483     C
H       0.5017   0.7648   0.5865     H
O       0.5035   0.1151   0.8274     O
H       0.5143   0.1617   0.7097     H
C       0.5231   0.8788    0.781     C
O       0.5237   0.1774   0.3028     O
O       0.5252   0.7764   0.2289     O
C       0.5287   0.1933   0.2542     C
H       0.5332    0.809   0.5369     H
C       0.5334   0.1246   0.7357     C
H       0.5336   0.1266   0.4937     H
H       0.5364   0.0734   0.7192     H
C        0.539   0.6912   0.5294     C
H       0.5734   0.0364   0.2192     H
N       0.5793   0.2205   0.5311     N
H       0.5811   0.2618   0.7618     H
C       0.5839   0.1534    0.494     C
O       0.5937   0.8802   0.7695     O
H       0.5941   0.1589   0.1902     H
H       0.6026   0.1908   0.6071     H
C       0.6043   0.1758   0.4392     C
C       0.6051   0.1759   0.2259     C
O       0.6069    0.679   0.5464     O
O       0.6079   0.1204   0.4062     O
N       0.6143   0.1491   0.7538     N
O       0.6151   0.0035   0.3274     O
O       0.6152   0.2475   0.4278     O
H       0.6166   0.1229   0.0069     H
Sm     0.61819  0.77553  0.30808    Sm
O       0.6198   0.9063   0.2695     O
Cu     0.61999  0.31483  0.49136    Cu
O       0.6204   0.1079   0.9062     O
C       0.6212   0.9769    0.281     C
Cu      0.6215  0.12896  0.83176    Cu
H       0.6229   0.1166   0.5069     H
C       0.6246   0.0334   0.2357     C
H       0.6266   0.0336   0.9937     H
C       0.6277   0.2339   0.7504     C
Cu     0.62896   0.1215  0.33176    Cu
C       0.6318   0.2131   0.5779     C
H       0.6365   0.2232   0.2241     H
H       0.6384   0.2484   0.7141     H
O        0.645   0.4993   0.4989     O
N       0.6491   0.1143   0.2538     N
C       0.6534   0.0839    0.994     C
O       0.6541   0.6592   0.4395     O
H       0.6589   0.0941   0.6902     H
O       0.6592   0.3459   0.5605     O
H       0.6617   0.0143   0.2097     H
C        0.664   0.2903   0.5936     C
H       0.6747   0.1777   0.5696     H
C       0.6758   0.1043   0.9392     C
C       0.6759   0.1051   0.7259     C
O       0.6774   0.0237   0.8028     O
H       0.6777   0.1747   0.0696     H
O        0.679   0.3931   0.4536     O
Cu     0.68517  0.61999  0.50864    Cu
O       0.6888   0.7389   0.2284     O
H       0.6908   0.1026   0.1071     H
H        0.691   0.9668   0.0369     H
C       0.6912    0.461   0.4706     C
C       0.6933   0.0287   0.7542     C
Na      0.6943   0.7336  0.61389    Na
C        0.695   0.2563   0.7841     C
O       0.6965   0.2958   0.6374     O
O       0.7024   0.2159   0.8269     O
O       0.7042   0.6965   0.3626     O
C       0.7097    0.664   0.4064     C
C       0.7131   0.1318   0.0779     C
O       0.7159   0.2024   0.3269     O
N       0.7205   0.0793   0.0311     N
H       0.7232   0.1365   0.7241     H
O       0.7236   0.9748   0.7289     O
Sm     0.72447  0.88181  0.80808    Sm
Na      0.7336   0.3057  0.38611    Na
C       0.7339   0.1277   0.2504     C
C       0.7348   0.9989   0.0483     C
H       0.7352   0.9983   0.0865     H
H       0.7382   0.5811   0.2382     H
O       0.7389   0.3112   0.7716     O
C       0.7437    0.695   0.2159     C
O       0.7475   0.1152   0.9278     O
H       0.7484   0.1384   0.2141     H
H       0.7516   0.6384   0.2859     H
O       0.7525   0.6152   0.5722     O
C       0.7563    0.195   0.2841     C
O       0.7611   0.8112   0.7284     O
H       0.7618   0.0811   0.2618     H
H       0.7648   0.4983   0.4135     H
C       0.7652   0.4989   0.4517     C
C       0.7661   0.6277   0.2496     C
Na      0.7664   0.8057  0.11389    Na
Sm     0.77553  0.38181  0.69192    Sm
O       0.7764   0.4748   0.7711     O
H       0.7768   0.6365   0.7759     H
N       0.7795   0.5793   0.4689     N
O       0.7841   0.7024   0.1731     O
C       0.7869   0.6318   0.4221     C
C       0.7903    0.164   0.0936     C
O       0.7958   0.1965   0.1374     O
O       0.7976   0.7159   0.6731     O
O       0.8035   0.7958   0.8626     O
C        0.805   0.7563   0.7159     C
Na      0.8057   0.2336  0.88611    Na
C       0.8067   0.5287   0.7458     C
C       0.8088    0.961   0.0294     C
H        0.809   0.4668   0.4631     H
H       0.8092   0.6026   0.3929     H
O       0.8112   0.2389   0.2716     O
Cu     0.81483  0.11999  0.99136    Cu
O        0.821   0.8931   0.0464     O
H       0.8223   0.6747   0.4304     H
O       0.8226   0.5237   0.6972     O
C       0.8241   0.6051   0.7741     C
C       0.8242   0.6043   0.5608     C
H       0.8253   0.6777   0.9304     H
C        0.836   0.7903   0.9064     C
H       0.8383   0.5143   0.2903     H
O       0.8408   0.8459   0.9395     O
H       0.8411   0.5941   0.8098     H
O       0.8459   0.1592   0.0605     O
C       0.8466   0.5839    0.506     C
N       0.8509   0.6143   0.2462     N
O        0.855   0.9993   0.0011     O
H       0.8616   0.7484   0.7859     H
H       0.8635   0.7232   0.2759     H
C       0.8682   0.7131   0.9221     C
Cu     0.87104   0.6215  0.16824    Cu
C       0.8723   0.7339   0.7496     C
H       0.8734   0.5336   0.5063     H
C       0.8754   0.5334   0.2643     C
H       0.8771   0.6166   0.9931     H
Cu      0.8785  0.62896  0.66824    Cu
C       0.8788   0.4769    0.219     C
O       0.8796   0.6079   0.5938     O
Cu     0.88001  0.81483  0.00864    Cu
O       0.8802   0.4063   0.2305     O
Sm     0.88181  0.27553  0.19192    Sm
H       0.8834   0.6229   0.4931     H
O       0.8848   0.7475   0.0722     O
O       0.8849   0.5035   0.1726     O
N       0.8857   0.6491   0.7462     N
O       0.8921   0.6204   0.0938     O
O       0.8931    0.179   0.9536     O
C       0.8949   0.6759   0.2741     C
C       0.8957   0.6758   0.0608     C
H       0.8974   0.6908   0.8929     H
H       0.9059   0.6589   0.3098     H
O       0.9063   0.3802   0.7305     O
C       0.9161   0.6534    0.006     C
H       0.9189   0.7618   0.7382     H
N       0.9207   0.7205   0.9689     N
H       0.9266   0.5364   0.2808     H
C        0.961   0.1912   0.9706     C
H       0.9636   0.5734   0.7808     H
H       0.9664   0.6266   0.0063     H
C       0.9666   0.6246   0.7643     C
H       0.9668    0.309   0.9631     H
C       0.9713   0.6933   0.2458     C
O       0.9748   0.2764   0.2711     O
O       0.9763   0.6774   0.1972     O
C       0.9769   0.3788    0.719     C
H       0.9857   0.6617   0.7903     H
O       0.9965   0.6151   0.6726     O
H       0.9983   0.2648   0.9135     H
C       0.9989   0.2652   0.9517     C
O       0.9993    0.145   0.9989     O
