data_I
_chemical_name_common  '/home/zhangsd/repos/MofS-CGCNN/ML/data/SSD/clean_cifs/QUFFED_clean'
_cell_length_a 10.93570
_cell_length_b 10.93570
_cell_length_c 12.45490
_cell_angle_alpha 101.57200
_cell_angle_beta  101.57200
_cell_angle_gamma 99.22710
_space_group_name_H-M_alt      'P 1'


loop_
_space_group_symop_operation_xyz
  'x, y, z' 

loop_
_atom_site_label
_atom_site_fract_x
_atom_site_fract_y
_atom_site_fract_z
_atom_site_type_symbol
C       0.0063   0.3003   0.7695     C
H        0.017    0.733    0.162     H
H       0.0372   0.2448    0.088     H
H        0.053    0.237    0.726     H
H       0.0537   0.6403   0.4229     H
C       0.0605  0.68196   0.7323     C
H        0.067    0.391    0.799     H
C      0.07399  0.31081   0.2591     C
O      0.07761  0.64329  0.63435     O
C       0.0988   0.2672   0.1548     C
C       0.1125   0.6911   0.3077     C
N       0.1128   0.6588   0.4024     N
O      0.14576  0.71212  0.82153     O
H       0.1586   0.3758    0.422     H
C      0.17394  0.34786    0.355     C
H       0.2231   0.2389    0.577     H
C       0.2231   0.2617   0.1473     C
N       0.2303  0.66288  0.45867     N
C      0.23513  0.71751  0.29549     C
H        0.237    0.053    0.226     H
H       0.2389   0.2231    0.077     H
H       0.2448   0.0372    0.588     H
O      0.25025  0.47519   0.6383     O
H       0.2532   0.5148    0.118     H
H       0.2541   0.5179    0.006     H
C       0.2617   0.2231   0.6473     C
Zn     0.26396  0.65919   0.6237    Zn
H        0.267    0.983    0.338     H
C       0.2672   0.0988   0.6548     C
C      0.28249  0.76487  0.20451     C
O      0.28788  0.85424  0.67847     O
C      0.29158  0.45782   0.7355     C
C       0.2945   0.5485   0.0758     C
C      0.29797  0.34323   0.3465     C
C      0.29924  0.32296   0.7426     C
C       0.3003   0.0063   0.2695     C
C       0.3059   0.6889   0.1054     C
C       0.3089   0.8875   0.1923     C
C      0.31081  0.07399   0.7591     C
C       0.3111   0.6941   0.3946     C
C      0.31804   0.9395   0.7677     C
C      0.32296  0.29924   0.2426     C
O      0.32422  0.54234  0.82542     O
N      0.33712   0.7697  0.04133     N
Zn     0.34081  0.73604   0.8763    Zn
N       0.3412   0.8872   0.0976     N
C      0.34323  0.29797   0.8465     C
C      0.34786  0.17394    0.855     C
O      0.35671  0.92239  0.86565     O
H       0.3597   0.9463   0.0771     H
H       0.3653   0.3747    0.411     H
H       0.3693   0.5313    0.086     H
H       0.3747   0.3653    0.911     H
H       0.3758   0.1586    0.922     H
H        0.391    0.067    0.299     H
C       0.4515   0.7055   0.4242     C
O      0.45766  0.67578  0.67458     O
C      0.45782  0.29158   0.2355     C
H       0.4687   0.6307    0.414     H
O      0.47519  0.25025   0.1383     O
H       0.4821   0.7459    0.494     H
H       0.4852   0.7468    0.382     H
H       0.5148   0.2532    0.618     H
H       0.5179   0.2541    0.506     H
O      0.52481  0.74975   0.8617     O
H       0.5313   0.3693    0.586     H
C      0.54218  0.70842   0.7645     C
O      0.54234  0.32422  0.32542     O
C       0.5485   0.2945   0.5758     C
H        0.609    0.933    0.701     H
H       0.6242   0.8414    0.078     H
H       0.6253   0.6347    0.089     H
H       0.6307   0.4687    0.914     H
H       0.6347   0.6253    0.589     H
H       0.6403   0.0537   0.9229     H
O      0.64329  0.07761  0.13435     O
C      0.65214  0.82606    0.145     C
C      0.65677  0.70203   0.1535     C
N       0.6588   0.1128   0.9024     N
Zn     0.65919  0.26396   0.1237    Zn
N      0.66288   0.2303  0.95867     N
O      0.67578  0.45766  0.17458     O
C      0.67704  0.70076   0.7574     C
C      0.68196   0.0605   0.2323     C
C       0.6889   0.3059   0.6054     C
C      0.68919  0.92601   0.2409     C
C       0.6911   0.1125   0.8077     C
C       0.6941   0.3111   0.8946     C
C       0.6997   0.9937   0.7305     C
C      0.70076  0.67704   0.2574     C
C      0.70203  0.65677   0.6535     C
C       0.7055   0.4515   0.9242     C
C      0.70842  0.54218   0.2645     C
O      0.71212  0.14576  0.32153     O
C      0.71751  0.23513  0.79549     C
C       0.7328   0.9012   0.3452     C
H        0.733    0.017    0.662     H
Zn     0.73604  0.34081   0.3763    Zn
C       0.7383   0.7769   0.3527     C
H       0.7459   0.4821    0.994     H
H       0.7468   0.4852    0.882     H
O      0.74975  0.52481   0.3617     O
H       0.7552   0.9628    0.412     H
H       0.7611   0.7769    0.923     H
H        0.763    0.947    0.774     H
C      0.76487  0.28249  0.70451     C
N       0.7697  0.33712  0.54133     N
C       0.7769   0.7383   0.8527     C
H       0.7769   0.7611    0.423     H
C      0.82606  0.65214    0.645     C
H       0.8414   0.6242    0.578     H
O      0.85424  0.28788  0.17847     O
N       0.8872   0.3412   0.5976     N
C       0.8875   0.3089   0.6923     C
C       0.9012   0.7328   0.8452     C
O      0.92239  0.35671  0.36565     O
C      0.92601  0.68919   0.7409     C
H        0.933    0.609    0.201     H
C       0.9395  0.31804   0.2677     C
H       0.9463   0.3597   0.5771     H
H        0.947    0.763    0.274     H
H       0.9628   0.7552    0.912     H
H        0.983    0.267    0.838     H
C       0.9937   0.6997   0.2305     C
