data_I
_chemical_name_common  '/home/zhangsd/repos/MofS-CGCNN/ML/data/SSD/clean_cifs/QUFGIH_clean'
_cell_length_a  9.21870
_cell_length_b 14.86520
_cell_length_c 14.58110
_cell_angle_alpha 90.00000
_cell_angle_beta  90.00000
_cell_angle_gamma 90.00000
_space_group_name_H-M_alt      'P 1'


loop_
_space_group_symop_operation_xyz
  'x, y, z' 

loop_
_atom_site_label
_atom_site_fract_x
_atom_site_fract_y
_atom_site_fract_z
_atom_site_type_symbol
O       0.0134   0.1191   0.1526     O
O       0.0134   0.1191   0.3474     O
O       0.0134   0.3809   0.6526     O
O       0.0134   0.3809   0.8474     O
O       0.0275   0.6403   0.6628     O
O       0.0275   0.6403   0.8372     O
O       0.0275   0.8597   0.1628     O
O       0.0275   0.8597   0.3372     O
Al      0.1011   0.6353     0.25    Al
Al      0.1011   0.8647     0.75    Al
P        0.111   0.6653     0.75     P
P        0.111   0.8347     0.25     P
O       0.1269   0.1116   0.0026     O
O       0.1269   0.1116   0.4974     O
O       0.1269   0.3884   0.5026     O
O       0.1269   0.3884   0.9974     O
Al       0.148   0.1521   0.6145    Al
Al       0.148   0.1521   0.8855    Al
Al       0.148   0.3479   0.1145    Al
Al       0.148   0.3479   0.3855    Al
P       0.1548   0.1356   0.1041     P
P       0.1548   0.1356   0.3959     P
P       0.1548   0.3644   0.6041     P
P       0.1548   0.3644   0.8959     P
O       0.1856    0.743     0.25     O
O       0.1856    0.757     0.75     O
O       0.2102   0.2328   0.1187     O
O       0.2102   0.2328   0.3813     O
O       0.2102   0.2672   0.6187     O
O       0.2102   0.2672   0.8813     O
O       0.2428   0.6054     0.75     O
O       0.2428   0.8946     0.25     O
O       0.2437   0.5537     0.25     O
O       0.2437   0.9463     0.75     O
O       0.2674   0.0695   0.1364     O
O       0.2674   0.0695   0.3636     O
O       0.2674   0.4305   0.6364     O
O       0.2674   0.4305   0.8636     O
O        0.272   0.0737   0.6602     O
O        0.272   0.0737   0.8398     O
O        0.272   0.4263   0.1602     O
O        0.272   0.4263   0.3398     O
P       0.3149   0.0362     0.75     P
P       0.3149   0.4638     0.25     P
Al      0.3291    0.019     0.25    Al
Mg      0.3291    0.481     0.75    Mg
O       0.4685   0.0061     0.75     O
O       0.4685   0.4939     0.25     O
O       0.5315   0.5061     0.75     O
O       0.5315   0.9939     0.25     O
Mg      0.6709    0.519     0.25    Mg
Al      0.6709    0.981     0.75    Al
P       0.6851   0.5362     0.75     P
P       0.6851   0.9638     0.25     P
O        0.728   0.5737   0.6602     O
O        0.728   0.5737   0.8398     O
O        0.728   0.9263   0.1602     O
O        0.728   0.9263   0.3398     O
O       0.7326   0.5695   0.1364     O
O       0.7326   0.5695   0.3636     O
O       0.7326   0.9305   0.6364     O
O       0.7326   0.9305   0.8636     O
O       0.7563   0.0537     0.25     O
O       0.7563   0.4463     0.75     O
O       0.7572   0.1054     0.75     O
O       0.7572   0.3946     0.25     O
O       0.7898   0.7328   0.1187     O
O       0.7898   0.7328   0.3813     O
O       0.7898   0.7672   0.6187     O
O       0.7898   0.7672   0.8813     O
O       0.8144    0.243     0.25     O
O       0.8144    0.257     0.75     O
P       0.8452   0.6356   0.1041     P
P       0.8452   0.6356   0.3959     P
P       0.8452   0.8644   0.6041     P
P       0.8452   0.8644   0.8959     P
Al       0.852   0.6521   0.6145    Al
Al       0.852   0.6521   0.8855    Al
Al       0.852   0.8479   0.1145    Al
Al       0.852   0.8479   0.3855    Al
O       0.8731   0.6116   0.0026     O
O       0.8731   0.6116   0.4974     O
O       0.8731   0.8884   0.5026     O
O       0.8731   0.8884   0.9974     O
P        0.889   0.1653     0.75     P
P        0.889   0.3347     0.25     P
Al      0.8989   0.1353     0.25    Al
Al      0.8989   0.3647     0.75    Al
O       0.9725   0.1403   0.6628     O
O       0.9725   0.1403   0.8372     O
O       0.9725   0.3597   0.1628     O
O       0.9725   0.3597   0.3372     O
O       0.9866   0.6191   0.1526     O
O       0.9866   0.6191   0.3474     O
O       0.9866   0.8809   0.6526     O
O       0.9866   0.8809   0.8474     O
