data_I
_chemical_name_common  '/home/zhangsd/repos/MofS-CGCNN/ML/data/SSD/clean_cifs/QUFGED_clean'
_cell_length_a  9.27690
_cell_length_b 14.79840
_cell_length_c 14.61060
_cell_angle_alpha 90.00000
_cell_angle_beta  90.00000
_cell_angle_gamma 90.00000
_space_group_name_H-M_alt      'P 1'


loop_
_space_group_symop_operation_xyz
  'x, y, z' 

loop_
_atom_site_label
_atom_site_fract_x
_atom_site_fract_y
_atom_site_fract_z
_atom_site_type_symbol
O       0.0026   0.1206    0.149     O
O       0.0026   0.1206    0.351     O
O       0.0026   0.3794    0.649     O
O       0.0026   0.3794    0.851     O
O       0.0333   0.6408   0.6638     O
O       0.0333   0.6408   0.8362     O
O       0.0333   0.8592   0.1638     O
O       0.0333   0.8592   0.3362     O
Al      0.0985   0.6356     0.25    Al
Al      0.0985   0.8644     0.75    Al
P       0.1235    0.657     0.75     P
P       0.1235    0.843     0.25     P
O        0.127   0.1149   0.0007     O
O        0.127   0.1149   0.4993     O
O        0.127   0.3851   0.5007     O
O        0.127   0.3851   0.9993     O
Al      0.1426    0.153    0.615    Al
Al      0.1426    0.153    0.885    Al
Al      0.1426    0.347    0.115    Al
Al      0.1426    0.347    0.385    Al
P       0.1482  0.13343   0.1031     P
P       0.1482  0.13343   0.3969     P
P       0.1482  0.36657   0.6031     P
P       0.1482  0.36657   0.8969     P
O       0.1744   0.7444     0.25     O
O       0.1744   0.7556     0.75     O
O       0.1983   0.2308   0.1167     O
O       0.1983   0.2308   0.3833     O
O       0.1983   0.2692   0.6167     O
O       0.1983   0.2692   0.8833     O
O       0.2441   0.5616     0.25     O
O       0.2441   0.9384     0.75     O
O       0.2529   0.5982     0.75     O
O       0.2529   0.9018     0.25     O
O       0.2562   0.0668   0.1397     O
O       0.2562   0.0668   0.3603     O
O       0.2562   0.4332   0.6397     O
O       0.2562   0.4332   0.8603     O
O       0.2721   0.0783   0.6663     O
O       0.2721   0.0783   0.8337     O
O       0.2721   0.4217   0.1663     O
O       0.2721   0.4217   0.3337     O
P        0.318   0.0279     0.75     P
P        0.318   0.4721     0.25     P
Al      0.3323   0.0204     0.25    Al
Mg      0.3323   0.4796     0.75    Mg
O       0.4735   0.0138     0.75     O
O       0.4735   0.4862     0.25     O
O       0.5265   0.5138     0.75     O
O       0.5265   0.9862     0.25     O
Mg      0.6677   0.5204     0.25    Mg
Al      0.6677   0.9796     0.75    Al
P        0.682   0.5279     0.75     P
P        0.682   0.9721     0.25     P
O       0.7279   0.5783   0.6663     O
O       0.7279   0.5783   0.8337     O
O       0.7279   0.9217   0.1663     O
O       0.7279   0.9217   0.3337     O
O       0.7438   0.5668   0.1397     O
O       0.7438   0.5668   0.3603     O
O       0.7438   0.9332   0.6397     O
O       0.7438   0.9332   0.8603     O
O       0.7471   0.0982     0.75     O
O       0.7471   0.4018     0.25     O
O       0.7559   0.0616     0.25     O
O       0.7559   0.4384     0.75     O
O       0.8017   0.7308   0.1167     O
O       0.8017   0.7308   0.3833     O
O       0.8017   0.7692   0.6167     O
O       0.8017   0.7692   0.8833     O
O       0.8256   0.2444     0.25     O
O       0.8256   0.2556     0.75     O
P       0.8518  0.63343   0.1031     P
P       0.8518  0.63343   0.3969     P
P       0.8518  0.86657   0.6031     P
P       0.8518  0.86657   0.8969     P
Al      0.8574    0.653    0.615    Al
Al      0.8574    0.653    0.885    Al
Al      0.8574    0.847    0.115    Al
Al      0.8574    0.847    0.385    Al
O        0.873   0.6149   0.0007     O
O        0.873   0.6149   0.4993     O
O        0.873   0.8851   0.5007     O
O        0.873   0.8851   0.9993     O
P       0.8765    0.157     0.75     P
P       0.8765    0.343     0.25     P
Al      0.9015   0.1356     0.25    Al
Al      0.9015   0.3644     0.75    Al
O       0.9667   0.1408   0.6638     O
O       0.9667   0.1408   0.8362     O
O       0.9667   0.3592   0.1638     O
O       0.9667   0.3592   0.3362     O
O       0.9974   0.6206    0.149     O
O       0.9974   0.6206    0.351     O
O       0.9974   0.8794    0.649     O
O       0.9974   0.8794    0.851     O
