data_I
_chemical_name_common  '/home/zhangsd/repos/MofS-CGCNN/ML/data/SSD/clean_cifs/QUGZEZ_clean'
_cell_length_a 17.10650
_cell_length_b 17.10650
_cell_length_c 17.10650
_cell_angle_alpha 90.00000
_cell_angle_beta  90.00000
_cell_angle_gamma 90.00000
_space_group_name_H-M_alt      'P 1'


loop_
_space_group_symop_operation_xyz
  'x, y, z' 

loop_
_atom_site_label
_atom_site_fract_x
_atom_site_fract_y
_atom_site_fract_z
_atom_site_type_symbol
Mn         0.0      0.0      0.0    Mn
Mn         0.0      0.0      0.5    Mn
Mn         0.0      0.5      0.0    Mn
Mn         0.0      0.5      0.5    Mn
N       0.0108    0.133   0.2854     N
N       0.0108   0.2146    0.133     N
N       0.0108   0.2854    0.367     N
N       0.0108    0.367   0.2146     N
N       0.0209   0.5496   0.8789     N
N       0.0209   0.6211   0.5496     N
N       0.0209   0.8789   0.9504     N
N       0.0209   0.9504   0.6211     N
C       0.0328   0.0966   0.3505     C
C       0.0328   0.1495   0.0966     C
C       0.0328   0.3505   0.4034     C
C       0.0328   0.4034   0.1495     C
N       0.0496   0.1211   0.5209     N
N       0.0496   0.3789   0.9791     N
N       0.0496   0.5209   0.3789     N
N       0.0496   0.9791   0.1211     N
N       0.0539   0.1738   0.5793     N
N       0.0539   0.3262   0.9207     N
N       0.0539   0.5793   0.3262     N
N       0.0539   0.9207   0.1738     N
N        0.062   0.6044   0.7706     N
N        0.062   0.7294   0.6044     N
N        0.062   0.7706   0.8956     N
N        0.062   0.8956   0.7294     N
N       0.0793   0.5539   0.8262     N
N       0.0793   0.6738   0.5539     N
N       0.0793   0.8262   0.9461     N
N       0.0793   0.9461   0.6738     N
Gd     0.09161     0.25     0.25    Gd
C       0.0966   0.0328   0.1495     C
C       0.0966   0.1495   0.4672     C
C       0.0966   0.3505   0.0328     C
C       0.0966   0.4672   0.3505     C
N       0.1044   0.2294    0.562     N
N       0.1044   0.2706    0.938     N
N       0.1044    0.562   0.2706     N
N       0.1044    0.938   0.2294     N
C       0.1106   0.1106   0.1106     C
C       0.1106   0.1106   0.3894     C
C       0.1106   0.3894   0.1106     C
C       0.1106   0.3894   0.3894     C
N       0.1211   0.0496   0.9791     N
N       0.1211   0.4504   0.5209     N
N       0.1211   0.5209   0.0496     N
N       0.1211   0.9791   0.4504     N
N        0.133   0.0108   0.2146     N
N        0.133   0.2146   0.4892     N
N        0.133   0.2854   0.0108     N
N        0.133   0.4892   0.2854     N
C       0.1495   0.0328   0.4034     C
C       0.1495   0.0966   0.0328     C
C       0.1495   0.4034   0.4672     C
C       0.1495   0.4672   0.0966     C
O       0.1576   0.1576   0.1576     O
O       0.1576   0.1576   0.3424     O
O       0.1576   0.3424   0.1576     O
O       0.1576   0.3424   0.3424     O
N       0.1738   0.0539   0.9207     N
N       0.1738   0.4461   0.5793     N
N       0.1738   0.5793   0.0539     N
N       0.1738   0.9207   0.4461     N
N       0.2146   0.0108    0.367     N
N       0.2146    0.133   0.0108     N
N       0.2146    0.367   0.4892     N
N       0.2146   0.4892    0.133     N
N       0.2294   0.1044    0.938     N
N       0.2294   0.3956    0.562     N
N       0.2294    0.562   0.1044     N
N       0.2294    0.938   0.3956     N
Gd        0.25  0.09161     0.25    Gd
Gd        0.25     0.25  0.09161    Gd
Gd        0.25     0.25  0.40839    Gd
Gd        0.25  0.40839     0.25    Gd
N       0.2706   0.1044    0.562     N
N       0.2706   0.3956    0.938     N
N       0.2706    0.562   0.3956     N
N       0.2706    0.938   0.1044     N
N       0.2854   0.0108    0.133     N
N       0.2854    0.133   0.4892     N
N       0.2854    0.367   0.0108     N
N       0.2854   0.4892    0.367     N
N       0.3262   0.0539   0.5793     N
N       0.3262   0.4461   0.9207     N
N       0.3262   0.5793   0.4461     N
N       0.3262   0.9207   0.0539     N
O       0.3424   0.1576   0.1576     O
O       0.3424   0.1576   0.3424     O
O       0.3424   0.3424   0.1576     O
O       0.3424   0.3424   0.3424     O
C       0.3505   0.0328   0.0966     C
C       0.3505   0.0966   0.4672     C
C       0.3505   0.4034   0.0328     C
C       0.3505   0.4672   0.4034     C
N        0.367   0.0108   0.2854     N
N        0.367   0.2146   0.0108     N
N        0.367   0.2854   0.4892     N
N        0.367   0.4892   0.2146     N
N       0.3789   0.0496   0.5209     N
N       0.3789   0.4504   0.9791     N
N       0.3789   0.5209   0.4504     N
N       0.3789   0.9791   0.0496     N
C       0.3894   0.1106   0.1106     C
C       0.3894   0.1106   0.3894     C
C       0.3894   0.3894   0.1106     C
C       0.3894   0.3894   0.3894     C
N       0.3956   0.2294    0.938     N
N       0.3956   0.2706    0.562     N
N       0.3956    0.562   0.2294     N
N       0.3956    0.938   0.2706     N
C       0.4034   0.0328   0.3505     C
C       0.4034   0.1495   0.0328     C
C       0.4034   0.3505   0.4672     C
C       0.4034   0.4672   0.1495     C
Gd     0.40839     0.25     0.25    Gd
N       0.4207   0.5539   0.6738     N
N       0.4207   0.6738   0.9461     N
N       0.4207   0.8262   0.5539     N
N       0.4207   0.9461   0.8262     N
N        0.438   0.6044   0.7294     N
N        0.438   0.7294   0.8956     N
N        0.438   0.7706   0.6044     N
N        0.438   0.8956   0.7706     N
N       0.4461   0.1738   0.9207     N
N       0.4461   0.3262   0.5793     N
N       0.4461   0.5793   0.1738     N
N       0.4461   0.9207   0.3262     N
N       0.4504   0.1211   0.9791     N
N       0.4504   0.3789   0.5209     N
N       0.4504   0.5209   0.1211     N
N       0.4504   0.9791   0.3789     N
C       0.4672   0.0966   0.1495     C
C       0.4672   0.1495   0.4034     C
C       0.4672   0.3505   0.0966     C
C       0.4672   0.4034   0.3505     C
N       0.4791   0.5496   0.6211     N
N       0.4791   0.6211   0.9504     N
N       0.4791   0.8789   0.5496     N
N       0.4791   0.9504   0.8789     N
N       0.4892    0.133   0.2146     N
N       0.4892   0.2146    0.367     N
N       0.4892   0.2854    0.133     N
N       0.4892    0.367   0.2854     N
Mn         0.5      0.0      0.0    Mn
Mn         0.5      0.0      0.5    Mn
Mn         0.5      0.5      0.0    Mn
Mn         0.5      0.5      0.5    Mn
N       0.5108    0.633   0.7146     N
N       0.5108   0.7146    0.867     N
N       0.5108   0.7854    0.633     N
N       0.5108    0.867   0.7854     N
N       0.5209   0.0496   0.1211     N
N       0.5209   0.1211   0.4504     N
N       0.5209   0.3789   0.0496     N
N       0.5209   0.4504   0.3789     N
C       0.5328   0.5966   0.6495     C
C       0.5328   0.6495   0.9034     C
C       0.5328   0.8505   0.5966     C
C       0.5328   0.9034   0.8505     C
N       0.5496   0.0209   0.6211     N
N       0.5496   0.4791   0.8789     N
N       0.5496   0.6211   0.4791     N
N       0.5496   0.8789   0.0209     N
N       0.5539   0.0793   0.6738     N
N       0.5539   0.4207   0.8262     N
N       0.5539   0.6738   0.4207     N
N       0.5539   0.8262   0.0793     N
N        0.562   0.1044   0.2294     N
N        0.562   0.2294   0.3956     N
N        0.562   0.2706   0.1044     N
N        0.562   0.3956   0.2706     N
N       0.5793   0.0539   0.1738     N
N       0.5793   0.1738   0.4461     N
N       0.5793   0.3262   0.0539     N
N       0.5793   0.4461   0.3262     N
Gd     0.59161     0.75     0.75    Gd
C       0.5966   0.5328   0.8505     C
C       0.5966   0.6495   0.5328     C
C       0.5966   0.8505   0.9672     C
C       0.5966   0.9672   0.6495     C
N       0.6044    0.062   0.7294     N
N       0.6044    0.438   0.7706     N
N       0.6044   0.7294    0.438     N
N       0.6044   0.7706    0.062     N
C       0.6106   0.6106   0.6106     C
C       0.6106   0.6106   0.8894     C
C       0.6106   0.8894   0.6106     C
C       0.6106   0.8894   0.8894     C
N       0.6211   0.0209   0.9504     N
N       0.6211   0.4791   0.5496     N
N       0.6211   0.5496   0.0209     N
N       0.6211   0.9504   0.4791     N
N        0.633   0.5108   0.7854     N
N        0.633   0.7146   0.5108     N
N        0.633   0.7854   0.9892     N
N        0.633   0.9892   0.7146     N
C       0.6495   0.5328   0.5966     C
C       0.6495   0.5966   0.9672     C
C       0.6495   0.9034   0.5328     C
C       0.6495   0.9672   0.9034     C
O       0.6576   0.6576   0.6576     O
O       0.6576   0.6576   0.8424     O
O       0.6576   0.8424   0.6576     O
O       0.6576   0.8424   0.8424     O
N       0.6738   0.0793   0.9461     N
N       0.6738   0.4207   0.5539     N
N       0.6738   0.5539   0.0793     N
N       0.6738   0.9461   0.4207     N
N       0.7146   0.5108    0.633     N
N       0.7146    0.633   0.9892     N
N       0.7146    0.867   0.5108     N
N       0.7146   0.9892    0.867     N
N       0.7294    0.062   0.8956     N
N       0.7294    0.438   0.6044     N
N       0.7294   0.6044    0.062     N
N       0.7294   0.8956    0.438     N
Gd        0.75  0.59161     0.75    Gd
Gd        0.75     0.75  0.59161    Gd
Gd        0.75     0.75  0.90839    Gd
Gd        0.75  0.90839     0.75    Gd
N       0.7706    0.062   0.6044     N
N       0.7706    0.438   0.8956     N
N       0.7706   0.6044    0.438     N
N       0.7706   0.8956    0.062     N
N       0.7854   0.5108    0.867     N
N       0.7854    0.633   0.5108     N
N       0.7854    0.867   0.9892     N
N       0.7854   0.9892    0.633     N
N       0.8262   0.0793   0.5539     N
N       0.8262   0.4207   0.9461     N
N       0.8262   0.5539   0.4207     N
N       0.8262   0.9461   0.0793     N
O       0.8424   0.6576   0.6576     O
O       0.8424   0.6576   0.8424     O
O       0.8424   0.8424   0.6576     O
O       0.8424   0.8424   0.8424     O
C       0.8505   0.5328   0.9034     C
C       0.8505   0.5966   0.5328     C
C       0.8505   0.9034   0.9672     C
C       0.8505   0.9672   0.5966     C
N        0.867   0.5108   0.7146     N
N        0.867   0.7146   0.9892     N
N        0.867   0.7854   0.5108     N
N        0.867   0.9892   0.7854     N
N       0.8789   0.0209   0.5496     N
N       0.8789   0.4791   0.9504     N
N       0.8789   0.5496   0.4791     N
N       0.8789   0.9504   0.0209     N
C       0.8894   0.6106   0.6106     C
C       0.8894   0.6106   0.8894     C
C       0.8894   0.8894   0.6106     C
C       0.8894   0.8894   0.8894     C
N       0.8956    0.062   0.7706     N
N       0.8956    0.438   0.7294     N
N       0.8956   0.7294    0.062     N
N       0.8956   0.7706    0.438     N
C       0.9034   0.5328   0.6495     C
C       0.9034   0.6495   0.9672     C
C       0.9034   0.8505   0.5328     C
C       0.9034   0.9672   0.8505     C
Gd     0.90839     0.75     0.75    Gd
N       0.9207   0.0539   0.3262     N
N       0.9207   0.1738   0.0539     N
N       0.9207   0.3262   0.4461     N
N       0.9207   0.4461   0.1738     N
N        0.938   0.1044   0.2706     N
N        0.938   0.2294   0.1044     N
N        0.938   0.2706   0.3956     N
N        0.938   0.3956   0.2294     N
N       0.9461   0.0793   0.8262     N
N       0.9461   0.4207   0.6738     N
N       0.9461   0.6738   0.0793     N
N       0.9461   0.8262   0.4207     N
N       0.9504   0.0209   0.8789     N
N       0.9504   0.4791   0.6211     N
N       0.9504   0.6211   0.0209     N
N       0.9504   0.8789   0.4791     N
C       0.9672   0.5966   0.8505     C
C       0.9672   0.6495   0.5966     C
C       0.9672   0.8505   0.9034     C
C       0.9672   0.9034   0.6495     C
N       0.9791   0.0496   0.3789     N
N       0.9791   0.1211   0.0496     N
N       0.9791   0.3789   0.4504     N
N       0.9791   0.4504   0.1211     N
N       0.9892    0.633   0.7854     N
N       0.9892   0.7146    0.633     N
N       0.9892   0.7854    0.867     N
N       0.9892    0.867   0.7146     N
