data_I
_chemical_name_common  '/home/zhangsd/repos/MofS-CGCNN/ML/data/SSD/clean_cifs/QUJJUC_clean'
_cell_length_a 22.42500
_cell_length_b 22.42500
_cell_length_c 22.42500
_cell_angle_alpha 90.00000
_cell_angle_beta  90.00000
_cell_angle_gamma 90.00000
_space_group_name_H-M_alt      'P 1'


loop_
_space_group_symop_operation_xyz
  'x, y, z' 

loop_
_atom_site_label
_atom_site_fract_x
_atom_site_fract_y
_atom_site_fract_z
_atom_site_type_symbol
C       0.0029    0.185    0.084     C
C       0.0029    0.815    0.416     C
O       0.0124   0.1298   0.0844     O
O       0.0124   0.8702   0.4156     O
C        0.024   0.3098   0.6652     C
C        0.024   0.6902   0.8348     C
C        0.038   0.1978   0.6673     C
C        0.038   0.8022   0.8327     C
C       0.0522    0.288   0.0827     C
C       0.0522    0.712   0.4173     C
O       0.0524   0.3583   0.6612     O
O       0.0524   0.6417   0.8388     O
C       0.0598    0.226   0.0848     C
C       0.0598    0.774   0.4152     C
C        0.065   0.2529    0.666     C
C        0.065   0.7471    0.834     C
Br     0.07934   0.1208  0.33573    Br
Br     0.07934   0.8792  0.16427    Br
C       0.0827   0.0522    0.288     C
C       0.0827   0.9478    0.212     C
C        0.084   0.0029    0.185     C
C        0.084   0.9971    0.315     C
O       0.0844   0.0124   0.1298     O
O       0.0844   0.9876   0.3702     O
C       0.0848   0.0598    0.226     C
C       0.0848   0.9402    0.274     C
Br     0.08573   0.1292  0.67066    Br
Br     0.08573   0.8708  0.82934    Br
O       0.0888   0.1083   0.1976     O
O       0.0888   0.8917   0.3024     O
Na     0.10353  0.10353  0.10353    Na
Na     0.10353  0.89647  0.39647    Na
O       0.1083   0.1976   0.0888     O
O       0.1083   0.8024   0.4112     O
O       0.1202   0.2624   0.6656     O
O       0.1202   0.7376   0.8344     O
Br      0.1208  0.33573  0.07934    Br
Br      0.1208  0.66427  0.42066    Br
Br      0.1292  0.32934  0.41427    Br
Br      0.1292  0.67066  0.08573    Br
O       0.1298   0.0844   0.0124     O
O       0.1298   0.9156   0.4876     O
O       0.1417   0.3388   0.5524     O
O       0.1417   0.6612   0.9476     O
Na     0.14647  0.35353  0.64647    Na
Na     0.14647  0.64647  0.85353    Na
O       0.1612   0.4476   0.6417     O
O       0.1612   0.5524   0.8583     O
Br     0.16427  0.07934   0.8792    Br
Br     0.16427  0.92066   0.6208    Br
C       0.1652    0.476   0.6902     C
C       0.1652    0.524   0.8098     C
O       0.1656   0.3798   0.7376     O
O       0.1656   0.6202   0.7624     O
C        0.166    0.435   0.7471     C
C        0.166    0.565   0.7529     C
C       0.1673    0.462   0.8022     C
C       0.1673    0.538   0.6978     C
Br     0.17066  0.41427   0.8708    Br
Br     0.17066  0.58573   0.6292    Br
C        0.185    0.084   0.0029     C
C        0.185    0.916   0.4971     C
C       0.1902   0.3348    0.524     C
C       0.1902   0.6652    0.976     C
O       0.1976   0.0888   0.1083     O
O       0.1976   0.9112   0.3917     O
C       0.1978   0.3327    0.462     C
C       0.1978   0.6673    0.038     C
C        0.212   0.0827   0.9478     C
C        0.212   0.9173   0.5522     C
C        0.226   0.0848   0.0598     C
C        0.226   0.9152   0.4402     C
O       0.2376   0.3344   0.6202     O
O       0.2376   0.6656   0.8798     O
C       0.2471    0.334    0.565     C
C       0.2471    0.666    0.935     C
C       0.2529    0.334    0.435     C
C       0.2529    0.666    0.065     C
O       0.2624   0.3344   0.3798     O
O       0.2624   0.6656   0.1202     O
C        0.274   0.0848   0.9402     C
C        0.274   0.9152   0.5598     C
C        0.288   0.0827   0.0522     C
C        0.288   0.9173   0.4478     C
C       0.3022   0.3327    0.538     C
C       0.3022   0.6673    0.962     C
O       0.3024   0.0888   0.8917     O
O       0.3024   0.9112   0.6083     O
C       0.3098   0.3348    0.476     C
C       0.3098   0.6652    0.024     C
C        0.315    0.084   0.9971     C
C        0.315    0.916   0.5029     C
Br     0.32934  0.41427   0.1292    Br
Br     0.32934  0.58573   0.3708    Br
C       0.3327    0.462   0.1978     C
C       0.3327    0.538   0.3022     C
C        0.334    0.435   0.2529     C
C        0.334    0.565   0.2471     C
O       0.3344   0.3798   0.2624     O
O       0.3344   0.6202   0.2376     O
C       0.3348    0.476   0.3098     C
C       0.3348    0.524   0.1902     C
Br     0.33573  0.07934   0.1208    Br
Br     0.33573  0.92066   0.3792    Br
O       0.3388   0.4476   0.3583     O
O       0.3388   0.5524   0.1417     O
Na     0.35353  0.35353  0.35353    Na
Na     0.35353  0.64647  0.14647    Na
O       0.3583   0.3388   0.4476     O
O       0.3583   0.6612   0.0524     O
O       0.3702   0.0844   0.9876     O
O       0.3702   0.9156   0.5124     O
Br      0.3708  0.32934  0.58573    Br
Br      0.3708  0.67066  0.91427    Br
Br      0.3792  0.33573  0.92066    Br
Br      0.3792  0.66427  0.57934    Br
O       0.3798   0.2624   0.3344     O
O       0.3798   0.7376   0.1656     O
O       0.3917   0.1976   0.9112     O
O       0.3917   0.8024   0.5888     O
Na     0.39647  0.10353  0.89647    Na
Na     0.39647  0.89647  0.60353    Na
O       0.4112   0.1083   0.8024     O
O       0.4112   0.8917   0.6976     O
Br     0.41427   0.1292  0.32934    Br
Br     0.41427   0.8708  0.17066    Br
C       0.4152   0.0598    0.774     C
C       0.4152   0.9402    0.726     C
O       0.4156   0.0124   0.8702     O
O       0.4156   0.9876   0.6298     O
C        0.416   0.0029    0.815     C
C        0.416   0.9971    0.685     C
C       0.4173   0.0522    0.712     C
C       0.4173   0.9478    0.788     C
Br     0.42066   0.1208  0.66427    Br
Br     0.42066   0.8792  0.83573    Br
C        0.435   0.2529    0.334     C
C        0.435   0.7471    0.166     C
C       0.4402    0.226   0.9152     C
C       0.4402    0.774   0.5848     C
O       0.4476   0.3583   0.3388     O
O       0.4476   0.6417   0.1612     O
C       0.4478    0.288   0.9173     C
C       0.4478    0.712   0.5827     C
C        0.462   0.1978   0.3327     C
C        0.462   0.8022   0.1673     C
C        0.476   0.3098   0.3348     C
C        0.476   0.6902   0.1652     C
O       0.4876   0.1298   0.9156     O
O       0.4876   0.8702   0.5844     O
C       0.4971    0.185    0.916     C
C       0.4971    0.815    0.584     C
C       0.5029    0.315    0.916     C
C       0.5029    0.685    0.584     C
O       0.5124   0.3702   0.9156     O
O       0.5124   0.6298   0.5844     O
C        0.524   0.1902   0.3348     C
C        0.524   0.8098   0.1652     C
C        0.538   0.3022   0.3327     C
C        0.538   0.6978   0.1673     C
C       0.5522    0.212   0.9173     C
C       0.5522    0.788   0.5827     C
O       0.5524   0.1417   0.3388     O
O       0.5524   0.8583   0.1612     O
C       0.5598    0.274   0.9152     C
C       0.5598    0.726   0.5848     C
C        0.565   0.2471    0.334     C
C        0.565   0.7529    0.166     C
Br     0.57934   0.3792  0.66427    Br
Br     0.57934   0.6208  0.83573    Br
C       0.5827   0.4478    0.712     C
C       0.5827   0.5522    0.788     C
C        0.584   0.4971    0.815     C
C        0.584   0.5029    0.685     C
O       0.5844   0.4876   0.8702     O
O       0.5844   0.5124   0.6298     O
C       0.5848   0.4402    0.774     C
C       0.5848   0.5598    0.726     C
Br     0.58573   0.3708  0.32934    Br
Br     0.58573   0.6292  0.17066    Br
O       0.5888   0.3917   0.8024     O
O       0.5888   0.6083   0.6976     O
Na     0.60353  0.39647  0.89647    Na
Na     0.60353  0.60353  0.60353    Na
O       0.6083   0.3024   0.9112     O
O       0.6083   0.6976   0.5888     O
O       0.6202   0.2376   0.3344     O
O       0.6202   0.7624   0.1656     O
Br      0.6208  0.16427  0.92066    Br
Br      0.6208  0.83573  0.57934    Br
Br      0.6292  0.17066  0.58573    Br
Br      0.6292  0.82934  0.91427    Br
O       0.6298   0.4156   0.9876     O
O       0.6298   0.5844   0.5124     O
O       0.6417   0.1612   0.4476     O
O       0.6417   0.8388   0.0524     O
Na     0.64647  0.14647  0.35353    Na
Na     0.64647  0.85353  0.14647    Na
O       0.6612   0.0524   0.3583     O
O       0.6612   0.9476   0.1417     O
Br     0.66427  0.42066   0.1208    Br
Br     0.66427  0.57934   0.3792    Br
C       0.6652    0.024   0.3098     C
C       0.6652    0.976   0.1902     C
O       0.6656   0.1202   0.2624     O
O       0.6656   0.8798   0.2376     O
C        0.666    0.065   0.2529     C
C        0.666    0.935   0.2471     C
C       0.6673    0.038   0.1978     C
C       0.6673    0.962   0.3022     C
Br     0.67066  0.08573   0.1292    Br
Br     0.67066  0.91427   0.3708    Br
C        0.685    0.416   0.9971     C
C        0.685    0.584   0.5029     C
C       0.6902   0.1652    0.476     C
C       0.6902   0.8348    0.024     C
O       0.6976   0.4112   0.8917     O
O       0.6976   0.5888   0.6083     O
C       0.6978   0.1673    0.538     C
C       0.6978   0.8327    0.962     C
C        0.712   0.4173   0.0522     C
C        0.712   0.5827   0.4478     C
C        0.726   0.4152   0.9402     C
C        0.726   0.5848   0.5598     C
O       0.7376   0.1656   0.3798     O
O       0.7376   0.8344   0.1202     O
C       0.7471    0.166    0.435     C
C       0.7471    0.834    0.065     C
C       0.7529    0.166    0.565     C
C       0.7529    0.834    0.935     C
O       0.7624   0.1656   0.6202     O
O       0.7624   0.8344   0.8798     O
C        0.774   0.4152   0.0598     C
C        0.774   0.5848   0.4402     C
C        0.788   0.4173   0.9478     C
C        0.788   0.5827   0.5522     C
C       0.8022   0.1673    0.462     C
C       0.8022   0.8327    0.038     C
O       0.8024   0.4112   0.1083     O
O       0.8024   0.5888   0.3917     O
C       0.8098   0.1652    0.524     C
C       0.8098   0.8348    0.976     C
C        0.815    0.416   0.0029     C
C        0.815    0.584   0.4971     C
Br     0.82934  0.08573   0.8708    Br
Br     0.82934  0.91427   0.6292    Br
C       0.8327    0.038   0.8022     C
C       0.8327    0.962   0.6978     C
C        0.834    0.065   0.7471     C
C        0.834    0.935   0.7529     C
O       0.8344   0.1202   0.7376     O
O       0.8344   0.8798   0.7624     O
C       0.8348    0.024   0.6902     C
C       0.8348    0.976   0.8098     C
Br     0.83573  0.42066   0.8792    Br
Br     0.83573  0.57934   0.6208    Br
O       0.8388   0.0524   0.6417     O
O       0.8388   0.9476   0.8583     O
Na     0.85353  0.14647  0.64647    Na
Na     0.85353  0.85353  0.85353    Na
O       0.8583   0.1612   0.5524     O
O       0.8583   0.8388   0.9476     O
O       0.8702   0.4156   0.0124     O
O       0.8702   0.5844   0.4876     O
Br      0.8708  0.17066  0.41427    Br
Br      0.8708  0.82934  0.08573    Br
Br      0.8792  0.16427  0.07934    Br
Br      0.8792  0.83573  0.42066    Br
O       0.8798   0.2376   0.6656     O
O       0.8798   0.7624   0.8344     O
O       0.8917   0.3024   0.0888     O
O       0.8917   0.6976   0.4112     O
Na     0.89647  0.39647  0.10353    Na
Na     0.89647  0.60353  0.39647    Na
O       0.9112   0.3917   0.1976     O
O       0.9112   0.6083   0.3024     O
Br     0.91427   0.3708  0.67066    Br
Br     0.91427   0.6292  0.82934    Br
C       0.9152   0.4402    0.226     C
C       0.9152   0.5598    0.274     C
O       0.9156   0.4876   0.1298     O
O       0.9156   0.5124   0.3702     O
C        0.916   0.4971    0.185     C
C        0.916   0.5029    0.315     C
C       0.9173   0.4478    0.288     C
C       0.9173   0.5522    0.212     C
Br     0.92066   0.3792  0.33573    Br
Br     0.92066   0.6208  0.16427    Br
C        0.935   0.2471    0.666     C
C        0.935   0.7529    0.834     C
C       0.9402    0.274   0.0848     C
C       0.9402    0.726   0.4152     C
O       0.9476   0.1417   0.6612     O
O       0.9476   0.8583   0.8388     O
C       0.9478    0.212   0.0827     C
C       0.9478    0.788   0.4173     C
C        0.962   0.3022   0.6673     C
C        0.962   0.6978   0.8327     C
C        0.976   0.1902   0.6652     C
C        0.976   0.8098   0.8348     C
O       0.9876   0.3702   0.0844     O
O       0.9876   0.6298   0.4156     O
C       0.9971    0.315    0.084     C
C       0.9971    0.685    0.416     C
