data_I
_chemical_name_common  '/home/zhangsd/repos/MofS-CGCNN/ML/data/SSD/clean_cifs/QUQHAM_clean'
_cell_length_a  5.85950
_cell_length_b 11.53820
_cell_length_c 11.53820
_cell_angle_alpha 94.10910
_cell_angle_beta  101.72100
_cell_angle_gamma 78.27920
_space_group_name_H-M_alt      'P 1'


loop_
_space_group_symop_operation_xyz
  'x, y, z' 

loop_
_atom_site_label
_atom_site_fract_x
_atom_site_fract_y
_atom_site_fract_z
_atom_site_type_symbol
C       0.0047    0.435   0.1372     C
C       0.0207   0.5357   0.2083     C
O        0.047   0.1025   0.7162     O
O       0.0668  0.90749  0.06701     O
H       0.0725   0.9049   0.1385     H
O       0.0939  0.20308  0.34098     O
C       0.1058  0.95593  0.48911     C
C       0.1197   0.8882    0.381     C
Cu     0.14849  0.73987  0.00893    Cu
H       0.1582   0.5415   0.2633     H
H        0.166   0.3052   0.7574     H
C       0.1726   0.3736   0.8048     C
O       0.1771  0.24708   0.0667     O
N       0.1964  0.57731  0.93973     N
C       0.2134    0.334   0.1384     C
Cu        0.25  0.00878  0.00878    Cu
C       0.2866   0.1384    0.334     C
N       0.3036  0.93973  0.57731     N
O       0.3229   0.0667  0.24708     O
C       0.3274   0.8048   0.3736     C
H        0.334   0.7574   0.3052     H
H       0.3418   0.2633   0.5415     H
Cu     0.35151  0.00893  0.73987    Cu
C       0.3803    0.381   0.8882     C
C       0.3942  0.48911  0.95593     C
O       0.4061  0.34098  0.20308     O
H       0.4275   0.1385   0.9049     H
O       0.4332  0.06701  0.90749     O
O        0.453   0.7162   0.1025     O
C       0.4793   0.2083   0.5357     C
C       0.4953   0.1372    0.435     C
C       0.5047   0.8628    0.565     C
C       0.5207   0.7917   0.4643     C
O        0.547   0.2838   0.8975     O
O       0.5668  0.93299  0.09251     O
H       0.5725   0.8615   0.0951     H
O       0.5939  0.65902  0.79692     O
C       0.6058  0.51089  0.04407     C
C       0.6197    0.619   0.1118     C
Cu     0.64849  0.99107  0.26013    Cu
H       0.6582   0.7367   0.4585     H
H        0.666   0.2426   0.6948     H
C       0.6726   0.1952   0.6264     C
O       0.6771   0.9333  0.75292     O
N       0.6964  0.06027  0.42269     N
C       0.7134   0.8616    0.666     C
Cu        0.75  0.99122  0.99122    Cu
C       0.7866    0.666   0.8616     C
N       0.8036  0.42269  0.06027     N
O       0.8229  0.75292   0.9333     O
C       0.8274   0.6264   0.1952     C
H        0.834   0.6948   0.2426     H
H       0.8418   0.4585   0.7367     H
Cu     0.85151  0.26013  0.99107    Cu
C       0.8803   0.1118    0.619     C
C       0.8942  0.04407  0.51089     C
O       0.9061  0.79692  0.65902     O
H       0.9275   0.0951   0.8615     H
O       0.9332  0.09251  0.93299     O
O        0.953   0.8975   0.2838     O
C       0.9793   0.4643   0.7917     C
C       0.9953    0.565   0.8628     C
