data_I
_chemical_name_common  '/home/zhangsd/repos/MofS-CGCNN/ML/data/SSD/clean_cifs/QUSQIG_clean'
_cell_length_a 17.14300
_cell_length_b 17.14300
_cell_length_c 49.06870
_cell_angle_alpha 90.00000
_cell_angle_beta  90.00000
_cell_angle_gamma 90.00000
_space_group_name_H-M_alt      'P 1'


loop_
_space_group_symop_operation_xyz
  'x, y, z' 

loop_
_atom_site_label
_atom_site_fract_x
_atom_site_fract_y
_atom_site_fract_z
_atom_site_type_symbol
Zn         0.0      0.0  0.26488    Zn
Zn         0.0      0.0  0.76488    Zn
Zn         0.0      0.5  0.01488    Zn
Zn         0.0      0.5  0.51488    Zn
O       0.0002   0.0879   0.7397     O
O       0.0002   0.9121   0.2397     O
C       0.0026     0.27   0.3401     C
C       0.0026     0.73   0.8401     C
C       0.0039   0.3229   0.3203     C
C       0.0039   0.6771   0.8203     C
O       0.0059   0.4174  0.04202     O
O       0.0059   0.5826  0.54202     O
C        0.007   0.1607   0.3894     C
C        0.007   0.8393   0.8894     C
C       0.0092   0.3693  0.59754     C
C       0.0092   0.6307  0.09754     C
C       0.0095   0.1891  0.69593     C
C       0.0095   0.8109  0.19593     C
C       0.0129   0.1189   0.4111     C
C       0.0129   0.8811   0.9111     C
C       0.0141    0.236  0.67335     C
C       0.0141    0.764  0.17335     C
C       0.0151   0.3297   0.6208     C
C       0.0151   0.6703   0.1208     C
H        0.026   0.0826   0.9148     H
H        0.026   0.9174   0.4148     H
H       0.0354   0.3324    0.948     H
H       0.0354   0.6676    0.448     H
H       0.0362    0.325   0.8076     H
H       0.0362    0.675   0.3076     H
H        0.037    0.157   0.8784     H
H        0.037    0.843   0.3784     H
H       0.0392   0.2357   0.8413     H
H       0.0392   0.7643   0.3413     H
H       0.0414   0.1513   0.5726     H
H       0.0414   0.8487   0.0726     H
C       0.0463   0.2387  0.15526     C
C       0.0463   0.7613  0.65526     C
C       0.0481   0.2868  0.13032     C
C       0.0481   0.7132  0.63032     C
H       0.0501   0.1888   0.7085     H
H       0.0501   0.8112   0.2085     H
H       0.0518   0.3973   0.5911     H
H       0.0518   0.6027   0.0911     H
C       0.0528   0.1438  0.19997     C
C       0.0528   0.8562  0.69997     C
O       0.0573    0.377  0.47862     O
O       0.0573    0.623  0.97862     O
H       0.0584    0.266   0.6704     H
H       0.0584    0.734   0.1704     H
C        0.059   0.3692  0.08291     C
C        0.059   0.6308  0.58291     C
H       0.0605   0.3775   0.9049     H
H       0.0605   0.6225   0.4049     H
H       0.0615   0.3307   0.6307     H
H       0.0615   0.6693   0.1307     H
C       0.0621   0.0928  0.22445     C
C       0.0621   0.9072  0.72445     C
C       0.0631   0.2655   0.3589     C
C       0.0631   0.7345   0.8589     C
C        0.065   0.3745   0.3189     C
C        0.065   0.6255   0.8189     C
H       0.0661   0.4124   0.3053     H
H       0.0661   0.5876   0.8053     H
O       0.0669    0.133   0.8003     O
O       0.0669    0.867   0.3003     O
C        0.067   0.2115   0.3826     C
C        0.067   0.7885   0.8826     C
C       0.0677   0.4102  0.05593     C
C       0.0677   0.5898  0.55593     C
C       0.0744   0.3097   0.9375     C
C       0.0744   0.6903   0.4375     C
C       0.0754   0.1256   0.4293     C
C       0.0754   0.8744   0.9293     C
H       0.0763   0.0974   0.4455     H
H       0.0763   0.9026   0.9455     H
H       0.0772   0.1017   0.6142     H
H       0.0772   0.8983   0.1142     H
O       0.0826   0.0059  0.79202     O
H       0.0826    0.474   0.1648     H
H       0.0826    0.526   0.6648     H
O       0.0826   0.9941  0.29202     O
C       0.0843   0.1724   0.5816     C
C       0.0843   0.8276   0.0816     C
H       0.0876   0.0661   0.0553     H
H       0.0876   0.9339   0.5553     H
O       0.0879   0.4998   0.9897     O
O       0.0879   0.5002   0.4897     O
C       0.0898   0.0677  0.80593     C
C       0.0898   0.9323  0.30593     C
C       0.0903   0.3375   0.9123     C
C       0.0903   0.6625   0.4123     C
C       0.0928   0.4379  0.47445     C
C       0.0928   0.5621  0.97445     C
H       0.0942   0.1638   0.0863     H
H       0.0942   0.8362   0.5863     H
H       0.0974   0.4237   0.6955     H
H       0.0974   0.5763   0.1955     H
H       0.1017   0.4228   0.8642     H
H       0.1017   0.5772   0.3642     H
H       0.1027   0.0518   0.3411     H
H       0.1027   0.9482   0.8411     H
C       0.1038   0.1438   0.6067     C
C       0.1038   0.8562   0.1067     C
H       0.1048   0.2273   0.9642     H
H       0.1048   0.7727   0.4642     H
N       0.1103   0.1924   0.1593     N
N       0.1103   0.8076   0.6593     N
C       0.1131   0.1474  0.18139     C
C       0.1131   0.8526  0.68139     C
H       0.1136   0.2456    0.551     H
H       0.1136   0.7544    0.051     H
C       0.1161   0.2481   0.9472     C
C       0.1161   0.7519   0.4472     C
N       0.1168   0.2887  0.11701     N
N       0.1168   0.7113  0.61701     N
H       0.1172   0.3426   0.4344     H
H       0.1172   0.6574   0.9344     H
C       0.1189   0.4871   0.6611     C
C       0.1189   0.5129   0.1611     C
H       0.1225   0.0605   0.6549     H
H       0.1225   0.9395   0.1549     H
C       0.1226   0.3281  0.09352     C
C       0.1226   0.6719  0.59352     C
O        0.123   0.0573  0.22862     O
O        0.123   0.9427  0.72862     O
C       0.1234   0.3697  0.33729     C
C       0.1234   0.6303  0.83729     C
C       0.1255    0.065   0.0689     C
C       0.1255    0.935   0.5689     C
C       0.1256   0.4246   0.6793     C
C       0.1256   0.5754   0.1793     C
N       0.1257    0.316  0.35666     N
N       0.1257    0.684  0.85666     N
C       0.1259   0.2314   0.5688     C
C       0.1259   0.7686   0.0688     C
C       0.1303   0.1234  0.08729     C
C       0.1303   0.8766  0.58729     C
C       0.1307   0.0092  0.34754     C
C       0.1307   0.9908  0.84754     C
C       0.1308    0.059  0.83291     C
C       0.1308    0.941  0.33291     C
O        0.133   0.4331   0.0503     O
O        0.133   0.5669   0.5503     O
C       0.1358   0.2178  0.39848     C
C       0.1358   0.7822  0.89848     C
C       0.1377   0.1773   0.4222     C
C       0.1377   0.8227   0.9222     C
C       0.1438   0.3962   0.8567     C
C       0.1438   0.4472  0.44997     C
C       0.1438   0.5528  0.94997     C
C       0.1438   0.6038   0.3567     C
C       0.1474   0.3869  0.43139     C
C       0.1474   0.6131  0.93139     C
H       0.1513   0.4586   0.8226     H
H       0.1513   0.5414   0.3226     H
C       0.1514   0.3058   0.8977     C
C       0.1514   0.6942   0.3977     C
H        0.157    0.463   0.1284     H
H        0.157    0.537   0.6284     H
H       0.1574   0.1172   0.1844     H
H       0.1574   0.8828   0.6844     H
C       0.1607    0.493   0.6394     C
C       0.1607    0.507   0.1394     C
C       0.1625   0.0903   0.6623     C
C       0.1625   0.9097   0.1623     C
H       0.1638   0.4058   0.3363     H
H       0.1638   0.5942   0.8363     H
C       0.1641   0.1794   0.6207     C
C       0.1641   0.8206   0.1207     C
H       0.1676   0.0354    0.698     H
H       0.1676   0.9646    0.198     H
H       0.1693   0.0615   0.3807     H
H       0.1693   0.9385   0.8807     H
H       0.1697   0.3282   0.0841     H
H       0.1697   0.6718   0.5841     H
C       0.1703   0.0151   0.3708     C
C       0.1703   0.9849   0.8708     C
H       0.1718   0.1697   0.8341     H
H       0.1718   0.8303   0.3341     H
C       0.1719   0.1226  0.84352     C
C       0.1719   0.8774  0.34352     C
C       0.1724   0.4157   0.8316     C
C       0.1724   0.5843   0.3316     C
H       0.1735   0.2982   0.1883     H
H       0.1735   0.7018   0.6883     H
H        0.175   0.0362   0.5576     H
H        0.175   0.9638   0.0576     H
C       0.1751   0.2167   0.9317     C
C       0.1751   0.7833   0.4317     C
C       0.1771   0.0039   0.0703     C
C       0.1771   0.9961   0.5703     C
C       0.1773   0.3623   0.6722     C
C       0.1773   0.6377   0.1722     C
C       0.1794   0.3359   0.8707     C
C       0.1794   0.6641   0.3707     C
H       0.1799   0.1832    0.434     H
H       0.1799   0.8168    0.934     H
H       0.1832   0.3201    0.684     H
H       0.1832   0.6799    0.184     H
N        0.184   0.1257  0.10666     N
N        0.184   0.8743  0.60666     N
C       0.1855   0.2693   0.5825     C
C       0.1855   0.7307   0.0825     C
H       0.1888   0.4499   0.9585     H
H       0.1888   0.5501   0.4585     H
H       0.1891   0.2118   0.3245     H
C       0.1891   0.4905  0.94593     C
C       0.1891   0.5095  0.44593     C
H       0.1891   0.7882   0.8245     H
C       0.1903   0.0744   0.6875     C
C       0.1903   0.9256   0.1875     C
N       0.1924   0.3897   0.4093     N
N       0.1924   0.6103   0.9093     N
C       0.1942   0.1514   0.6477     C
C       0.1942   0.8486   0.1477     C
N       0.1955   0.2464  0.90726     N
N       0.1955   0.7536  0.40726     N
H       0.2018   0.1735   0.9383     H
H       0.2018   0.8265   0.4383     H
C       0.2055   0.2431    0.609     C
C       0.2055   0.7569    0.109     C
Ir     0.20719  0.21571  0.13308    Ir
Ir     0.20719  0.78429  0.63308    Ir
N       0.2113   0.1168  0.86701     N
N       0.2113   0.8832  0.36701     N
C       0.2115    0.433   0.6326     C
C       0.2115    0.567   0.1326     C
H       0.2118   0.3109   0.5745     H
H       0.2118   0.6891   0.0745     H
C       0.2132   0.0481  0.88032     C
C       0.2132   0.9519  0.38032     C
Ir     0.21571  0.29281  0.38308    Ir
Ir     0.21571  0.70719  0.88308    Ir
C       0.2167   0.3249   0.1817     C
C       0.2167   0.6751   0.6817     C
C       0.2178   0.3642  0.64848     C
C       0.2178   0.6358  0.14848     C
H       0.2273   0.3952   0.2142     H
H       0.2273   0.6048   0.7142     H
C         0.23   0.0026   0.0901     C
C         0.23   0.9974   0.5901     C
C       0.2307   0.1855   0.3325     C
C       0.2307   0.8145   0.8325     C
C       0.2314   0.3741   0.8188     C
C       0.2314   0.6259   0.3188     C
H        0.234   0.0584   0.4204     H
H        0.234   0.9416   0.9204     H
C       0.2345   0.0631   0.1089     C
C       0.2345   0.9369   0.6089     C
H       0.2357   0.4608   0.0913     H
H       0.2357   0.5392   0.5913     H
C        0.236   0.4859  0.92335     C
C        0.236   0.5141  0.42335     C
C       0.2387   0.4537  0.40526     C
C       0.2387   0.5463  0.90526     C
C       0.2431   0.2945    0.859     C
C       0.2431   0.7055    0.359     C
H       0.2456   0.3864    0.801     H
H       0.2456   0.6136    0.301     H
N       0.2464   0.3045  0.15726     N
N       0.2464   0.6955  0.65726     N
C       0.2481   0.3839   0.1972     C
C       0.2481   0.6161   0.6972     C
C       0.2519   0.1161   0.6972     C
C       0.2519   0.8839   0.1972     C
N       0.2536   0.1955  0.65726     N
N       0.2536   0.8045  0.15726     N
H       0.2544   0.1136    0.301     H
H       0.2544   0.8864    0.801     H
C       0.2569   0.2055    0.359     C
C       0.2569   0.7945    0.859     C
C       0.2613   0.0463  0.90526     C
C       0.2613   0.9537  0.40526     C
C        0.264   0.0141  0.42335     C
C        0.264   0.9859  0.92335     C
H       0.2643   0.0392   0.5913     H
H       0.2643   0.9608   0.0913     H
C       0.2655   0.4369   0.6089     C
C       0.2655   0.5631   0.1089     C
H        0.266   0.4416   0.9204     H
H        0.266   0.5584   0.4204     H
C       0.2686   0.1259   0.3188     C
C       0.2686   0.8741   0.8188     C
C       0.2693   0.3145   0.8325     C
C       0.2693   0.6855   0.3325     C
C         0.27   0.4974   0.5901     C
C         0.27   0.5026   0.0901     C
H       0.2727   0.1048   0.7142     H
H       0.2727   0.8952   0.2142     H
C       0.2822   0.1358  0.14848     C
C       0.2822   0.8642  0.64848     C
C       0.2833   0.1751   0.6817     C
C       0.2833   0.8249   0.1817     C
Ir     0.28429  0.20719  0.88308    Ir
Ir     0.28429  0.79281  0.38308    Ir
C       0.2868   0.4519  0.38032     C
C       0.2868   0.5481  0.88032     C
H       0.2882   0.1891   0.0745     H
H       0.2882   0.8109   0.5745     H
C       0.2885    0.067   0.1326     C
C       0.2885    0.933   0.6326     C
N       0.2887   0.3832  0.36701     N
N       0.2887   0.6168  0.86701     N
Ir     0.29281  0.28429  0.63308    Ir
Ir     0.29281  0.71571  0.13308    Ir
C       0.2945   0.2569    0.109     C
C       0.2945   0.7431    0.609     C
H       0.2982   0.3265   0.4383     H
H       0.2982   0.6735   0.9383     H
N       0.3045   0.2536  0.40726     N
N       0.3045   0.7464  0.90726     N
C       0.3058   0.3486   0.1477     C
C       0.3058   0.6514   0.6477     C
N       0.3076   0.1103   0.9093     N
N       0.3076   0.8897   0.4093     N
C       0.3097   0.4256   0.1875     C
C       0.3097   0.5744   0.6875     C
C       0.3109   0.0095  0.44593     C
H       0.3109   0.2882   0.8245     H
H       0.3109   0.7118   0.3245     H
C       0.3109   0.9905  0.94593     C
H       0.3112   0.0501   0.4585     H
H       0.3112   0.9499   0.9585     H
C       0.3145   0.2307   0.0825     C
C       0.3145   0.7693   0.5825     C
N        0.316   0.3743  0.60666     N
N        0.316   0.6257  0.10666     N
H       0.3168   0.1799    0.184     H
H       0.3168   0.8201    0.684     H
H       0.3201   0.3168    0.934     H
H       0.3201   0.6832    0.434     H
C       0.3206   0.1641   0.3707     C
C       0.3206   0.8359   0.8707     C
C       0.3227   0.1377   0.1722     C
C       0.3227   0.8623   0.6722     C
C       0.3229   0.4961   0.5703     C
C       0.3229   0.5039   0.0703     C
C       0.3249   0.2833   0.4317     C
C       0.3249   0.7167   0.9317     C
H        0.325   0.4638   0.0576     H
H        0.325   0.5362   0.5576     H
H       0.3265   0.2018   0.6883     H
H       0.3265   0.7982   0.1883     H
C       0.3276   0.0843   0.3316     C
C       0.3276   0.9157   0.8316     C
C       0.3281   0.3774  0.34352     C
C       0.3281   0.6226  0.84352     C
H       0.3282   0.3303   0.3341     H
H       0.3282   0.6697   0.8341     H
C       0.3297   0.4849   0.8708     C
C       0.3297   0.5151   0.3708     C
H       0.3303   0.1718   0.5841     H
H       0.3303   0.8282   0.0841     H
H       0.3307   0.4385   0.8807     H
H       0.3307   0.5615   0.3807     H
H       0.3324   0.4646    0.198     H
H       0.3324   0.5354    0.698     H
C       0.3359   0.3206   0.1207     C
C       0.3359   0.6794   0.6207     C
H       0.3362   0.0942   0.8363     H
H       0.3362   0.9058   0.3363     H
C       0.3375   0.4097   0.1623     C
C       0.3375   0.5903   0.6623     C
C       0.3393    0.007   0.1394     C
C       0.3393    0.993   0.6394     C
H       0.3426   0.3828   0.6844     H
H       0.3426   0.6172   0.1844     H
H        0.343    0.037   0.6284     H
H        0.343    0.963   0.1284     H
C       0.3486   0.1942   0.3977     C
C       0.3486   0.8058   0.8977     C
H       0.3487   0.0414   0.3226     H
H       0.3487   0.9586   0.8226     H
C       0.3526   0.1131  0.93139     C
C       0.3526   0.8869  0.43139     C
C       0.3562   0.0528  0.94997     C
C       0.3562   0.1038   0.3567     C
C       0.3562   0.8962   0.8567     C
C       0.3562   0.9472  0.44997     C
C       0.3623   0.3227   0.9222     C
C       0.3623   0.6773   0.4222     C
C       0.3642   0.2822  0.89848     C
C       0.3642   0.7178  0.39848     C
O        0.367   0.0669   0.5503     O
O        0.367   0.9331   0.0503     O
C       0.3692    0.441  0.33291     C
C       0.3692    0.559  0.83291     C
C       0.3693   0.4908  0.84754     C
C       0.3693   0.5092  0.34754     C
C       0.3697   0.3766  0.58729     C
C       0.3697   0.6234  0.08729     C
C       0.3741   0.2686   0.0688     C
C       0.3741   0.7314   0.5688     C
N       0.3743    0.184  0.85666     N
N       0.3743    0.816  0.35666     N
C       0.3744   0.0754   0.1793     C
C       0.3744   0.9246   0.6793     C
C       0.3745    0.435   0.5689     C
C       0.3745    0.565   0.0689     C
C       0.3766   0.1303  0.83729     C
C       0.3766   0.8697  0.33729     C
O        0.377   0.4427  0.72862     O
O        0.377   0.5573  0.22862     O
C       0.3774   0.1719  0.59352     C
C       0.3774   0.8281  0.09352     C
H       0.3775   0.4395   0.1549     H
H       0.3775   0.5605   0.6549     H
C       0.3811   0.0129   0.1611     C
C       0.3811   0.9871   0.6611     C
H       0.3828   0.1574   0.9344     H
H       0.3828   0.8426   0.4344     H
N       0.3832   0.2113  0.61701     N
N       0.3832   0.7887  0.11701     N
C       0.3839   0.2519   0.4472     C
C       0.3839   0.7481   0.9472     C
H       0.3864   0.2544    0.051     H
H       0.3864   0.7456    0.551     H
C       0.3869   0.3526  0.68139     C
C       0.3869   0.6474  0.18139     C
N       0.3897   0.3076   0.6593     N
N       0.3897   0.6924   0.1593     N
H       0.3952   0.2727   0.4642     H
H       0.3952   0.7273   0.9642     H
C       0.3962   0.3562   0.1067     C
C       0.3962   0.6438   0.6067     C
H       0.3973   0.4482   0.8411     H
H       0.3973   0.5518   0.3411     H
H       0.3983   0.0772   0.3642     H
H       0.3983   0.9228   0.8642     H
H       0.4026   0.0763   0.1955     H
H       0.4026   0.9237   0.6955     H
H       0.4058   0.3362   0.5863     H
H       0.4058   0.6638   0.0863     H
C       0.4072   0.0621  0.97445     C
C       0.4072   0.9379  0.47445     C
C       0.4097   0.1625   0.4123     C
C       0.4097   0.8375   0.9123     C
C       0.4102   0.4323  0.30593     C
C       0.4102   0.5677  0.80593     C
O       0.4121   0.0002   0.4897     O
O       0.4121   0.9998   0.9897     O
H       0.4124   0.4339   0.5553     H
H       0.4124   0.5661   0.0553     H
C       0.4157   0.3276   0.0816     C
C       0.4157   0.6724   0.5816     C
H       0.4174    0.026   0.6648     H
O       0.4174   0.4941  0.29202     O
O       0.4174   0.5059  0.79202     O
H       0.4174    0.974   0.1648     H
H       0.4228   0.3983   0.1142     H
H       0.4228   0.6017   0.6142     H
H       0.4237   0.4026   0.9455     H
H       0.4237   0.5974   0.4455     H
C       0.4246   0.3744   0.9293     C
C       0.4246   0.6256   0.4293     C
C       0.4256   0.1903   0.4375     C
C       0.4256   0.8097   0.9375     C
C       0.4323   0.0898  0.55593     C
C       0.4323   0.9102  0.05593     C
C        0.433   0.2885   0.8826     C
C        0.433   0.7115   0.3826     C
O       0.4331    0.367   0.3003     O
O       0.4331    0.633   0.8003     O
H       0.4339   0.0876   0.8053     H
H       0.4339   0.9124   0.3053     H
C        0.435   0.1255   0.8189     C
C        0.435   0.8745   0.3189     C
C       0.4369   0.2345   0.8589     C
C       0.4369   0.7655   0.3589     C
C       0.4379   0.4072  0.72445     C
C       0.4379   0.5928  0.22445     C
H       0.4385   0.1693   0.1307     H
H       0.4385   0.8307   0.6307     H
H       0.4395   0.1225   0.4049     H
H       0.4395   0.8775   0.9049     H
C        0.441   0.1308  0.58291     C
C        0.441   0.8692  0.08291     C
H       0.4416    0.234   0.1704     H
H       0.4416    0.766   0.6704     H
O       0.4427    0.123  0.97862     O
O       0.4427    0.877  0.47862     O
C       0.4472   0.3562  0.69997     C
C       0.4472   0.6438  0.19997     C
H       0.4482   0.1027   0.0911     H
H       0.4482   0.8973   0.5911     H
H       0.4499   0.3112   0.2085     H
H       0.4499   0.6888   0.7085     H
C       0.4519   0.2132  0.63032     C
C       0.4519   0.7868  0.13032     C
C       0.4537   0.2613  0.65526     C
C       0.4537   0.7387  0.15526     C
H       0.4586   0.3487   0.0726     H
H       0.4586   0.6513   0.5726     H
H       0.4608   0.2643   0.3413     H
H       0.4608   0.7357   0.8413     H
H        0.463    0.343   0.3784     H
H        0.463    0.657   0.8784     H
H       0.4638    0.175   0.3076     H
H       0.4638    0.825   0.8076     H
H       0.4646   0.1676    0.448     H
H       0.4646   0.8324    0.948     H
H        0.474   0.4174   0.4148     H
H        0.474   0.5826   0.9148     H
C       0.4849   0.1703   0.1208     C
C       0.4849   0.8297   0.6208     C
C       0.4859    0.264  0.17335     C
C       0.4859    0.736  0.67335     C
C       0.4871   0.3811   0.9111     C
C       0.4871   0.6189   0.4111     C
C       0.4905   0.3109  0.19593     C
C       0.4905   0.6891  0.69593     C
C       0.4908   0.1307  0.09754     C
C       0.4908   0.8693  0.59754     C
C        0.493   0.3393   0.8894     C
C        0.493   0.6607   0.3894     C
O       0.4941   0.0826  0.54202     O
O       0.4941   0.9174  0.04202     O
C       0.4961   0.1771   0.8203     C
C       0.4961   0.8229   0.3203     C
C       0.4974     0.23   0.8401     C
C       0.4974     0.77   0.3401     C
O       0.4998   0.4121   0.2397     O
O       0.4998   0.5879   0.7397     O
Zn         0.5      0.0  0.01488    Zn
Zn         0.5      0.0  0.51488    Zn
Zn         0.5      0.5  0.26488    Zn
Zn         0.5      0.5  0.76488    Zn
O       0.5002   0.4121   0.7397     O
O       0.5002   0.5879   0.2397     O
C       0.5026     0.23   0.3401     C
C       0.5026     0.77   0.8401     C
C       0.5039   0.1771   0.3203     C
C       0.5039   0.8229   0.8203     C
O       0.5059   0.0826  0.04202     O
O       0.5059   0.9174  0.54202     O
C        0.507   0.3393   0.3894     C
C        0.507   0.6607   0.8894     C
C       0.5092   0.1307  0.59754     C
C       0.5092   0.8693  0.09754     C
C       0.5095   0.3109  0.69593     C
C       0.5095   0.6891  0.19593     C
C       0.5129   0.3811   0.4111     C
C       0.5129   0.6189   0.9111     C
C       0.5141    0.264  0.67335     C
C       0.5141    0.736  0.17335     C
C       0.5151   0.1703   0.6208     C
C       0.5151   0.8297   0.1208     C
H        0.526   0.4174   0.9148     H
H        0.526   0.5826   0.4148     H
H       0.5354   0.1676    0.948     H
H       0.5354   0.8324    0.448     H
H       0.5362    0.175   0.8076     H
H       0.5362    0.825   0.3076     H
H        0.537    0.343   0.8784     H
H        0.537    0.657   0.3784     H
H       0.5392   0.2643   0.8413     H
H       0.5392   0.7357   0.3413     H
H       0.5414   0.3487   0.5726     H
H       0.5414   0.6513   0.0726     H
C       0.5463   0.2613  0.15526     C
C       0.5463   0.7387  0.65526     C
C       0.5481   0.2132  0.13032     C
C       0.5481   0.7868  0.63032     C
H       0.5501   0.3112   0.7085     H
H       0.5501   0.6888   0.2085     H
H       0.5518   0.1027   0.5911     H
H       0.5518   0.8973   0.0911     H
C       0.5528   0.3562  0.19997     C
C       0.5528   0.6438  0.69997     C
O       0.5573    0.123  0.47862     O
O       0.5573    0.877  0.97862     O
H       0.5584    0.234   0.6704     H
H       0.5584    0.766   0.1704     H
C        0.559   0.1308  0.08291     C
C        0.559   0.8692  0.58291     C
H       0.5605   0.1225   0.9049     H
H       0.5605   0.8775   0.4049     H
H       0.5615   0.1693   0.6307     H
H       0.5615   0.8307   0.1307     H
C       0.5621   0.4072  0.22445     C
C       0.5621   0.5928  0.72445     C
C       0.5631   0.2345   0.3589     C
C       0.5631   0.7655   0.8589     C
C        0.565   0.1255   0.3189     C
C        0.565   0.8745   0.8189     C
H       0.5661   0.0876   0.3053     H
H       0.5661   0.9124   0.8053     H
O       0.5669    0.367   0.8003     O
O       0.5669    0.633   0.3003     O
C        0.567   0.2885   0.3826     C
C        0.567   0.7115   0.8826     C
C       0.5677   0.0898  0.05593     C
C       0.5677   0.9102  0.55593     C
C       0.5744   0.1903   0.9375     C
C       0.5744   0.8097   0.4375     C
C       0.5754   0.3744   0.4293     C
C       0.5754   0.6256   0.9293     C
H       0.5763   0.4026   0.4455     H
H       0.5763   0.5974   0.9455     H
H       0.5772   0.3983   0.6142     H
H       0.5772   0.6017   0.1142     H
H       0.5826    0.026   0.1648     H
O       0.5826   0.4941  0.79202     O
O       0.5826   0.5059  0.29202     O
H       0.5826    0.974   0.6648     H
C       0.5843   0.3276   0.5816     C
C       0.5843   0.6724   0.0816     C
H       0.5876   0.4339   0.0553     H
H       0.5876   0.5661   0.5553     H
O       0.5879   0.0002   0.9897     O
O       0.5879   0.9998   0.4897     O
C       0.5898   0.4323  0.80593     C
C       0.5898   0.5677  0.30593     C
C       0.5903   0.1625   0.9123     C
C       0.5903   0.8375   0.4123     C
C       0.5928   0.0621  0.47445     C
C       0.5928   0.9379  0.97445     C
H       0.5942   0.3362   0.0863     H
H       0.5942   0.6638   0.5863     H
H       0.5974   0.0763   0.6955     H
H       0.5974   0.9237   0.1955     H
H       0.6017   0.0772   0.8642     H
H       0.6017   0.9228   0.3642     H
H       0.6027   0.4482   0.3411     H
H       0.6027   0.5518   0.8411     H
C       0.6038   0.3562   0.6067     C
C       0.6038   0.6438   0.1067     C
H       0.6048   0.2727   0.9642     H
H       0.6048   0.7273   0.4642     H
N       0.6103   0.3076   0.1593     N
N       0.6103   0.6924   0.6593     N
C       0.6131   0.3526  0.18139     C
C       0.6131   0.6474  0.68139     C
H       0.6136   0.2544    0.551     H
H       0.6136   0.7456    0.051     H
C       0.6161   0.2519   0.9472     C
C       0.6161   0.7481   0.4472     C
N       0.6168   0.2113  0.11701     N
N       0.6168   0.7887  0.61701     N
H       0.6172   0.1574   0.4344     H
H       0.6172   0.8426   0.9344     H
C       0.6189   0.0129   0.6611     C
C       0.6189   0.9871   0.1611     C
H       0.6225   0.4395   0.6549     H
H       0.6225   0.5605   0.1549     H
C       0.6226   0.1719  0.09352     C
C       0.6226   0.8281  0.59352     C
O        0.623   0.4427  0.22862     O
O        0.623   0.5573  0.72862     O
C       0.6234   0.1303  0.33729     C
C       0.6234   0.8697  0.83729     C
C       0.6255    0.435   0.0689     C
C       0.6255    0.565   0.5689     C
C       0.6256   0.0754   0.6793     C
C       0.6256   0.9246   0.1793     C
N       0.6257    0.184  0.35666     N
N       0.6257    0.816  0.85666     N
C       0.6259   0.2686   0.5688     C
C       0.6259   0.7314   0.0688     C
C       0.6303   0.3766  0.08729     C
C       0.6303   0.6234  0.58729     C
C       0.6307   0.4908  0.34754     C
C       0.6307   0.5092  0.84754     C
C       0.6308    0.441  0.83291     C
C       0.6308    0.559  0.33291     C
O        0.633   0.0669   0.0503     O
O        0.633   0.9331   0.5503     O
C       0.6358   0.2822  0.39848     C
C       0.6358   0.7178  0.89848     C
C       0.6377   0.3227   0.4222     C
C       0.6377   0.6773   0.9222     C
C       0.6438   0.0528  0.44997     C
C       0.6438   0.1038   0.8567     C
C       0.6438   0.8962   0.3567     C
C       0.6438   0.9472  0.94997     C
C       0.6474   0.1131  0.43139     C
C       0.6474   0.8869  0.93139     C
H       0.6513   0.0414   0.8226     H
H       0.6513   0.9586   0.3226     H
C       0.6514   0.1942   0.8977     C
C       0.6514   0.8058   0.3977     C
H        0.657    0.037   0.1284     H
H        0.657    0.963   0.6284     H
H       0.6574   0.3828   0.1844     H
H       0.6574   0.6172   0.6844     H
C       0.6607    0.007   0.6394     C
C       0.6607    0.993   0.1394     C
C       0.6625   0.4097   0.6623     C
C       0.6625   0.5903   0.1623     C
H       0.6638   0.0942   0.3363     H
H       0.6638   0.9058   0.8363     H
C       0.6641   0.3206   0.6207     C
C       0.6641   0.6794   0.1207     C
H       0.6676   0.4646    0.698     H
H       0.6676   0.5354    0.198     H
H       0.6693   0.4385   0.3807     H
H       0.6693   0.5615   0.8807     H
H       0.6697   0.1718   0.0841     H
H       0.6697   0.8282   0.5841     H
C       0.6703   0.4849   0.3708     C
C       0.6703   0.5151   0.8708     C
H       0.6718   0.3303   0.8341     H
H       0.6718   0.6697   0.3341     H
C       0.6719   0.3774  0.84352     C
C       0.6719   0.6226  0.34352     C
C       0.6724   0.0843   0.8316     C
C       0.6724   0.9157   0.3316     C
H       0.6735   0.2018   0.1883     H
H       0.6735   0.7982   0.6883     H
H        0.675   0.4638   0.5576     H
H        0.675   0.5362   0.0576     H
C       0.6751   0.2833   0.9317     C
C       0.6751   0.7167   0.4317     C
C       0.6771   0.4961   0.0703     C
C       0.6771   0.5039   0.5703     C
C       0.6773   0.1377   0.6722     C
C       0.6773   0.8623   0.1722     C
C       0.6794   0.1641   0.8707     C
C       0.6794   0.8359   0.3707     C
H       0.6799   0.3168    0.434     H
H       0.6799   0.6832    0.934     H
H       0.6832   0.1799    0.684     H
H       0.6832   0.8201    0.184     H
N        0.684   0.3743  0.10666     N
N        0.684   0.6257  0.60666     N
C       0.6855   0.2307   0.5825     C
C       0.6855   0.7693   0.0825     C
H       0.6888   0.0501   0.9585     H
H       0.6888   0.9499   0.4585     H
C       0.6891   0.0095  0.94593     C
H       0.6891   0.2882   0.3245     H
H       0.6891   0.7118   0.8245     H
C       0.6891   0.9905  0.44593     C
C       0.6903   0.4256   0.6875     C
C       0.6903   0.5744   0.1875     C
N       0.6924   0.1103   0.4093     N
N       0.6924   0.8897   0.9093     N
C       0.6942   0.3486   0.6477     C
C       0.6942   0.6514   0.1477     C
N       0.6955   0.2536  0.90726     N
N       0.6955   0.7464  0.40726     N
H       0.7018   0.3265   0.9383     H
H       0.7018   0.6735   0.4383     H
C       0.7055   0.2569    0.609     C
C       0.7055   0.7431    0.109     C
Ir     0.70719  0.28429  0.13308    Ir
Ir     0.70719  0.71571  0.63308    Ir
N       0.7113   0.3832  0.86701     N
N       0.7113   0.6168  0.36701     N
C       0.7115    0.067   0.6326     C
C       0.7115    0.933   0.1326     C
H       0.7118   0.1891   0.5745     H
H       0.7118   0.8109   0.0745     H
C       0.7132   0.4519  0.88032     C
C       0.7132   0.5481  0.38032     C
Ir     0.71571  0.20719  0.38308    Ir
Ir     0.71571  0.79281  0.88308    Ir
C       0.7167   0.1751   0.1817     C
C       0.7167   0.8249   0.6817     C
C       0.7178   0.1358  0.64848     C
C       0.7178   0.8642  0.14848     C
H       0.7273   0.1048   0.2142     H
H       0.7273   0.8952   0.7142     H
C         0.73   0.4974   0.0901     C
C         0.73   0.5026   0.5901     C
C       0.7307   0.3145   0.3325     C
C       0.7307   0.6855   0.8325     C
C       0.7314   0.1259   0.8188     C
C       0.7314   0.8741   0.3188     C
H        0.734   0.4416   0.4204     H
H        0.734   0.5584   0.9204     H
C       0.7345   0.4369   0.1089     C
C       0.7345   0.5631   0.6089     C
H       0.7357   0.0392   0.0913     H
H       0.7357   0.9608   0.5913     H
C        0.736   0.0141  0.92335     C
C        0.736   0.9859  0.42335     C
C       0.7387   0.0463  0.40526     C
C       0.7387   0.9537  0.90526     C
C       0.7431   0.2055    0.859     C
C       0.7431   0.7945    0.359     C
H       0.7456   0.1136    0.801     H
H       0.7456   0.8864    0.301     H
N       0.7464   0.1955  0.15726     N
N       0.7464   0.8045  0.65726     N
C       0.7481   0.1161   0.1972     C
C       0.7481   0.8839   0.6972     C
C       0.7519   0.3839   0.6972     C
C       0.7519   0.6161   0.1972     C
N       0.7536   0.3045  0.65726     N
N       0.7536   0.6955  0.15726     N
H       0.7544   0.3864    0.301     H
H       0.7544   0.6136    0.801     H
C       0.7569   0.2945    0.359     C
C       0.7569   0.7055    0.859     C
C       0.7613   0.4537  0.90526     C
C       0.7613   0.5463  0.40526     C
C        0.764   0.4859  0.42335     C
C        0.764   0.5141  0.92335     C
H       0.7643   0.4608   0.5913     H
H       0.7643   0.5392   0.0913     H
C       0.7655   0.0631   0.6089     C
C       0.7655   0.9369   0.1089     C
H        0.766   0.0584   0.9204     H
H        0.766   0.9416   0.4204     H
C       0.7686   0.3741   0.3188     C
C       0.7686   0.6259   0.8188     C
C       0.7693   0.1855   0.8325     C
C       0.7693   0.8145   0.3325     C
C         0.77   0.0026   0.5901     C
C         0.77   0.9974   0.0901     C
H       0.7727   0.3952   0.7142     H
H       0.7727   0.6048   0.2142     H
C       0.7822   0.3642  0.14848     C
C       0.7822   0.6358  0.64848     C
C       0.7833   0.3249   0.6817     C
C       0.7833   0.6751   0.1817     C
Ir     0.78429  0.29281  0.88308    Ir
Ir     0.78429  0.70719  0.38308    Ir
C       0.7868   0.0481  0.38032     C
C       0.7868   0.9519  0.88032     C
H       0.7882   0.3109   0.0745     H
H       0.7882   0.6891   0.5745     H
C       0.7885    0.433   0.1326     C
C       0.7885    0.567   0.6326     C
N       0.7887   0.1168  0.36701     N
N       0.7887   0.8832  0.86701     N
Ir     0.79281  0.21571  0.63308    Ir
Ir     0.79281  0.78429  0.13308    Ir
C       0.7945   0.2431    0.109     C
C       0.7945   0.7569    0.609     C
H       0.7982   0.1735   0.4383     H
H       0.7982   0.8265   0.9383     H
N       0.8045   0.2464  0.40726     N
N       0.8045   0.7536  0.90726     N
C       0.8058   0.1514   0.1477     C
C       0.8058   0.8486   0.6477     C
N       0.8076   0.3897   0.9093     N
N       0.8076   0.6103   0.4093     N
C       0.8097   0.0744   0.1875     C
C       0.8097   0.9256   0.6875     C
H       0.8109   0.2118   0.8245     H
C       0.8109   0.4905  0.44593     C
C       0.8109   0.5095  0.94593     C
H       0.8109   0.7882   0.3245     H
H       0.8112   0.4499   0.4585     H
H       0.8112   0.5501   0.9585     H
C       0.8145   0.2693   0.0825     C
C       0.8145   0.7307   0.5825     C
N        0.816   0.1257  0.60666     N
N        0.816   0.8743  0.10666     N
H       0.8168   0.3201    0.184     H
H       0.8168   0.6799    0.684     H
H       0.8201   0.1832    0.934     H
H       0.8201   0.8168    0.434     H
C       0.8206   0.3359   0.3707     C
C       0.8206   0.6641   0.8707     C
C       0.8227   0.3623   0.1722     C
C       0.8227   0.6377   0.6722     C
C       0.8229   0.0039   0.5703     C
C       0.8229   0.9961   0.0703     C
C       0.8249   0.2167   0.4317     C
C       0.8249   0.7833   0.9317     C
H        0.825   0.0362   0.0576     H
H        0.825   0.9638   0.5576     H
H       0.8265   0.2982   0.6883     H
H       0.8265   0.7018   0.1883     H
C       0.8276   0.4157   0.3316     C
C       0.8276   0.5843   0.8316     C
C       0.8281   0.1226  0.34352     C
C       0.8281   0.8774  0.84352     C
H       0.8282   0.1697   0.3341     H
H       0.8282   0.8303   0.8341     H
C       0.8297   0.0151   0.8708     C
C       0.8297   0.9849   0.3708     C
H       0.8303   0.3282   0.5841     H
H       0.8303   0.6718   0.0841     H
H       0.8307   0.0615   0.8807     H
H       0.8307   0.9385   0.3807     H
H       0.8324   0.0354    0.198     H
H       0.8324   0.9646    0.698     H
C       0.8359   0.1794   0.1207     C
C       0.8359   0.8206   0.6207     C
H       0.8362   0.4058   0.8363     H
H       0.8362   0.5942   0.3363     H
C       0.8375   0.0903   0.1623     C
C       0.8375   0.9097   0.6623     C
C       0.8393    0.493   0.1394     C
C       0.8393    0.507   0.6394     C
H       0.8426   0.1172   0.6844     H
H       0.8426   0.8828   0.1844     H
H        0.843    0.463   0.6284     H
H        0.843    0.537   0.1284     H
C       0.8486   0.3058   0.3977     C
C       0.8486   0.6942   0.8977     C
H       0.8487   0.4586   0.3226     H
H       0.8487   0.5414   0.8226     H
C       0.8526   0.3869  0.93139     C
C       0.8526   0.6131  0.43139     C
C       0.8562   0.3962   0.3567     C
C       0.8562   0.4472  0.94997     C
C       0.8562   0.5528  0.44997     C
C       0.8562   0.6038   0.8567     C
C       0.8623   0.1773   0.9222     C
C       0.8623   0.8227   0.4222     C
C       0.8642   0.2178  0.89848     C
C       0.8642   0.7822  0.39848     C
O        0.867   0.4331   0.5503     O
O        0.867   0.5669   0.0503     O
C       0.8692    0.059  0.33291     C
C       0.8692    0.941  0.83291     C
C       0.8693   0.0092  0.84754     C
C       0.8693   0.9908  0.34754     C
C       0.8697   0.1234  0.58729     C
C       0.8697   0.8766  0.08729     C
C       0.8741   0.2314   0.0688     C
C       0.8741   0.7686   0.5688     C
N       0.8743    0.316  0.85666     N
N       0.8743    0.684  0.35666     N
C       0.8744   0.4246   0.1793     C
C       0.8744   0.5754   0.6793     C
C       0.8745    0.065   0.5689     C
C       0.8745    0.935   0.0689     C
C       0.8766   0.3697  0.83729     C
C       0.8766   0.6303  0.33729     C
O        0.877   0.0573  0.72862     O
O        0.877   0.9427  0.22862     O
C       0.8774   0.3281  0.59352     C
C       0.8774   0.6719  0.09352     C
H       0.8775   0.0605   0.1549     H
H       0.8775   0.9395   0.6549     H
C       0.8811   0.4871   0.1611     C
C       0.8811   0.5129   0.6611     C
H       0.8828   0.3426   0.9344     H
H       0.8828   0.6574   0.4344     H
N       0.8832   0.2887  0.61701     N
N       0.8832   0.7113  0.11701     N
C       0.8839   0.2481   0.4472     C
C       0.8839   0.7519   0.9472     C
H       0.8864   0.2456    0.051     H
H       0.8864   0.7544    0.551     H
C       0.8869   0.1474  0.68139     C
C       0.8869   0.8526  0.18139     C
N       0.8897   0.1924   0.6593     N
N       0.8897   0.8076   0.1593     N
H       0.8952   0.2273   0.4642     H
H       0.8952   0.7727   0.9642     H
C       0.8962   0.1438   0.1067     C
C       0.8962   0.8562   0.6067     C
H       0.8973   0.0518   0.8411     H
H       0.8973   0.9482   0.3411     H
H       0.8983   0.4228   0.3642     H
H       0.8983   0.5772   0.8642     H
H       0.9026   0.4237   0.1955     H
H       0.9026   0.5763   0.6955     H
H       0.9058   0.1638   0.5863     H
H       0.9058   0.8362   0.0863     H
C       0.9072   0.4379  0.97445     C
C       0.9072   0.5621  0.47445     C
C       0.9097   0.3375   0.4123     C
C       0.9097   0.6625   0.9123     C
C       0.9102   0.0677  0.30593     C
C       0.9102   0.9323  0.80593     C
O       0.9121   0.4998   0.4897     O
O       0.9121   0.5002   0.9897     O
H       0.9124   0.0661   0.5553     H
H       0.9124   0.9339   0.0553     H
C       0.9157   0.1724   0.0816     C
C       0.9157   0.8276   0.5816     C
O       0.9174   0.0059  0.29202     O
H       0.9174    0.474   0.6648     H
H       0.9174    0.526   0.1648     H
O       0.9174   0.9941  0.79202     O
H       0.9228   0.1017   0.1142     H
H       0.9228   0.8983   0.6142     H
H       0.9237   0.0974   0.9455     H
H       0.9237   0.9026   0.4455     H
C       0.9246   0.1256   0.9293     C
C       0.9246   0.8744   0.4293     C
C       0.9256   0.3097   0.4375     C
C       0.9256   0.6903   0.9375     C
C       0.9323   0.4102  0.55593     C
C       0.9323   0.5898  0.05593     C
C        0.933   0.2115   0.8826     C
C        0.933   0.7885   0.3826     C
O       0.9331    0.133   0.3003     O
O       0.9331    0.867   0.8003     O
H       0.9339   0.4124   0.8053     H
H       0.9339   0.5876   0.3053     H
C        0.935   0.3745   0.8189     C
C        0.935   0.6255   0.3189     C
C       0.9369   0.2655   0.8589     C
C       0.9369   0.7345   0.3589     C
C       0.9379   0.0928  0.72445     C
C       0.9379   0.9072  0.22445     C
H       0.9385   0.3307   0.1307     H
H       0.9385   0.6693   0.6307     H
H       0.9395   0.3775   0.4049     H
H       0.9395   0.6225   0.9049     H
C        0.941   0.3692  0.58291     C
C        0.941   0.6308  0.08291     C
H       0.9416    0.266   0.1704     H
H       0.9416    0.734   0.6704     H
O       0.9427    0.377  0.97862     O
O       0.9427    0.623  0.47862     O
C       0.9472   0.1438  0.69997     C
C       0.9472   0.8562  0.19997     C
H       0.9482   0.3973   0.0911     H
H       0.9482   0.6027   0.5911     H
H       0.9499   0.1888   0.2085     H
H       0.9499   0.8112   0.7085     H
C       0.9519   0.2868  0.63032     C
C       0.9519   0.7132  0.13032     C
C       0.9537   0.2387  0.65526     C
C       0.9537   0.7613  0.15526     C
H       0.9586   0.1513   0.0726     H
H       0.9586   0.8487   0.5726     H
H       0.9608   0.2357   0.3413     H
H       0.9608   0.7643   0.8413     H
H        0.963    0.157   0.3784     H
H        0.963    0.843   0.8784     H
H       0.9638    0.325   0.3076     H
H       0.9638    0.675   0.8076     H
H       0.9646   0.3324    0.448     H
H       0.9646   0.6676    0.948     H
H        0.974   0.0826   0.4148     H
H        0.974   0.9174   0.9148     H
C       0.9849   0.3297   0.1208     C
C       0.9849   0.6703   0.6208     C
C       0.9859    0.236  0.17335     C
C       0.9859    0.764  0.67335     C
C       0.9871   0.1189   0.9111     C
C       0.9871   0.8811   0.4111     C
C       0.9905   0.1891  0.19593     C
C       0.9905   0.8109  0.69593     C
C       0.9908   0.3693  0.09754     C
C       0.9908   0.6307  0.59754     C
C        0.993   0.1607   0.8894     C
C        0.993   0.8393   0.3894     C
O       0.9941   0.4174  0.54202     O
O       0.9941   0.5826  0.04202     O
C       0.9961   0.3229   0.8203     C
C       0.9961   0.6771   0.3203     C
C       0.9974     0.27   0.8401     C
C       0.9974     0.73   0.3401     C
O       0.9998   0.0879   0.2397     O
O       0.9998   0.9121   0.7397     O
