data_I
_chemical_name_common  '/home/zhangsd/repos/MofS-CGCNN/ML/data/SSD/clean_cifs/RANNOM_clean'
_cell_length_a 10.39000
_cell_length_b 11.80300
_cell_length_c 11.93400
_cell_angle_alpha 82.96700
_cell_angle_beta  81.36600
_cell_angle_gamma 87.88400
_space_group_name_H-M_alt      'P 1'


loop_
_space_group_symop_operation_xyz
  'x, y, z' 

loop_
_atom_site_label
_atom_site_fract_x
_atom_site_fract_y
_atom_site_fract_z
_atom_site_type_symbol
O       0.0095   0.4201   0.1514     O
Eu     0.01954  0.76008  0.92468    Eu
O       0.0547   0.9579   0.8617     O
O       0.0783   0.6248   0.0725     O
O       0.1044   0.1477   0.9299     O
P      0.11627  0.50548  0.11598     P
P      0.15264  0.03387  0.89445     P
H       0.1795   0.9778   0.0845     H
O       0.1801   0.5303   0.6719     O
H       0.1827   0.4606   0.6737     H
O       0.1942   0.5137   0.2187     O
H       0.1985   0.4505   0.2553     H
O       0.1993   0.8357   0.0114     O
O       0.1996   0.7413   0.7889     O
H       0.2026   0.4839   0.9277     H
O       0.2027   0.3298   0.0091     O
C       0.2251   0.9542   0.0128     C
C        0.227   0.4483   0.0003     C
H       0.2408   0.7883   0.0529     H
H        0.243    0.041   0.7333     H
H       0.2434   0.3129   0.9459     H
O       0.2559    0.781    0.575     O
O       0.2661    0.058   0.7918     O
P      0.29459   0.7235  0.68571     P
H       0.2962   0.5601   0.4582     H
C       0.3047   0.5694   0.6815     C
H       0.3285   0.5337   0.7543     H
H       0.3474    0.093   0.1197     H
H       0.3584   0.6387   0.9314     H
C       0.3684   0.9763   0.0072     C
C       0.3691   0.4735   0.0002     C
C       0.3781    0.536   0.4752     C
C       0.4057    0.533   0.5866     C
C       0.4088   0.0556   0.0714     C
C       0.4148   0.5825   0.9586     C
H       0.4239   0.3203   0.0713     H
O       0.4334   0.7578   0.7004     O
H       0.4348   0.8675   0.8928     H
H       0.4466   0.8237   0.6713     H
H       0.4539   0.5052   0.3162     H
C        0.454   0.3927    0.042     C
C       0.4607   0.9208   0.9359     C
C       0.4728    0.503   0.3902     C
C       0.5272    0.497   0.6098     C
C       0.5393   0.0792   0.0641     C
C        0.546   0.6073    0.958     C
H       0.5461   0.4948   0.6838     H
H       0.5534   0.1763   0.3287     H
H       0.5652   0.1325   0.1072     H
O       0.5666   0.2422   0.2996     O
H       0.5761   0.6797   0.9287     H
C       0.5852   0.4175   0.0414     C
C       0.5912   0.9444   0.9286     C
C       0.5943    0.467   0.4134     C
C       0.6219    0.464   0.5248     C
C       0.6309   0.5265   0.9998     C
C       0.6316   0.0237   0.9928     C
H       0.6416   0.3613   0.0686     H
H       0.6526    0.907   0.8803     H
H       0.6715   0.4663   0.2457     H
C       0.6953   0.4306   0.3185     C
H       0.7038   0.4399   0.5418     H
P      0.70541   0.2765  0.31429     P
O       0.7339    0.942   0.2082     O
O       0.7441    0.219    0.425     O
H       0.7566   0.6871   0.0541     H
H        0.757    0.959   0.2667     H
H       0.7592   0.2117   0.9471     H
C        0.773   0.5517   0.9997     C
C       0.7749   0.0458   0.9872     C
O       0.7973   0.6702   0.9909     O
H       0.7974   0.5161   0.0723     H
O       0.8004   0.2587   0.2111     O
O       0.8007   0.1643   0.9886     O
H       0.8015   0.5495   0.7447     H
O       0.8058   0.4863   0.7813     O
H       0.8173   0.5394   0.3263     H
O       0.8199   0.4697   0.3281     O
H       0.8205   0.0222   0.9155     H
P      0.84736  0.96613  0.10555     P
P      0.88373  0.49452  0.88402     P
O       0.8956   0.8523   0.0701     O
O       0.9217   0.3752   0.9275     O
O       0.9453   0.0421   0.1383     O
Eu     0.98046  0.23992  0.07532    Eu
O       0.9905   0.5799   0.8486     O
