data_I
_chemical_name_common  '/home/zhangsd/repos/MofS-CGCNN/ML/data/SSD/clean_cifs/RAYMIP_clean'
_cell_length_a 19.43560
_cell_length_b 19.43560
_cell_length_c 27.89300
_cell_angle_alpha 90.00000
_cell_angle_beta  90.00000
_cell_angle_gamma 120.00000
_space_group_name_H-M_alt      'P 1'


loop_
_space_group_symop_operation_xyz
  'x, y, z' 

loop_
_atom_site_label
_atom_site_fract_x
_atom_site_fract_y
_atom_site_fract_z
_atom_site_type_symbol
C          0.0  0.07034      0.0     C
C          0.0  0.07034      0.5     C
H          0.0   0.1182      0.0     H
H          0.0   0.1182      0.5     H
H          0.0   0.6622      0.0     H
H          0.0   0.6622      0.5     H
C          0.0  0.71007      0.0     C
C          0.0  0.71007      0.5     C
C          0.0  0.85303      0.0     C
C          0.0  0.85303      0.5     C
C          0.0  0.92933      0.0     C
C          0.0  0.92933      0.5     C
H       0.0118   0.6371   0.0794     H
H       0.0118   0.6371   0.4206     H
C      0.04525  0.76834  0.03377     C
C      0.04525  0.76834  0.46623     C
C      0.04555  0.83925  0.03314     C
C      0.04555  0.83925  0.46686     C
C      0.06089   0.6779  0.08959     C
C      0.06089   0.6779  0.41041     C
C      0.07034      1.0      0.0     C
C      0.07034      1.0      0.5     C
C      0.07067  0.07067      0.0     C
C      0.07067  0.07067      0.5     C
H       0.0766   0.8786   0.0552     H
H       0.0766   0.8786   0.4448     H
H       0.0843   0.6113   0.1351     H
H       0.0843   0.6113   0.3649     H
C      0.09124  0.75351  0.07022     C
C      0.09124  0.75351  0.42978     C
C      0.10329  0.66284  0.12406     C
C      0.10329  0.66284  0.37594     C
H       0.1182      0.0      0.0     H
H       0.1182      0.0      0.5     H
H       0.1214    0.198   0.0552     H
H       0.1214    0.198   0.4448     H
H       0.1356   0.3184   0.0752     H
H       0.1356   0.3184   0.4248     H
C      0.14697  0.14697      0.0     C
C      0.14697  0.14697      0.5     C
H       0.1597   0.4097   0.1337     H
H       0.1597   0.4097   0.3663     H
C      0.16075   0.2063  0.03314     C
C      0.16075   0.2063  0.46686     C
C      0.16195  0.81337  0.08751     C
C      0.16195  0.81337  0.41249     C
C      0.17297  0.72356  0.14187     C
C      0.17297  0.72356  0.35813     C
H       0.1828   0.8644   0.0752     H
H       0.1828   0.8644   0.4248     H
O      0.18579  0.63933  0.19541     O
O      0.18579  0.63933  0.30459     O
C      0.18663  0.34858  0.08751     C
C      0.18663  0.34858  0.41249     C
H        0.198   0.1214   0.5552     H
H        0.198   0.1214   0.9448     H
C      0.20115  0.40325  0.12256     C
C      0.20115  0.40325  0.37744     C
C       0.2021  0.79885  0.12256     C
C       0.2021  0.79885  0.37744     C
C       0.2063  0.16075  0.53314     C
C       0.2063  0.16075  0.96686     C
C      0.21633  0.70903   0.1806     C
C      0.21633  0.70903   0.3194     C
In     0.21717  0.58118     0.25    In
C      0.23166  0.27691  0.03377     C
C      0.23166  0.27691  0.46623     C
O      0.23286  0.51177   0.1953     O
O      0.23286  0.51177   0.3047     O
C      0.24649  0.33773  0.07022     C
C      0.24649  0.33773  0.42978     C
H         0.25   0.8403   0.1337     H
H         0.25   0.8403   0.3663     H
C      0.27644  0.44941  0.14187     C
C      0.27644  0.44941  0.35813     C
C      0.27691  0.23166  0.53377     C
C      0.27691  0.23166  0.96623     C
O      0.27891  0.76714   0.1953     O
O      0.27891  0.76714   0.3047     O
C      0.28993  0.28993      0.0     C
C      0.28993  0.28993      0.5     C
C      0.29097   0.5073   0.1806     C
C      0.29097   0.5073   0.3194     C
H       0.3184   0.1356   0.5752     H
H       0.3184   0.1356   0.9248     H
C       0.3221  0.38299  0.08959     C
C       0.3221  0.38299  0.41041     C
O      0.33333  0.66666     0.25     O
C      0.33716  0.44045  0.12406     C
C      0.33716  0.44045  0.37594     C
C      0.33773  0.24649  0.57022     C
C      0.33773  0.24649  0.92978     C
H       0.3378   0.3378      0.0     H
H       0.3378   0.3378      0.5     H
C      0.34858  0.18663  0.58751     C
C      0.34858  0.18663  0.91249     C
O      0.36067  0.54646  0.19541     O
O      0.36067  0.54646  0.30459     O
H       0.3629   0.3747   0.0794     H
H       0.3629   0.3747   0.4206     H
In     0.36401  0.78283     0.25    In
H       0.3747   0.3629   0.5794     H
H       0.3747   0.3629   0.9206     H
C      0.38299   0.3221  0.58959     C
C      0.38299   0.3221  0.91041     C
H       0.3887    0.473   0.1351     H
H       0.3887    0.473   0.3649     H
C      0.40325  0.20115  0.62256     C
C      0.40325  0.20115  0.87744     C
H       0.4097   0.1597   0.6337     H
H       0.4097   0.1597   0.8663     H
In     0.41882  0.63599     0.25    In
C      0.44045  0.33716  0.62406     C
C      0.44045  0.33716  0.87594     C
C      0.44941  0.27644  0.64187     C
C      0.44941  0.27644  0.85813     C
O      0.45354  0.81421  0.19541     O
O      0.45354  0.81421  0.30459     O
H        0.473   0.3887   0.6351     H
H        0.473   0.3887   0.8649     H
O      0.48823  0.72109   0.1953     O
O      0.48823  0.72109   0.3047     O
C       0.4927  0.78367   0.1806     C
C       0.4927  0.78367   0.3194     C
C       0.5073  0.29097   0.6806     C
C       0.5073  0.29097   0.8194     C
O      0.51177  0.23286   0.6953     O
O      0.51177  0.23286   0.8047     O
H        0.527   0.9157   0.1351     H
H        0.527   0.9157   0.3649     H
O      0.54646  0.36067  0.69541     O
O      0.54646  0.36067  0.80459     O
C      0.55059  0.82703  0.14187     C
C      0.55059  0.82703  0.35813     C
C      0.55955  0.89671  0.12406     C
C      0.55955  0.89671  0.37594     C
In     0.58118  0.21717     0.75    In
H       0.5903     0.75   0.1337     H
H       0.5903     0.75   0.3663     H
C      0.59675   0.7979  0.12256     C
C      0.59675   0.7979  0.37744     C
H       0.6113   0.0843   0.6351     H
H       0.6113   0.0843   0.8649     H
C      0.61701  0.93911  0.08959     C
C      0.61701  0.93911  0.41041     C
H       0.6253   0.9882   0.0794     H
H       0.6253   0.9882   0.4206     H
In     0.63599  0.41882     0.75    In
H       0.6371   0.0118   0.5794     H
H       0.6371   0.0118   0.9206     H
O      0.63933  0.18579  0.69541     O
O      0.63933  0.18579  0.80459     O
C      0.65142  0.83805  0.08751     C
C      0.65142  0.83805  0.41249     C
H       0.6622      0.0      0.0     H
H       0.6622      0.0      0.5     H
C      0.66227  0.90876  0.07022     C
C      0.66227  0.90876  0.42978     C
C      0.66284  0.10329  0.62406     C
C      0.66284  0.10329  0.87594     C
O      0.66667  0.33334     0.75     O
C       0.6779  0.06089  0.58959     C
C       0.6779  0.06089  0.91041     C
H       0.6816   0.8172   0.0752     H
H       0.6816   0.8172   0.4248     H
C      0.70903  0.21633   0.6806     C
C      0.70903  0.21633   0.8194     C
C      0.71007      0.0      0.0     C
C      0.71007      0.0      0.5     C
O      0.72109  0.48823   0.6953     O
O      0.72109  0.48823   0.8047     O
C      0.72309  0.95475  0.03377     C
C      0.72309  0.95475  0.46623     C
C      0.72356  0.17297  0.64187     C
C      0.72356  0.17297  0.85813     C
H         0.75   0.5903   0.6337     H
H         0.75   0.5903   0.8663     H
C      0.75351  0.09124  0.57022     C
C      0.75351  0.09124  0.92978     C
O      0.76714  0.27891   0.6953     O
O      0.76714  0.27891   0.8047     O
C      0.76834  0.04525  0.53377     C
C      0.76834  0.04525  0.96623     C
In     0.78283  0.36401     0.75    In
C      0.78367   0.4927   0.6806     C
C      0.78367   0.4927   0.8194     C
C       0.7937  0.95445  0.03314     C
C       0.7937  0.95445  0.46686     C
C       0.7979  0.59675  0.62256     C
C       0.7979  0.59675  0.87744     C
C      0.79885   0.2021  0.62256     C
C      0.79885   0.2021  0.87744     C
H        0.802   0.9234   0.0552     H
H        0.802   0.9234   0.4448     H
C      0.81337  0.16195  0.58751     C
C      0.81337  0.16195  0.91249     C
O      0.81421  0.45354  0.69541     O
O      0.81421  0.45354  0.80459     O
H       0.8172   0.6816   0.5752     H
H       0.8172   0.6816   0.9248     H
C      0.82703  0.55059  0.64187     C
C      0.82703  0.55059  0.85813     C
C      0.83805  0.65142  0.58751     C
C      0.83805  0.65142  0.91249     C
C      0.83925  0.04555  0.53314     C
C      0.83925  0.04555  0.96686     C
H       0.8403     0.25   0.6337     H
H       0.8403     0.25   0.8663     H
C      0.85303      0.0      0.0     C
C      0.85303      0.0      0.5     C
H       0.8644   0.1828   0.5752     H
H       0.8644   0.1828   0.9248     H
H       0.8786   0.0766   0.5552     H
H       0.8786   0.0766   0.9448     H
H       0.8818   0.8818      0.0     H
H       0.8818   0.8818      0.5     H
C      0.89671  0.55955  0.62406     C
C      0.89671  0.55955  0.87594     C
C      0.90876  0.66227  0.57022     C
C      0.90876  0.66227  0.92978     C
H       0.9157    0.527   0.6351     H
H       0.9157    0.527   0.8649     H
H       0.9234    0.802   0.5552     H
H       0.9234    0.802   0.9448     H
C      0.92933      0.0      0.0     C
C      0.92933      0.0      0.5     C
C      0.92966  0.92966      0.0     C
C      0.92966  0.92966      0.5     C
C      0.93911  0.61701  0.58959     C
C      0.93911  0.61701  0.91041     C
C      0.95445   0.7937  0.53314     C
C      0.95445   0.7937  0.96686     C
C      0.95475  0.72309  0.53377     C
C      0.95475  0.72309  0.96623     C
H       0.9882   0.6253   0.5794     H
H       0.9882   0.6253   0.9206     H
