data_I
_chemical_name_common  '/home/zhangsd/repos/MofS-CGCNN/ML/data/SSD/clean_cifs/RAYMOV_clean'
_cell_length_a 20.09620
_cell_length_b 20.09620
_cell_length_c 26.91450
_cell_angle_alpha 90.00000
_cell_angle_beta  90.00000
_cell_angle_gamma 120.00000
_space_group_name_H-M_alt      'P 1'


loop_
_space_group_symop_operation_xyz
  'x, y, z' 

loop_
_atom_site_label
_atom_site_fract_x
_atom_site_fract_y
_atom_site_fract_z
_atom_site_type_symbol
C          0.0  0.06898      0.0     C
C          0.0  0.06898      0.5     C
H          0.0   0.1153      0.0     H
H          0.0   0.1153      0.5     H
H          0.0   0.6724      0.0     H
H          0.0   0.6724      0.5     H
C          0.0  0.71868      0.0     C
C          0.0  0.71868      0.5     C
C          0.0  0.85655      0.0     C
C          0.0  0.85655      0.5     C
C          0.0  0.92988      0.0     C
C          0.0  0.92988      0.5     C
H       0.0161    0.647     0.08     H
H       0.0161    0.647     0.42     H
C      0.04501  0.77452  0.03433     C
C      0.04501  0.77452  0.46567     C
C      0.04585  0.84437  0.03343     C
C      0.04585  0.84437  0.46657     C
C      0.06341  0.68666   0.0907     C
C      0.06341  0.68666   0.4093     C
C      0.06898      0.0      0.0     C
C      0.06898      0.0      0.5     C
C      0.07012  0.07012      0.0     C
C      0.07012  0.07012      0.5     C
H       0.0773   0.8832   0.0554     H
H       0.0773   0.8832   0.4446     H
H       0.0858    0.623   0.1393     H
H       0.0858    0.623   0.3607     H
C      0.09198  0.76072  0.07126     C
C      0.09198  0.76072  0.42874     C
C      0.10561  0.67205  0.12605     C
C      0.10561  0.67205  0.37395     C
H       0.1153      0.0      0.0     H
H       0.1153      0.0      0.5     H
H       0.1168   0.1941   0.0554     H
H       0.1168   0.1941   0.4446     H
H       0.1317   0.3127   0.0768     H
H       0.1317   0.3127   0.4232     H
C      0.14345  0.14345      0.0     C
C      0.14345  0.14345      0.5     C
C      0.15563  0.20148  0.03343     C
C      0.15563  0.20148  0.46657     C
H       0.1572   0.4081    0.133     H
H       0.1572   0.4081    0.367     H
C      0.16178   0.8184  0.08836     C
C      0.16178   0.8184  0.41164     C
C      0.17755   0.7311  0.14156     C
C      0.17755   0.7311  0.35844     C
H        0.181   0.8683   0.0768     H
H        0.181   0.8683   0.4232     H
C       0.1816  0.34338  0.08836     C
C       0.1816  0.34338  0.41164     C
O      0.19321  0.64573  0.19355     O
O      0.19321  0.64573  0.30645     O
H       0.1941   0.1168   0.5554     H
H       0.1941   0.1168   0.9446     H
C      0.19712  0.40057  0.12253     C
C      0.19712  0.40057  0.37747     C
C      0.20148  0.15563  0.53343     C
C      0.20148  0.15563  0.96657     C
C      0.20345  0.80288  0.12253     C
C      0.20345  0.80288  0.37747     C
Mn     0.21664  0.58386     0.25    Mn
C      0.22215  0.71372  0.17988     C
C      0.22215  0.71372  0.32012     C
C      0.22548  0.27049  0.03433     C
C      0.22548  0.27049  0.46567     C
O      0.23086  0.51503   0.1935     O
O      0.23086  0.51503   0.3065     O
C      0.23928  0.33126  0.07126     C
C      0.23928  0.33126  0.42874     C
H       0.2509   0.8428    0.133     H
H       0.2509   0.8428    0.367     H
C       0.2689  0.44645  0.14156     C
C       0.2689  0.44645  0.35844     C
C      0.27049  0.22548  0.53433     C
C      0.27049  0.22548  0.96567     C
C      0.28132  0.28132      0.0     C
C      0.28132  0.28132      0.5     C
O      0.28417  0.76914   0.1935     O
O      0.28417  0.76914   0.3065     O
C      0.28628  0.50843  0.17988     C
C      0.28628  0.50843  0.32012     C
H       0.3127   0.1317   0.5768     H
H       0.3127   0.1317   0.9232     H
C      0.31334  0.37675   0.0907     C
C      0.31334  0.37675   0.4093     C
H       0.3276   0.3276      0.0     H
H       0.3276   0.3276      0.5     H
C      0.32795  0.43356  0.12605     C
C      0.32795  0.43356  0.37395     C
C      0.33126  0.23928  0.57126     C
C      0.33126  0.23928  0.92874     C
O      0.33333  0.66666     0.25     O
C      0.34338   0.1816  0.58836     C
C      0.34338   0.1816  0.91164     C
H        0.353   0.3691     0.08     H
H        0.353   0.3691     0.42     H
O      0.35427  0.54748  0.19355     O
O      0.35427  0.54748  0.30645     O
Mn     0.36722  0.78335     0.25    Mn
H       0.3691    0.353     0.58     H
H       0.3691    0.353     0.92     H
C      0.37675  0.31334   0.5907     C
C      0.37675  0.31334   0.9093     C
H        0.377   0.4628   0.1393     H
H        0.377   0.4628   0.3607     H
C      0.40057  0.19712  0.62253     C
C      0.40057  0.19712  0.87747     C
H       0.4081   0.1572    0.633     H
H       0.4081   0.1572    0.867     H
Mn     0.41613  0.63277     0.25    Mn
C      0.43356  0.32795  0.62605     C
C      0.43356  0.32795  0.87395     C
C      0.44645   0.2689  0.64156     C
C      0.44645   0.2689  0.85844     C
O      0.45252  0.80679  0.19355     O
O      0.45252  0.80679  0.30645     O
H       0.4628    0.377   0.6393     H
H       0.4628    0.377   0.8607     H
O      0.48497  0.71583   0.1935     O
O      0.48497  0.71583   0.3065     O
C      0.49157  0.77785  0.17988     C
C      0.49157  0.77785  0.32012     C
C      0.50843  0.28628  0.67988     C
C      0.50843  0.28628  0.82012     C
O      0.51503  0.23086   0.6935     O
O      0.51503  0.23086   0.8065     O
H       0.5372   0.9142   0.1393     H
H       0.5372   0.9142   0.3607     H
O      0.54748  0.35427  0.69355     O
O      0.54748  0.35427  0.80645     O
C      0.55355  0.82245  0.14156     C
C      0.55355  0.82245  0.35844     C
C      0.56644  0.89439  0.12605     C
C      0.56644  0.89439  0.37395     C
Mn     0.58387  0.21665     0.75    Mn
H       0.5919   0.7491    0.133     H
H       0.5919   0.7491    0.367     H
C      0.59943  0.79655  0.12253     C
C      0.59943  0.79655  0.37747     C
H        0.623   0.0858   0.6393     H
H        0.623   0.0858   0.8607     H
C      0.62325  0.93659   0.0907     C
C      0.62325  0.93659   0.4093     C
H       0.6309   0.9839     0.08     H
H       0.6309   0.9839     0.42     H
Mn     0.63278  0.41614     0.75    Mn
O      0.64573  0.19321  0.69355     O
O      0.64573  0.19321  0.80645     O
H        0.647   0.0161     0.58     H
H        0.647   0.0161     0.92     H
C      0.65662  0.83822  0.08836     C
C      0.65662  0.83822  0.41164     C
O      0.66667  0.33334     0.75     O
C      0.66874  0.90802  0.07126     C
C      0.66874  0.90802  0.42874     C
C      0.67205  0.10561  0.62605     C
C      0.67205  0.10561  0.87395     C
H       0.6724     -0.0      0.0     H
H       0.6724     -0.0      0.5     H
C      0.68666  0.06341   0.5907     C
C      0.68666  0.06341   0.9093     C
H       0.6873    0.819   0.0768     H
H       0.6873    0.819   0.4232     H
C      0.71372  0.22215  0.67988     C
C      0.71372  0.22215  0.82012     C
O      0.71583  0.48497   0.6935     O
O      0.71583  0.48497   0.8065     O
C      0.71868      0.0      0.0     C
C      0.71868      0.0      0.5     C
C      0.72951  0.95499  0.03433     C
C      0.72951  0.95499  0.46567     C
C       0.7311  0.17755  0.64156     C
C       0.7311  0.17755  0.85844     C
H       0.7491   0.5919    0.633     H
H       0.7491   0.5919    0.867     H
C      0.76072  0.09198  0.57126     C
C      0.76072  0.09198  0.92874     C
O      0.76914  0.28417   0.6935     O
O      0.76914  0.28417   0.8065     O
C      0.77452  0.04501  0.53433     C
C      0.77452  0.04501  0.96567     C
C      0.77785  0.49157  0.67988     C
C      0.77785  0.49157  0.82012     C
Mn     0.78336  0.36723     0.75    Mn
C      0.79655  0.59943  0.62253     C
C      0.79655  0.59943  0.87747     C
C      0.79852  0.95415  0.03343     C
C      0.79852  0.95415  0.46657     C
C      0.80288  0.20345  0.62253     C
C      0.80288  0.20345  0.87747     C
H       0.8059   0.9227   0.0554     H
H       0.8059   0.9227   0.4446     H
O      0.80679  0.45252  0.69355     O
O      0.80679  0.45252  0.80645     O
C       0.8184  0.16178  0.58836     C
C       0.8184  0.16178  0.91164     C
H        0.819   0.6873   0.5768     H
H        0.819   0.6873   0.9232     H
C      0.82245  0.55355  0.64156     C
C      0.82245  0.55355  0.85844     C
C      0.83822  0.65662  0.58836     C
C      0.83822  0.65662  0.91164     C
H       0.8428   0.2509    0.633     H
H       0.8428   0.2509    0.867     H
C      0.84437  0.04585  0.53343     C
C      0.84437  0.04585  0.96657     C
C      0.85655     -0.0      0.0     C
C      0.85655     -0.0      0.5     C
H       0.8683    0.181   0.5768     H
H       0.8683    0.181   0.9232     H
H       0.8832   0.0773   0.5554     H
H       0.8832   0.0773   0.9446     H
H       0.8847   0.8847      0.0     H
H       0.8847   0.8847      0.5     H
C      0.89439  0.56644  0.62605     C
C      0.89439  0.56644  0.87395     C
C      0.90802  0.66874  0.57126     C
C      0.90802  0.66874  0.92874     C
H       0.9142   0.5372   0.6393     H
H       0.9142   0.5372   0.8607     H
H       0.9227   0.8059   0.5554     H
H       0.9227   0.8059   0.9446     H
C      0.92988      0.0      0.0     C
C      0.92988      0.0      0.5     C
C      0.93102  0.93102      0.0     C
C      0.93102  0.93102      0.5     C
C      0.93659  0.62325   0.5907     C
C      0.93659  0.62325   0.9093     C
C      0.95415  0.79852  0.53343     C
C      0.95415  0.79852  0.96657     C
C      0.95499  0.72951  0.53433     C
C      0.95499  0.72951  0.96567     C
H       0.9839   0.6309     0.58     H
H       0.9839   0.6309     0.92     H
