data_I
_chemical_name_common  '/home/zhangsd/repos/MofS-CGCNN/ML/data/SSD/clean_cifs/RESSAK_clean'
_cell_length_a  8.25300
_cell_length_b 11.25900
_cell_length_c 13.22140
_cell_angle_alpha 107.21000
_cell_angle_beta  108.18600
_cell_angle_gamma 90.00000
_space_group_name_H-M_alt      'P 1'


loop_
_space_group_symop_operation_xyz
  'x, y, z' 

loop_
_atom_site_label
_atom_site_fract_x
_atom_site_fract_y
_atom_site_fract_z
_atom_site_type_symbol
C        0.003    0.465    0.692     C
O      0.00779   0.9464  0.40838     O
H        0.048   0.7178   0.7792     H
H       0.0485   0.9176   0.7678     H
H       0.0734   0.7503   0.4554     H
H       0.0801    0.549   0.4644     H
H       0.0921   0.3125   0.7346     H
H       0.1042   0.5178   0.7296     H
O      0.10659   0.8715  0.20178     O
C       0.1356   0.6959   0.4178     C
C       0.1376   0.5739   0.4226     C
N      0.22028   0.7384  0.36116     N
H       0.2203   0.3943   0.5272     H
C       0.2217   0.4927    0.367     C
H       0.2274   0.1932   0.5288     H
C       0.2302   0.3321   0.4656     C
Ni     0.23603  0.92994  0.37244    Ni
C       0.2368   0.2118   0.4666     C
C      0.23801   0.3625  0.37242     C
N      0.25662   0.1186  0.38144     N
C       0.2597   0.2659    0.284     C
C       0.2675   0.1463   0.2916     C
H       0.2688   0.2822   0.2208     H
H       0.2807   0.0824   0.2322     H
C       0.3019   0.6602    0.307     C
C        0.311    0.535    0.308     C
O      0.34053   0.9623  0.54246     O
H       0.3481   0.8019   0.6362     H
H       0.3575   0.6875   0.2654     H
H       0.3746   0.4822   0.2704     H
H       0.4368   0.7069    0.774     H
C       0.4465   0.8356   0.6972     C
C      0.49001   0.9922  0.60662     C
C        0.498   0.7801   0.7814     C
C      0.53943   0.9396  0.70346     C
O      0.59941   0.0536  0.59162     O
H       0.6157    0.451   0.5356     H
H        0.618   0.2497   0.5446     H
C       0.6346   0.8301   0.8736     C
H       0.6628   0.2931    0.226     H
H        0.667   0.7918   0.9294     H
C      0.67807    0.999  0.80174     C
H       0.6931   0.6057   0.4728     H
H       0.6986   0.8068   0.4712     H
O      0.70763   0.2173  0.86866     O
H       0.7119   0.1981   0.3638     H
C        0.715   0.4261   0.5774     C
C       0.7166   0.2199   0.2186     C
C       0.7178   0.3041   0.5822     C
C       0.7279   0.9401   0.8854     C
H       0.7376   0.2082   0.0706     H
C       0.7493   0.1644   0.3028     C
C        0.761   0.1699   0.1264     C
C       0.7646   0.6679   0.5344     C
C       0.7702   0.7882   0.5334     C
C       0.7716    0.125   0.8232     C
O      0.79807   0.0377  0.45754     O
C      0.83597   0.0604  0.29654     C
O      0.83897   0.7827  0.13134     O
C       0.8425   0.0599   0.1146     C
C       0.8547   0.5073    0.633     C
N      0.85912   0.2616  0.63884     N
Ni     0.86359  0.07006  0.62756    Ni
C      0.86559   0.6375  0.62758     C
N      0.87518   0.8814  0.61856     N
C      0.87633    0.001  0.19826     C
C      0.88339   0.0078  0.39338     C
O      0.90481   0.1285  0.79822     O
S       0.9199      1.0      1.0     S
C       0.9484    0.875   0.1768     C
C       0.9757   0.7341    0.716     C
C       0.9759   0.8537   0.7084     C
C       0.9949   0.3398    0.693     C
