data_I
_chemical_name_common  '/home/zhangsd/repos/MofS-CGCNN/ML/data/SSD/clean_cifs/REYPIW_clean'
_cell_length_a 11.45810
_cell_length_b 11.68190
_cell_length_c 11.86960
_cell_angle_alpha 64.13200
_cell_angle_beta  81.20200
_cell_angle_gamma 72.66300
_space_group_name_H-M_alt      'P 1'


loop_
_space_group_symop_operation_xyz
  'x, y, z' 

loop_
_atom_site_label
_atom_site_fract_x
_atom_site_fract_y
_atom_site_fract_z
_atom_site_type_symbol
Zn         0.0      0.0      0.0    Zn
Zn         0.0      0.0      0.5    Zn
Zn         0.0      0.5      0.5    Zn
N       0.0032    0.676   0.3495     N
N       0.0093   0.8463   0.1775     N
C       0.0196   0.1113   0.7298     C
C       0.0233   0.2205   0.6195     C
N       0.0234   0.7171   0.2265     N
C       0.0396   0.9668   0.7666     C
O       0.0436   0.9222   0.6883     O
O       0.0437   0.3672   0.4115     O
C       0.0515   0.2476   0.4839     C
O       0.0521   0.8957   0.8835     O
O       0.0836   0.1549   0.4496     O
H       0.1589   0.1863   0.9684     H
H       0.1636   0.7238   0.6338     H
N       0.1732   0.8758   0.4749     N
N       0.1887   0.9986   0.0102     N
N       0.2004   0.4559   0.5172     N
H       0.2084   0.3722   0.6998     H
C        0.216   0.7567   0.5669     C
H       0.2202   0.0007    0.312     H
C       0.2205   0.1087   0.9848     C
H       0.2338   0.5298   0.3363     H
C       0.2492   0.9194   0.3777     C
C       0.2558   0.3842   0.6266     C
H       0.2596     0.81   0.0543     H
C       0.2709   0.4769   0.4132     C
C       0.2797   0.8883   0.0345     C
C       0.3343   0.6804    0.567     C
C       0.3391   0.1134   0.9817     C
H       0.3561   0.1923   0.9653     H
H       0.3599   0.5981   0.6326     H
C       0.3687   0.8494   0.3702     C
C       0.3812   0.3264   0.6366     C
C       0.3963   0.4239   0.4139     C
C       0.4008   0.8848   0.0316     C
C       0.4146   0.7276   0.4686     C
H       0.4163   0.2771   0.7148     H
H       0.4181   0.8829   0.3004     H
C       0.4344   0.9994   0.0033     C
H       0.4417   0.4419   0.3391     H
C       0.4533   0.3437   0.5275     C
H       0.4604   0.8056   0.0486     H
H       0.5396   0.1944   0.9514     H
C       0.5467   0.6563   0.4725     C
H       0.5583   0.5581   0.6609     H
C       0.5656   0.0006   0.9967     C
H       0.5819   0.1171   0.6996     H
H       0.5837   0.7229   0.2852     H
C       0.5854   0.2724   0.5314     C
C       0.5992   0.1152   0.9684     C
C       0.6037   0.5761   0.5861     C
C       0.6188   0.6736   0.3634     C
C       0.6313   0.1506   0.6298     C
H       0.6401   0.4019   0.3674     H
H       0.6439   0.8077   0.0347     H
C       0.6609   0.8866   0.0183     C
C       0.6657   0.3196    0.433     C
C       0.7203   0.1117   0.9655     C
C       0.7291   0.5231   0.5868     C
H       0.7404     0.19   0.9457     H
C       0.7442   0.6158   0.3734     C
C       0.7508   0.0806   0.6223     C
H       0.7662   0.4702   0.6637     H
C       0.7795   0.8913   0.0152     C
H       0.7798   0.9993    0.688     H
C        0.784   0.2433   0.4331     C
H       0.7916   0.6278   0.3002     H
N       0.7996   0.5441   0.4828     N
N       0.8113   0.0014   0.9898     N
N       0.8268   0.1242   0.5251     N
H       0.8364   0.2762   0.3662     H
H       0.8411   0.8137   0.0316     H
O       0.9164   0.8451   0.5504     O
O       0.9479   0.1043   0.1165     O
C       0.9485   0.7524   0.5161     C
O       0.9563   0.6328   0.5885     O
O       0.9564   0.0778   0.3117     O
C       0.9604   0.0332   0.2334     C
N       0.9766   0.2829   0.7735     N
C       0.9767   0.7795   0.3805     C
C       0.9804   0.8887   0.2702     C
N       0.9907   0.1537   0.8225     N
N       0.9968    0.324   0.6505     N
