data_I
_chemical_name_common  '/home/zhangsd/repos/MofS-CGCNN/ML/data/SSD/clean_cifs/RICHIV_clean'
_cell_length_a  9.87850
_cell_length_b 11.19860
_cell_length_c 14.74560
_cell_angle_alpha 93.91900
_cell_angle_beta  97.40900
_cell_angle_gamma 104.51700
_space_group_name_H-M_alt      'P 1'


loop_
_space_group_symop_operation_xyz
  'x, y, z' 

loop_
_atom_site_label
_atom_site_fract_x
_atom_site_fract_y
_atom_site_fract_z
_atom_site_type_symbol
C       0.0052   0.6431   0.1068     C
C       0.0079   0.7127   0.2012     C
O       0.0154   0.6022   0.3349     O
H        0.018    0.702   0.0613     H
H       0.0501   0.8622   0.9324     H
H       0.0547   0.2325   0.8089     H
C       0.0551   0.3772   0.7336     C
O       0.0589   0.4123   0.4649     O
H       0.0865   0.4157   0.9115     H
H       0.0918   0.2375   0.3611     H
H       0.1046   0.5124   0.1517     H
H       0.1138   0.0686   0.9241     H
H       0.1148   0.5322   0.0481     H
C       0.1197   0.5744   0.1086     C
O        0.127   0.6893   0.7476     O
H        0.136   0.8897   0.8072     H
C       0.1513   0.8985   0.9384     C
C       0.1557   0.7965   0.2364     C
H       0.1589   0.8284   0.2997     H
C       0.1659   0.3673   0.4716     C
H       0.1677   0.0532    0.026     H
H        0.173   0.8666   0.2004     H
La     0.17582  0.57847  0.61474    La
C       0.1813   0.7294   0.8289     C
C       0.1821   0.0381   0.9628     C
H       0.1826   0.2527   0.2045     H
C       0.1853   0.2875   0.3907     C
O       0.1868   0.4305   0.7514     O
H       0.1873   0.4253   0.3027     H
H       0.1965   0.8632   0.9883     H
C       0.1991    0.866   0.8555     C
H       0.2117    0.073    0.301     H
O       0.2247   0.6643   0.8864     O
H       0.2305   0.1427   0.4556     H
C       0.2501   0.3743   0.3214     C
O       0.2571   0.3993   0.5431     O
C        0.266    0.665   0.1372     C
H       0.2684   0.6717   0.2769     H
C       0.2733   0.3012   0.2373     C
C       0.2744   0.7313   0.2319     C
C       0.2763   0.2003   0.4157     C
H       0.2765   0.7279   0.0936     H
C        0.301   0.1276   0.3311     C
O       0.3085   0.3126   0.9267     O
C       0.3158   0.1059   0.9537     C
H       0.3179   0.3582   0.1966     H
H       0.3329   0.1128   0.8185     H
H       0.3397    0.429    0.351     H
C       0.3428   0.9372   0.8431     C
H        0.354   0.9229   0.7792     H
C       0.3556    0.245   0.9807     C
H       0.3637   0.0766   0.3499     H
H       0.3652   0.7922   0.2477     H
H       0.3664   0.1625   0.2069     H
C       0.3664   0.2145   0.2631     C
H       0.3668    0.248   0.4495     H
C       0.3736   0.0755   0.8691     C
H       0.3753   0.0775   0.0015     H
C        0.381   0.5998   0.1302     C
La     0.38197   0.5248  0.88245    La
O       0.3856   0.5441   0.0525     O
O       0.4108   0.7515   0.6377     O
H       0.4121   0.9057     0.88     H
O       0.4211   0.6234    0.739     O
O        0.437   0.2844   0.0546     O
O       0.4694   0.5973   0.1982     O
H       0.4752   0.1113   0.8788     H
C       0.4805   0.7165   0.7011     C
C       0.5195   0.2835   0.2989     C
H       0.5248   0.8887   0.1212     H
O       0.5306   0.4027   0.8018     O
O        0.563   0.7156   0.9454     O
O       0.5789   0.3766    0.261     O
H       0.5879   0.0943     0.12     H
O       0.5892   0.2485   0.3623     O
O       0.6144   0.4559   0.9475     O
La     0.61803   0.4752  0.11755    La
C        0.619   0.4002   0.8698     C
H       0.6247   0.9225   0.9985     H
C       0.6264   0.9245   0.1309     C
H       0.6332    0.752   0.5505     H
C       0.6336   0.7855   0.7369     C
H       0.6336   0.8375   0.7931     H
H       0.6348   0.2078   0.7523     H
H       0.6363   0.9234   0.6501     H
C       0.6444    0.755   0.0193     C
H        0.646   0.0771   0.2208     H
C       0.6572   0.0628   0.1569     C
H       0.6603    0.571    0.649     H
H       0.6671   0.8872   0.1815     H
H       0.6821   0.6418   0.8034     H
C       0.6842   0.8941   0.0463     C
O       0.6915   0.6874   0.0733     O
C        0.699   0.8724   0.6689     C
H       0.7235   0.2721   0.9064     H
C       0.7237   0.7997   0.5843     C
C       0.7256   0.2687   0.7681     C
C       0.7267   0.6988   0.7627     C
H       0.7316   0.3283   0.7231     H
C        0.734    0.335   0.8628     C
O       0.7429   0.6007   0.4569     O
C       0.7499   0.6257   0.6786     C
H       0.7695   0.8573   0.5444     H
O       0.7753   0.3357   0.1136     O
H       0.7883    0.927    0.699     H
C       0.8009    0.134   0.1445     C
H       0.8035   0.1368   0.0117     H
H       0.8127   0.5747   0.6973     H
O       0.8132   0.5695   0.2486     O
C       0.8147   0.7125   0.6093     C
H       0.8174   0.7473   0.7955     H
C       0.8179   0.9619   0.0372     C
C       0.8187   0.2706   0.1711     C
La     0.82418  0.42153  0.38526    La
H        0.827   0.1334   0.7996     H
H       0.8323   0.9468    0.974     H
C       0.8341   0.6327   0.5284     C
H       0.8411   0.1716   0.7003     H
C       0.8443   0.2035   0.7636     C
C       0.8487   0.1015   0.0616     C
H        0.864   0.1103   0.1928     H
O        0.873   0.3107   0.2524     O
C       0.8803   0.4256   0.8914     C
H       0.8852   0.4678   0.9519     H
H       0.8862   0.9314   0.0759     H
H       0.8954   0.4876   0.8483     H
H       0.9082   0.7625   0.6389     H
H       0.9135   0.5843   0.0885     H
O       0.9411   0.5877   0.5351     O
C       0.9449   0.6228   0.2664     C
H       0.9453   0.7675   0.1911     H
H       0.9499   0.1378   0.0676     H
H        0.982    0.298   0.9387     H
O       0.9846   0.3978   0.6651     O
C       0.9921   0.2873   0.7988     C
C       0.9948   0.3569   0.8932     C
