data_I
_chemical_name_common  '/home/zhangsd/repos/MofS-CGCNN/ML/data/SSD/clean_cifs/ROCZAM_clean'
_cell_length_a  9.61500
_cell_length_b 21.12200
_cell_length_c 13.15200
_cell_angle_alpha 90.00000
_cell_angle_beta  91.12600
_cell_angle_gamma 90.00000
_space_group_name_H-M_alt      'P 1'


loop_
_space_group_symop_operation_xyz
  'x, y, z' 

loop_
_atom_site_label
_atom_site_fract_x
_atom_site_fract_y
_atom_site_fract_z
_atom_site_type_symbol
Cd         0.0      0.0      0.0    Cd
Cd         0.0      0.5      0.5    Cd
H       0.0023   0.7324   0.2749     H
H       0.0023   0.7676   0.7749     H
H       0.0026   0.6737    0.686     H
H       0.0026   0.8263    0.186     H
C       0.0394     0.71   0.6571     C
C       0.0394     0.79   0.1571     C
C       0.0414   0.7334   0.2108     C
C       0.0414   0.7666   0.7108     C
O        0.088   0.5969   0.5497     O
O        0.088   0.9031   0.0497     O
C       0.0915   0.6478    0.501     C
C       0.0915   0.8522    0.001     C
C       0.0921   0.7083   0.5615     C
C       0.0921   0.7917   0.0615     C
N        0.097   0.6803   0.1742     N
N        0.097   0.8197   0.6742     N
Cd     0.10259  0.58969  0.27244    Cd
Cd     0.10259  0.91031  0.77244    Cd
O       0.1027   0.6545   0.4073     O
O       0.1027   0.8455   0.9073     O
N       0.1246   0.0037   0.8569     N
N       0.1246   0.4963   0.3569     N
O       0.1322   0.0884   0.2362     O
O       0.1322   0.4116   0.7362     O
C       0.1452   0.7373   0.0229     C
C       0.1452   0.7627   0.5229     C
C       0.1487   0.6827   0.0819     C
C       0.1487   0.8173   0.5819     C
O       0.1733   0.0512   0.0829     O
O       0.1733   0.4488   0.5829     O
H       0.1791   0.7366   0.9572     H
H       0.1791   0.7634   0.4572     H
H       0.1889   0.6464   0.0554     H
H       0.1889   0.8536   0.5554     H
N       0.1982   0.0459   0.8363     N
N       0.1982   0.4541   0.3363     N
C       0.2075   0.0733   0.1656     C
C       0.2075   0.4267   0.6656     C
N       0.2637   0.0881    0.814     N
N       0.2637   0.4119    0.314     N
H       0.3463   0.5739   0.4331     H
H       0.3463   0.9261   0.9331     H
N       0.3523   0.5952   0.2888     N
N       0.3523   0.9048   0.7888     N
H       0.3608   0.1091   0.3283     H
H       0.3608   0.3909   0.8283     H
C       0.3621   0.0834    0.181     C
C       0.3621   0.4166    0.681     C
H       0.4046   0.6176     0.15     H
H       0.4046   0.8824     0.65     H
C       0.4062   0.5798   0.3792     C
C       0.4062   0.9202   0.8792     C
C       0.4187   0.1009    0.274     C
C       0.4187   0.3991    0.774     C
H       0.4215   0.0595     0.04     H
H       0.4215   0.4405     0.54     H
C       0.4406   0.6061   0.2135     C
C       0.4406   0.8939   0.7135     C
C       0.4545   0.0722   0.1037     C
C       0.4545   0.4278   0.6037     C
C       0.5455   0.5722   0.3963     C
C       0.5455   0.9278   0.8963     C
C       0.5594   0.1061   0.2865     C
C       0.5594   0.3939   0.7865     C
H       0.5785   0.5595     0.46     H
H       0.5785   0.9405     0.96     H
C       0.5813   0.6009    0.226     C
C       0.5813   0.8991    0.726     C
C       0.5938   0.0798   0.1208     C
C       0.5938   0.4202   0.6208     C
H       0.5954   0.1176     0.35     H
H       0.5954   0.3824     0.85     H
C       0.6379   0.5834    0.319     C
C       0.6379   0.9166    0.819     C
H       0.6392   0.6091   0.1717     H
H       0.6392   0.8909   0.6717     H
N       0.6477   0.0952   0.2112     N
N       0.6477   0.4048   0.7112     N
H       0.6537   0.0739   0.0669     H
H       0.6537   0.4261   0.5669     H
N       0.7363   0.5881    0.686     N
N       0.7363   0.9119    0.186     N
C       0.7925   0.5733   0.3344     C
C       0.7925   0.9267   0.8344     C
N       0.8018   0.5459   0.6637     N
N       0.8018   0.9541   0.1637     N
H       0.8111   0.1464   0.4446     H
H       0.8111   0.3536   0.9446     H
H       0.8209   0.2366   0.5428     H
H       0.8209   0.2634   0.0428     H
O       0.8267   0.5512   0.4171     O
O       0.8267   0.9488   0.9171     O
C       0.8513   0.1827   0.4181     C
C       0.8513   0.3173   0.9181     C
C       0.8548   0.2373   0.4771     C
C       0.8548   0.2627   0.9771     C
O       0.8678   0.5884   0.2638     O
O       0.8678   0.9116   0.7638     O
N       0.8754   0.5037   0.6431     N
N       0.8754   0.9963   0.1431     N
O       0.8973   0.1545   0.0927     O
O       0.8973   0.3455   0.5927     O
Cd     0.89741  0.08969  0.22756    Cd
Cd     0.89741  0.41031  0.72756    Cd
N        0.903   0.1803   0.3258     N
N        0.903   0.3197   0.8258     N
C       0.9079   0.2083   0.9385     C
C       0.9079   0.2917   0.4385     C
C       0.9085   0.1478    0.999     C
C       0.9085   0.3522    0.499     C
O        0.912   0.0969   0.9503     O
O        0.912   0.4031   0.4503     O
C       0.9586   0.2334   0.2892     C
C       0.9586   0.2666   0.7892     C
C       0.9606     0.21   0.8429     C
C       0.9606     0.29   0.3429     C
H       0.9974   0.1737    0.814     H
H       0.9974   0.3263    0.314     H
H       0.9977   0.2324   0.2251     H
H       0.9977   0.2676   0.7251     H
