data_I
_chemical_name_common  '/home/zhangsd/repos/MofS-CGCNN/ML/data/SSD/clean_cifs/ROQDIM02_clean'
_cell_length_a 12.85500
_cell_length_b 12.85500
_cell_length_c 12.85500
_cell_angle_alpha 90.00000
_cell_angle_beta  90.00000
_cell_angle_gamma 90.00000
_space_group_name_H-M_alt      'P 1'


loop_
_space_group_symop_operation_xyz
  'x, y, z' 

loop_
_atom_site_label
_atom_site_fract_x
_atom_site_fract_y
_atom_site_fract_z
_atom_site_type_symbol
Na         0.0      0.0      0.0    Na
Fe         0.0      0.0      0.5    Fe
Fe         0.0      0.5      0.0    Fe
Na         0.0      0.5      0.5    Na
N      0.01761  0.52864   0.3073     N
N      0.01761  0.97136   0.8073     N
N      0.01944   0.0352  0.27441     N
N      0.01944   0.4648  0.77441     N
N      0.02864   0.1927  0.98239     N
N      0.02864   0.3073  0.48239     N
N       0.0352  0.22559  0.51944     N
N       0.0352  0.27441  0.01944     N
N      0.04421  0.14305  0.56083     N
N      0.04421  0.35695  0.06083     N
N      0.06083  0.04421  0.35695     N
N      0.06083  0.45579  0.85695     N
N      0.14305  0.56083  0.04421     N
N      0.14305  0.93917  0.54421     N
N       0.1927  0.51761  0.52864     N
N       0.1927  0.98239  0.02864     N
N      0.22559  0.51944   0.0352     N
N      0.22559  0.98056   0.5352     N
N      0.27441  0.01944   0.0352     N
N      0.27441  0.48056   0.5352     N
N       0.3073  0.01761  0.52864     N
N       0.3073  0.48239  0.02864     N
N      0.35695  0.06083  0.04421     N
N      0.35695  0.43917  0.54421     N
N      0.43917  0.54421  0.35695     N
N      0.43917  0.95579  0.85695     N
N      0.45579  0.64305  0.56083     N
N      0.45579  0.85695  0.06083     N
N       0.4648  0.72559  0.51944     N
N       0.4648  0.77441  0.01944     N
N      0.47136   0.6927  0.98239     N
N      0.47136   0.8073  0.48239     N
N      0.48056   0.5352  0.27441     N
N      0.48056   0.9648  0.77441     N
N      0.48239  0.02864   0.3073     N
N      0.48239  0.47136   0.8073     N
Fe         0.5      0.0      0.0    Fe
Na         0.5      0.0      0.5    Na
Na         0.5      0.5      0.0    Na
Fe         0.5      0.5      0.5    Fe
N      0.51761  0.52864   0.1927     N
N      0.51761  0.97136   0.6927     N
N      0.51944   0.0352  0.22559     N
N      0.51944   0.4648  0.72559     N
N      0.52864   0.1927  0.51761     N
N      0.52864   0.3073  0.01761     N
N       0.5352  0.22559  0.98056     N
N       0.5352  0.27441  0.48056     N
N      0.54421  0.14305  0.93917     N
N      0.54421  0.35695  0.43917     N
N      0.56083  0.04421  0.14305     N
N      0.56083  0.45579  0.64305     N
N      0.64305  0.56083  0.45579     N
N      0.64305  0.93917  0.95579     N
N       0.6927  0.51761  0.97136     N
N       0.6927  0.98239  0.47136     N
N      0.72559  0.51944   0.4648     N
N      0.72559  0.98056   0.9648     N
N      0.77441  0.01944   0.4648     N
N      0.77441  0.48056   0.9648     N
N       0.8073  0.01761  0.97136     N
N       0.8073  0.48239  0.47136     N
N      0.85695  0.06083  0.45579     N
N      0.85695  0.43917  0.95579     N
N      0.93917  0.54421  0.14305     N
N      0.93917  0.95579  0.64305     N
N      0.95579  0.64305  0.93917     N
N      0.95579  0.85695  0.43917     N
N       0.9648  0.72559  0.98056     N
N       0.9648  0.77441  0.48056     N
N      0.97136   0.6927  0.51761     N
N      0.97136   0.8073  0.01761     N
N      0.98056   0.5352  0.22559     N
N      0.98056   0.9648  0.72559     N
N      0.98239  0.02864   0.1927     N
N      0.98239  0.47136   0.6927     N
