data_I
_chemical_name_common  '/home/zhangsd/repos/MofS-CGCNN/ML/data/SSD/clean_cifs/ROQDIM_clean'
_cell_length_a 12.79560
_cell_length_b 12.79560
_cell_length_c 12.79560
_cell_angle_alpha 90.00000
_cell_angle_beta  90.00000
_cell_angle_gamma 90.00000
_space_group_name_H-M_alt      'P 1'


loop_
_space_group_symop_operation_xyz
  'x, y, z' 

loop_
_atom_site_label
_atom_site_fract_x
_atom_site_fract_y
_atom_site_fract_z
_atom_site_type_symbol
Na         0.0      0.0      0.0    Na
Fe         0.0      0.0      0.5    Fe
Fe         0.0      0.5      0.0    Fe
Na         0.0      0.5      0.5    Na
N      0.01789  0.52978  0.30774     N
N      0.01789  0.97022  0.80774     N
N      0.02034  0.03621  0.27422     N
N      0.02034  0.46379  0.77422     N
N      0.02978  0.19226  0.98211     N
N      0.02978  0.30774  0.48211     N
N      0.03621  0.22578  0.52034     N
N      0.03621  0.27422  0.02034     N
N      0.04506  0.14284  0.56266     N
N      0.04506  0.35716  0.06266     N
N      0.06266  0.04506  0.35716     N
N      0.06266  0.45494  0.85716     N
N      0.14284  0.56266  0.04506     N
N      0.14284  0.93734  0.54506     N
N      0.19226  0.51789  0.52978     N
N      0.19226  0.98211  0.02978     N
N      0.22578  0.52034  0.03621     N
N      0.22578  0.97966  0.53621     N
N      0.27422  0.02034  0.03621     N
N      0.27422  0.47966  0.53621     N
N      0.30774  0.01789  0.52978     N
N      0.30774  0.48211  0.02978     N
N      0.35716  0.06266  0.04506     N
N      0.35716  0.43734  0.54506     N
N      0.43734  0.54506  0.35716     N
N      0.43734  0.95494  0.85716     N
N      0.45494  0.64284  0.56266     N
N      0.45494  0.85716  0.06266     N
N      0.46379  0.72578  0.52034     N
N      0.46379  0.77422  0.02034     N
N      0.47022  0.69226  0.98211     N
N      0.47022  0.80774  0.48211     N
N      0.47966  0.53621  0.27422     N
N      0.47966  0.96379  0.77422     N
N      0.48211  0.02978  0.30774     N
N      0.48211  0.47022  0.80774     N
Fe         0.5      0.0      0.0    Fe
Na         0.5      0.0      0.5    Na
Na         0.5      0.5      0.0    Na
Fe         0.5      0.5      0.5    Fe
N      0.51789  0.52978  0.19226     N
N      0.51789  0.97022  0.69226     N
N      0.52034  0.03621  0.22578     N
N      0.52034  0.46379  0.72578     N
N      0.52978  0.19226  0.51789     N
N      0.52978  0.30774  0.01789     N
N      0.53621  0.22578  0.97966     N
N      0.53621  0.27422  0.47966     N
N      0.54506  0.14284  0.93734     N
N      0.54506  0.35716  0.43734     N
N      0.56266  0.04506  0.14284     N
N      0.56266  0.45494  0.64284     N
N      0.64284  0.56266  0.45494     N
N      0.64284  0.93734  0.95494     N
N      0.69226  0.51789  0.97022     N
N      0.69226  0.98211  0.47022     N
N      0.72578  0.52034  0.46379     N
N      0.72578  0.97966  0.96379     N
N      0.77422  0.02034  0.46379     N
N      0.77422  0.47966  0.96379     N
N      0.80774  0.01789  0.97022     N
N      0.80774  0.48211  0.47022     N
N      0.85716  0.06266  0.45494     N
N      0.85716  0.43734  0.95494     N
N      0.93734  0.54506  0.14284     N
N      0.93734  0.95494  0.64284     N
N      0.95494  0.64284  0.93734     N
N      0.95494  0.85716  0.43734     N
N      0.96379  0.72578  0.97966     N
N      0.96379  0.77422  0.47966     N
N      0.97022  0.69226  0.51789     N
N      0.97022  0.80774  0.01789     N
N      0.97966  0.53621  0.22578     N
N      0.97966  0.96379  0.72578     N
N      0.98211  0.02978  0.19226     N
N      0.98211  0.47022  0.69226     N
