data_I
_chemical_name_common  '/home/zhangsd/repos/MofS-CGCNN/ML/data/SSD/clean_cifs/ROQFUA_clean'
_cell_length_a 13.10260
_cell_length_b 13.10260
_cell_length_c 13.10260
_cell_angle_alpha 90.00000
_cell_angle_beta  90.00000
_cell_angle_gamma 90.00000
_space_group_name_H-M_alt      'P 1'


loop_
_space_group_symop_operation_xyz
  'x, y, z' 

loop_
_atom_site_label
_atom_site_fract_x
_atom_site_fract_y
_atom_site_fract_z
_atom_site_type_symbol
K          0.0      0.0      0.0     K
Fe         0.0      0.0      0.5    Fe
Fe         0.0      0.5      0.0    Fe
K          0.0      0.5      0.5     K
N      0.02099  0.04137  0.28471     N
N      0.02099  0.45863  0.78471     N
N      0.02178  0.53809  0.29281     N
N      0.02178  0.96191  0.79281     N
N      0.03809  0.20719  0.97822     N
N      0.03809  0.29281  0.47822     N
N      0.04137  0.21529  0.52099     N
N      0.04137  0.28471  0.02099     N
N      0.04618   0.1366    0.567     N
N      0.04618   0.3634    0.067     N
N        0.067  0.04618   0.3634     N
N        0.067  0.45382   0.8634     N
N       0.1366    0.567  0.04618     N
N       0.1366    0.933  0.54618     N
N      0.20719  0.52178  0.53809     N
N      0.20719  0.97822  0.03809     N
N      0.21529  0.52099  0.04137     N
N      0.21529  0.97901  0.54137     N
N      0.28471  0.02099  0.04137     N
N      0.28471  0.47901  0.54137     N
N      0.29281  0.02178  0.53809     N
N      0.29281  0.47822  0.03809     N
N       0.3634    0.067  0.04618     N
N       0.3634    0.433  0.54618     N
N        0.433  0.54618   0.3634     N
N        0.433  0.95382   0.8634     N
N      0.45382   0.6366    0.567     N
N      0.45382   0.8634    0.067     N
N      0.45863  0.71529  0.52099     N
N      0.45863  0.78471  0.02099     N
N      0.46191  0.70719  0.97822     N
N      0.46191  0.79281  0.47822     N
N      0.47822  0.03809  0.29281     N
N      0.47822  0.46191  0.79281     N
N      0.47901  0.54137  0.28471     N
N      0.47901  0.95863  0.78471     N
Fe         0.5      0.0      0.0    Fe
K          0.5      0.0      0.5     K
K          0.5      0.5      0.0     K
Fe         0.5      0.5      0.5    Fe
N      0.52099  0.04137  0.21529     N
N      0.52099  0.45863  0.71529     N
N      0.52178  0.53809  0.20719     N
N      0.52178  0.96191  0.70719     N
N      0.53809  0.20719  0.52178     N
N      0.53809  0.29281  0.02178     N
N      0.54137  0.21529  0.97901     N
N      0.54137  0.28471  0.47901     N
N      0.54618   0.1366    0.933     N
N      0.54618   0.3634    0.433     N
N        0.567  0.04618   0.1366     N
N        0.567  0.45382   0.6366     N
N       0.6366    0.567  0.45382     N
N       0.6366    0.933  0.95382     N
N      0.70719  0.52178  0.96191     N
N      0.70719  0.97822  0.46191     N
N      0.71529  0.52099  0.45863     N
N      0.71529  0.97901  0.95863     N
N      0.78471  0.02099  0.45863     N
N      0.78471  0.47901  0.95863     N
N      0.79281  0.02178  0.96191     N
N      0.79281  0.47822  0.46191     N
N       0.8634    0.067  0.45382     N
N       0.8634    0.433  0.95382     N
N        0.933  0.54618   0.1366     N
N        0.933  0.95382   0.6366     N
N      0.95382   0.6366    0.933     N
N      0.95382   0.8634    0.433     N
N      0.95863  0.71529  0.97901     N
N      0.95863  0.78471  0.47901     N
N      0.96191  0.70719  0.52178     N
N      0.96191  0.79281  0.02178     N
N      0.97822  0.03809  0.20719     N
N      0.97822  0.46191  0.70719     N
N      0.97901  0.54137  0.21529     N
N      0.97901  0.95863  0.71529     N
