data_I
_chemical_name_common  '/home/zhangsd/repos/MofS-CGCNN/ML/data/SSD/clean_cifs/ROQFUA02_clean'
_cell_length_a 13.16760
_cell_length_b 13.16760
_cell_length_c 13.16760
_cell_angle_alpha 90.00000
_cell_angle_beta  90.00000
_cell_angle_gamma 90.00000
_space_group_name_H-M_alt      'P 1'


loop_
_space_group_symop_operation_xyz
  'x, y, z' 

loop_
_atom_site_label
_atom_site_fract_x
_atom_site_fract_y
_atom_site_fract_z
_atom_site_type_symbol
K          0.0      0.0      0.0     K
Fe         0.0      0.0      0.5    Fe
Fe         0.0      0.5      0.0    Fe
K          0.0      0.5      0.5     K
N      0.02008  0.03994  0.28464     N
N      0.02008  0.46006  0.78464     N
N      0.02143  0.53625  0.29265     N
N      0.02143  0.96375  0.79265     N
N      0.03625  0.20735  0.97857     N
N      0.03625  0.29265  0.47857     N
N      0.03994  0.21536  0.52008     N
N      0.03994  0.28464  0.02008     N
N      0.04528  0.13696  0.56483     N
N      0.04528  0.36304  0.06483     N
N      0.06483  0.04528  0.36304     N
N      0.06483  0.45472  0.86304     N
N      0.13696  0.56483  0.04528     N
N      0.13696  0.93517  0.54528     N
N      0.20735  0.52143  0.53625     N
N      0.20735  0.97857  0.03625     N
N      0.21536  0.52008  0.03994     N
N      0.21536  0.97992  0.53994     N
N      0.28464  0.02008  0.03994     N
N      0.28464  0.47992  0.53994     N
N      0.29265  0.02143  0.53625     N
N      0.29265  0.47857  0.03625     N
N      0.36304  0.06483  0.04528     N
N      0.36304  0.43517  0.54528     N
N      0.43517  0.54528  0.36304     N
N      0.43517  0.95472  0.86304     N
N      0.45472  0.63696  0.56483     N
N      0.45472  0.86304  0.06483     N
N      0.46006  0.71536  0.52008     N
N      0.46006  0.78464  0.02008     N
N      0.46375  0.70735  0.97857     N
N      0.46375  0.79265  0.47857     N
N      0.47857  0.03625  0.29265     N
N      0.47857  0.46375  0.79265     N
N      0.47992  0.53994  0.28464     N
N      0.47992  0.96006  0.78464     N
Fe         0.5      0.0      0.0    Fe
K          0.5      0.0      0.5     K
K          0.5      0.5      0.0     K
Fe         0.5      0.5      0.5    Fe
N      0.52008  0.03994  0.21536     N
N      0.52008  0.46006  0.71536     N
N      0.52143  0.53625  0.20735     N
N      0.52143  0.96375  0.70735     N
N      0.53625  0.20735  0.52143     N
N      0.53625  0.29265  0.02143     N
N      0.53994  0.21536  0.97992     N
N      0.53994  0.28464  0.47992     N
N      0.54528  0.13696  0.93517     N
N      0.54528  0.36304  0.43517     N
N      0.56483  0.04528  0.13696     N
N      0.56483  0.45472  0.63696     N
N      0.63696  0.56483  0.45472     N
N      0.63696  0.93517  0.95472     N
N      0.70735  0.52143  0.96375     N
N      0.70735  0.97857  0.46375     N
N      0.71536  0.52008  0.46006     N
N      0.71536  0.97992  0.96006     N
N      0.78464  0.02008  0.46006     N
N      0.78464  0.47992  0.96006     N
N      0.79265  0.02143  0.96375     N
N      0.79265  0.47857  0.46375     N
N      0.86304  0.06483  0.45472     N
N      0.86304  0.43517  0.95472     N
N      0.93517  0.54528  0.13696     N
N      0.93517  0.95472  0.63696     N
N      0.95472  0.63696  0.93517     N
N      0.95472  0.86304  0.43517     N
N      0.96006  0.71536  0.97992     N
N      0.96006  0.78464  0.47992     N
N      0.96375  0.70735  0.52143     N
N      0.96375  0.79265  0.02143     N
N      0.97857  0.03625  0.20735     N
N      0.97857  0.46375  0.70735     N
N      0.97992  0.53994  0.21536     N
N      0.97992  0.96006  0.71536     N
