data_I
_chemical_name_common  '/home/zhangsd/repos/MofS-CGCNN/ML/data/SSD/clean_cifs/ROQFUA03_clean'
_cell_length_a 13.20190
_cell_length_b 13.20190
_cell_length_c 13.20190
_cell_angle_alpha 90.00000
_cell_angle_beta  90.00000
_cell_angle_gamma 90.00000
_space_group_name_H-M_alt      'P 1'


loop_
_space_group_symop_operation_xyz
  'x, y, z' 

loop_
_atom_site_label
_atom_site_fract_x
_atom_site_fract_y
_atom_site_fract_z
_atom_site_type_symbol
K          0.0      0.0      0.0     K
Fe         0.0      0.0      0.5    Fe
Fe         0.0      0.5      0.0    Fe
K          0.0      0.5      0.5     K
N      0.01975  0.03925  0.28456     N
N      0.01975  0.46075  0.78456     N
N      0.02117   0.5355  0.29256     N
N      0.02117   0.9645  0.79256     N
N       0.0355  0.20744  0.97883     N
N       0.0355  0.29256  0.47883     N
N      0.03925  0.21544  0.51975     N
N      0.03925  0.28456  0.01975     N
N      0.04501  0.13704  0.56402     N
N      0.04501  0.36296  0.06402     N
N      0.06402  0.04501  0.36296     N
N      0.06402  0.45499  0.86296     N
N      0.13704  0.56402  0.04501     N
N      0.13704  0.93598  0.54501     N
N      0.20744  0.52117   0.5355     N
N      0.20744  0.97883   0.0355     N
N      0.21544  0.51975  0.03925     N
N      0.21544  0.98025  0.53925     N
N      0.28456  0.01975  0.03925     N
N      0.28456  0.48025  0.53925     N
N      0.29256  0.02117   0.5355     N
N      0.29256  0.47883   0.0355     N
N      0.36296  0.06402  0.04501     N
N      0.36296  0.43598  0.54501     N
N      0.43598  0.54501  0.36296     N
N      0.43598  0.95499  0.86296     N
N      0.45499  0.63704  0.56402     N
N      0.45499  0.86296  0.06402     N
N      0.46075  0.71544  0.51975     N
N      0.46075  0.78456  0.01975     N
N       0.4645  0.70744  0.97883     N
N       0.4645  0.79256  0.47883     N
N      0.47883   0.0355  0.29256     N
N      0.47883   0.4645  0.79256     N
N      0.48025  0.53925  0.28456     N
N      0.48025  0.96075  0.78456     N
Fe         0.5      0.0      0.0    Fe
K          0.5      0.0      0.5     K
K          0.5      0.5      0.0     K
Fe         0.5      0.5      0.5    Fe
N      0.51975  0.03925  0.21544     N
N      0.51975  0.46075  0.71544     N
N      0.52117   0.5355  0.20744     N
N      0.52117   0.9645  0.70744     N
N       0.5355  0.20744  0.52117     N
N       0.5355  0.29256  0.02117     N
N      0.53925  0.21544  0.98025     N
N      0.53925  0.28456  0.48025     N
N      0.54501  0.13704  0.93598     N
N      0.54501  0.36296  0.43598     N
N      0.56402  0.04501  0.13704     N
N      0.56402  0.45499  0.63704     N
N      0.63704  0.56402  0.45499     N
N      0.63704  0.93598  0.95499     N
N      0.70744  0.52117   0.9645     N
N      0.70744  0.97883   0.4645     N
N      0.71544  0.51975  0.46075     N
N      0.71544  0.98025  0.96075     N
N      0.78456  0.01975  0.46075     N
N      0.78456  0.48025  0.96075     N
N      0.79256  0.02117   0.9645     N
N      0.79256  0.47883   0.4645     N
N      0.86296  0.06402  0.45499     N
N      0.86296  0.43598  0.95499     N
N      0.93598  0.54501  0.13704     N
N      0.93598  0.95499  0.63704     N
N      0.95499  0.63704  0.93598     N
N      0.95499  0.86296  0.43598     N
N      0.96075  0.71544  0.98025     N
N      0.96075  0.78456  0.48025     N
N       0.9645  0.70744  0.52117     N
N       0.9645  0.79256  0.02117     N
N      0.97883   0.0355  0.20744     N
N      0.97883   0.4645  0.70744     N
N      0.98025  0.53925  0.21544     N
N      0.98025  0.96075  0.71544     N
