data_I
_chemical_name_common  '/home/zhangsd/repos/MofS-CGCNN/ML/data/SSD/clean_cifs/ROQFUA05_clean'
_cell_length_a 13.24000
_cell_length_b 13.24000
_cell_length_c 13.24000
_cell_angle_alpha 90.00000
_cell_angle_beta  90.00000
_cell_angle_gamma 90.00000
_space_group_name_H-M_alt      'P 1'


loop_
_space_group_symop_operation_xyz
  'x, y, z' 

loop_
_atom_site_label
_atom_site_fract_x
_atom_site_fract_y
_atom_site_fract_z
_atom_site_type_symbol
K          0.0      0.0      0.0     K
Fe         0.0      0.0      0.5    Fe
Fe         0.0      0.5      0.0    Fe
K          0.0      0.5      0.5     K
N      0.01918  0.03764  0.28431     N
N      0.01918  0.46236  0.78431     N
N       0.0204   0.5337   0.2924     N
N       0.0204   0.9663   0.7924     N
N       0.0337   0.2076   0.9796     N
N       0.0337   0.2924   0.4796     N
N      0.03764  0.21569  0.51918     N
N      0.03764  0.28431  0.01918     N
N      0.04419  0.13699  0.56304     N
N      0.04419  0.36301  0.06304     N
N      0.06304  0.04419  0.36301     N
N      0.06304  0.45581  0.86301     N
N      0.13699  0.56304  0.04419     N
N      0.13699  0.93696  0.54419     N
N       0.2076   0.5204   0.5337     N
N       0.2076   0.9796   0.0337     N
N      0.21569  0.51918  0.03764     N
N      0.21569  0.98082  0.53764     N
N      0.28431  0.01918  0.03764     N
N      0.28431  0.48082  0.53764     N
N       0.2924   0.0204   0.5337     N
N       0.2924   0.4796   0.0337     N
N      0.36301  0.06304  0.04419     N
N      0.36301  0.43696  0.54419     N
N      0.43696  0.54419  0.36301     N
N      0.43696  0.95581  0.86301     N
N      0.45581  0.63699  0.56304     N
N      0.45581  0.86301  0.06304     N
N      0.46236  0.71569  0.51918     N
N      0.46236  0.78431  0.01918     N
N       0.4663   0.7076   0.9796     N
N       0.4663   0.7924   0.4796     N
N       0.4796   0.0337   0.2924     N
N       0.4796   0.4663   0.7924     N
N      0.48082  0.53764  0.28431     N
N      0.48082  0.96236  0.78431     N
Fe         0.5      0.0      0.0    Fe
K          0.5      0.0      0.5     K
K          0.5      0.5      0.0     K
Fe         0.5      0.5      0.5    Fe
N      0.51918  0.03764  0.21569     N
N      0.51918  0.46236  0.71569     N
N       0.5204   0.5337   0.2076     N
N       0.5204   0.9663   0.7076     N
N       0.5337   0.2076   0.5204     N
N       0.5337   0.2924   0.0204     N
N      0.53764  0.21569  0.98082     N
N      0.53764  0.28431  0.48082     N
N      0.54419  0.13699  0.93696     N
N      0.54419  0.36301  0.43696     N
N      0.56304  0.04419  0.13699     N
N      0.56304  0.45581  0.63699     N
N      0.63699  0.56304  0.45581     N
N      0.63699  0.93696  0.95581     N
N       0.7076   0.5204   0.9663     N
N       0.7076   0.9796   0.4663     N
N      0.71569  0.51918  0.46236     N
N      0.71569  0.98082  0.96236     N
N      0.78431  0.01918  0.46236     N
N      0.78431  0.48082  0.96236     N
N       0.7924   0.0204   0.9663     N
N       0.7924   0.4796   0.4663     N
N      0.86301  0.06304  0.45581     N
N      0.86301  0.43696  0.95581     N
N      0.93696  0.54419  0.13699     N
N      0.93696  0.95581  0.63699     N
N      0.95581  0.63699  0.93696     N
N      0.95581  0.86301  0.43696     N
N      0.96236  0.71569  0.98082     N
N      0.96236  0.78431  0.48082     N
N       0.9663   0.7076   0.5204     N
N       0.9663   0.7924   0.0204     N
N       0.9796   0.0337   0.2076     N
N       0.9796   0.4663   0.7076     N
N      0.98082  0.53764  0.21569     N
N      0.98082  0.96236  0.71569     N
