data_I
_chemical_name_common  '/home/zhangsd/repos/MofS-CGCNN/ML/data/SSD/clean_cifs/ROQNES02_clean'
_cell_length_a 13.09730
_cell_length_b 13.09730
_cell_length_c 13.09730
_cell_angle_alpha 90.00000
_cell_angle_beta  90.00000
_cell_angle_gamma 90.00000
_space_group_name_H-M_alt      'P 1'


loop_
_space_group_symop_operation_xyz
  'x, y, z' 

loop_
_atom_site_label
_atom_site_fract_x
_atom_site_fract_y
_atom_site_fract_z
_atom_site_type_symbol
Cr         0.0      0.0      0.0    Cr
K          0.0      0.0      0.5     K
K          0.0      0.5      0.0     K
Cr         0.0      0.5      0.5    Cr
N      0.01948  0.53889  0.71404     N
N      0.01948  0.96111  0.21404     N
N       0.0201   0.0355  0.70754     N
N       0.0201   0.4645  0.20754     N
N       0.0355  0.70754   0.0201     N
N       0.0355  0.79246   0.5201     N
N      0.03889  0.71404  0.48052     N
N      0.03889  0.78596  0.98052     N
N      0.04401   0.6352  0.43631     N
N      0.04401   0.8648  0.93631     N
N      0.06369  0.54401   0.6352     N
N      0.06369  0.95599   0.1352     N
N       0.1352  0.06369  0.95599     N
N       0.1352  0.43631  0.45599     N
N      0.20754   0.0201   0.4645     N
N      0.20754   0.4799   0.9645     N
N      0.21404  0.01948  0.96111     N
N      0.21404  0.48052  0.46111     N
N      0.28596  0.51948  0.96111     N
N      0.28596  0.98052  0.46111     N
N      0.29246   0.5201   0.4645     N
N      0.29246   0.9799   0.9645     N
N       0.3648  0.56369  0.95599     N
N       0.3648  0.93631  0.45599     N
N      0.43631  0.04401   0.6352     N
N      0.43631  0.45599   0.1352     N
N      0.45599   0.1352  0.43631     N
N      0.45599   0.3648  0.93631     N
N      0.46111  0.21404  0.48052     N
N      0.46111  0.28596  0.98052     N
N       0.4645  0.20754   0.0201     N
N       0.4645  0.29246   0.5201     N
N       0.4799   0.5355  0.70754     N
N       0.4799   0.9645  0.20754     N
N      0.48052  0.03889  0.71404     N
N      0.48052  0.46111  0.21404     N
K          0.5      0.0      0.0     K
Cr         0.5      0.0      0.5    Cr
Cr         0.5      0.5      0.0    Cr
K          0.5      0.5      0.5     K
N      0.51948  0.53889  0.78596     N
N      0.51948  0.96111  0.28596     N
N       0.5201   0.0355  0.79246     N
N       0.5201   0.4645  0.29246     N
N       0.5355  0.70754   0.4799     N
N       0.5355  0.79246   0.9799     N
N      0.53889  0.71404  0.01948     N
N      0.53889  0.78596  0.51948     N
N      0.54401   0.6352  0.06369     N
N      0.54401   0.8648  0.56369     N
N      0.56369  0.54401   0.8648     N
N      0.56369  0.95599   0.3648     N
N       0.6352  0.06369  0.54401     N
N       0.6352  0.43631  0.04401     N
N      0.70754   0.0201   0.0355     N
N      0.70754   0.4799   0.5355     N
N      0.71404  0.01948  0.53889     N
N      0.71404  0.48052  0.03889     N
N      0.78596  0.51948  0.53889     N
N      0.78596  0.98052  0.03889     N
N      0.79246   0.5201   0.0355     N
N      0.79246   0.9799   0.5355     N
N       0.8648  0.56369  0.54401     N
N       0.8648  0.93631  0.04401     N
N      0.93631  0.04401   0.8648     N
N      0.93631  0.45599   0.3648     N
N      0.95599   0.1352  0.06369     N
N      0.95599   0.3648  0.56369     N
N      0.96111  0.21404  0.01948     N
N      0.96111  0.28596  0.51948     N
N       0.9645  0.20754   0.4799     N
N       0.9645  0.29246   0.9799     N
N       0.9799   0.5355  0.79246     N
N       0.9799   0.9645  0.29246     N
N      0.98052  0.03889  0.78596     N
N      0.98052  0.46111  0.28596     N
