data_I
_chemical_name_common  '/home/zhangsd/repos/MofS-CGCNN/ML/data/SSD/clean_cifs/ROQNES01_clean'
_cell_length_a 13.06760
_cell_length_b 13.06760
_cell_length_c 13.06760
_cell_angle_alpha 90.00000
_cell_angle_beta  90.00000
_cell_angle_gamma 90.00000
_space_group_name_H-M_alt      'P 1'


loop_
_space_group_symop_operation_xyz
  'x, y, z' 

loop_
_atom_site_label
_atom_site_fract_x
_atom_site_fract_y
_atom_site_fract_z
_atom_site_type_symbol
Cr         0.0      0.0      0.0    Cr
K          0.0      0.0      0.5     K
K          0.0      0.5      0.0     K
Cr         0.0      0.5      0.5    Cr
N      0.01995  0.53974  0.71418     N
N      0.01995  0.96026  0.21418     N
N       0.0207   0.0368  0.70746     N
N       0.0207   0.4632  0.20746     N
N       0.0368  0.70746   0.0207     N
N       0.0368  0.79254   0.5207     N
N      0.03974  0.71418  0.48005     N
N      0.03974  0.78582  0.98005     N
N      0.04477  0.63499  0.43504     N
N      0.04477  0.86501  0.93504     N
N      0.06496  0.54477  0.63499     N
N      0.06496  0.95523  0.13499     N
N      0.13499  0.06496  0.95523     N
N      0.13499  0.43504  0.45523     N
N      0.20746   0.0207   0.4632     N
N      0.20746   0.4793   0.9632     N
N      0.21418  0.01995  0.96026     N
N      0.21418  0.48005  0.46026     N
N      0.28582  0.51995  0.96026     N
N      0.28582  0.98005  0.46026     N
N      0.29254   0.5207   0.4632     N
N      0.29254   0.9793   0.9632     N
N      0.36501  0.56496  0.95523     N
N      0.36501  0.93504  0.45523     N
N      0.43504  0.04477  0.63499     N
N      0.43504  0.45523  0.13499     N
N      0.45523  0.13499  0.43504     N
N      0.45523  0.36501  0.93504     N
N      0.46026  0.21418  0.48005     N
N      0.46026  0.28582  0.98005     N
N       0.4632  0.20746   0.0207     N
N       0.4632  0.29254   0.5207     N
N       0.4793   0.5368  0.70746     N
N       0.4793   0.9632  0.20746     N
N      0.48005  0.03974  0.71418     N
N      0.48005  0.46026  0.21418     N
K          0.5      0.0      0.0     K
Cr         0.5      0.0      0.5    Cr
Cr         0.5      0.5      0.0    Cr
K          0.5      0.5      0.5     K
N      0.51995  0.53974  0.78582     N
N      0.51995  0.96026  0.28582     N
N       0.5207   0.0368  0.79254     N
N       0.5207   0.4632  0.29254     N
N       0.5368  0.70746   0.4793     N
N       0.5368  0.79254   0.9793     N
N      0.53974  0.71418  0.01995     N
N      0.53974  0.78582  0.51995     N
N      0.54477  0.63499  0.06496     N
N      0.54477  0.86501  0.56496     N
N      0.56496  0.54477  0.86501     N
N      0.56496  0.95523  0.36501     N
N      0.63499  0.06496  0.54477     N
N      0.63499  0.43504  0.04477     N
N      0.70746   0.0207   0.0368     N
N      0.70746   0.4793   0.5368     N
N      0.71418  0.01995  0.53974     N
N      0.71418  0.48005  0.03974     N
N      0.78582  0.51995  0.53974     N
N      0.78582  0.98005  0.03974     N
N      0.79254   0.5207   0.0368     N
N      0.79254   0.9793   0.5368     N
N      0.86501  0.56496  0.54477     N
N      0.86501  0.93504  0.04477     N
N      0.93504  0.04477  0.86501     N
N      0.93504  0.45523  0.36501     N
N      0.95523  0.13499  0.06496     N
N      0.95523  0.36501  0.56496     N
N      0.96026  0.21418  0.01995     N
N      0.96026  0.28582  0.51995     N
N       0.9632  0.20746   0.4793     N
N       0.9632  0.29254   0.9793     N
N       0.9793   0.5368  0.79254     N
N       0.9793   0.9632  0.29254     N
N      0.98005  0.03974  0.78582     N
N      0.98005  0.46026  0.28582     N
