data_I
_chemical_name_common  '/home/zhangsd/repos/MofS-CGCNN/ML/data/SSD/clean_cifs/RUBTAK01_SL'
_cell_length_a 14.81740
_cell_length_b 14.81740
_cell_length_c 14.81740
_cell_angle_alpha 60.00000
_cell_angle_beta  60.00000
_cell_angle_gamma 60.00000
_space_group_name_H-M_alt      'P 1'


loop_
_space_group_symop_operation_xyz
  'x, y, z' 

loop_
_atom_site_label
_atom_site_fract_x
_atom_site_fract_y
_atom_site_fract_z
_atom_site_type_symbol
C          0.0      0.0   0.3126     C
C         -0.0     -0.0   0.4066     C
C         -0.0     -0.0   0.5934     C
C          0.0      0.0   0.6874     C
C          0.0   0.3126      0.0     C
C          0.0   0.3126   0.6874     C
C         -0.0   0.4066     -0.0     C
C         -0.0   0.4066   0.5934     C
C         -0.0   0.5934     -0.0     C
C         -0.0   0.5934   0.4066     C
C          0.0   0.6874      0.0     C
C          0.0   0.6874   0.3126     C
O       0.0712   0.0712   0.0712     O
O       0.0712   0.0712   0.7864     O
O       0.0712   0.7864   0.0712     O
O       0.0755   0.2731   0.7269     O
O       0.0755   0.2731   0.9245     O
O       0.0755   0.7269   0.2731     O
O       0.0755   0.7269   0.9245     O
O       0.0755   0.9245   0.2731     O
O       0.0755   0.9245   0.7269     O
C       0.0775   0.4477   0.5523     C
C       0.0775   0.4477   0.9225     C
C       0.0775   0.5523   0.4477     C
C       0.0775   0.5523   0.9225     C
C       0.0775   0.9225   0.4477     C
C       0.0775   0.9225   0.5523     C
Zr      0.1237   0.1237   0.8763    Zr
Zr      0.1237   0.8763   0.1237    Zr
Zr      0.1237   0.8763   0.8763    Zr
H      0.14413  0.40923  0.59077     H
H      0.14413  0.40923  0.85587     H
H      0.14413  0.59077  0.40923     H
H      0.14413  0.59077  0.85587     H
H      0.14413  0.85587  0.40923     H
H      0.14413  0.85587  0.59077     H
O       0.2136   0.9288   0.9288     O
O       0.2731   0.0755   0.7269     O
O       0.2731   0.0755   0.9245     O
O       0.2731   0.7269   0.0755     O
O       0.2731   0.7269   0.9245     O
O       0.2731   0.9245   0.0755     O
O       0.2731   0.9245   0.7269     O
H      0.28079   0.9064   0.9064     H
C       0.3126      0.0      0.0     C
C       0.3126      0.0   0.6874     C
C       0.3126   0.6874      0.0     C
C       0.4066     -0.0     -0.0     C
C       0.4066     -0.0   0.5934     C
C       0.4066   0.5934     -0.0     C
H      0.40923  0.14413  0.59077     H
H      0.40923  0.14413  0.85587     H
H      0.40923  0.59077  0.14413     H
H      0.40923  0.59077  0.85587     H
H      0.40923  0.85587  0.14413     H
H      0.40923  0.85587  0.59077     H
C       0.4477   0.0775   0.5523     C
C       0.4477   0.0775   0.9225     C
C       0.4477   0.5523   0.0775     C
C       0.4477   0.5523   0.9225     C
C       0.4477   0.9225   0.0775     C
C       0.4477   0.9225   0.5523     C
C       0.5523   0.0775   0.4477     C
C       0.5523   0.0775   0.9225     C
C       0.5523   0.4477   0.0775     C
C       0.5523   0.4477   0.9225     C
C       0.5523   0.9225   0.0775     C
C       0.5523   0.9225   0.4477     C
H      0.59077  0.14413  0.40923     H
H      0.59077  0.14413  0.85587     H
H      0.59077  0.40923  0.14413     H
H      0.59077  0.40923  0.85587     H
H      0.59077  0.85587  0.14413     H
H      0.59077  0.85587  0.40923     H
C       0.5934     -0.0     -0.0     C
C       0.5934     -0.0   0.4066     C
C       0.5934   0.4066     -0.0     C
C       0.6874      0.0      0.0     C
C       0.6874      0.0   0.3126     C
C       0.6874   0.3126      0.0     C
O       0.7269   0.0755   0.2731     O
O       0.7269   0.0755   0.9245     O
O       0.7269   0.2731   0.0755     O
O       0.7269   0.2731   0.9245     O
O       0.7269   0.9245   0.0755     O
O       0.7269   0.9245   0.2731     O
O       0.7864   0.0712   0.0712     O
H      0.85587  0.14413  0.40923     H
H      0.85587  0.14413  0.59077     H
H      0.85587  0.40923  0.14413     H
H      0.85587  0.40923  0.59077     H
H      0.85587  0.59077  0.14413     H
H      0.85587  0.59077  0.40923     H
Zr      0.8763   0.1237   0.1237    Zr
Zr      0.8763   0.1237   0.8763    Zr
Zr      0.8763   0.8763   0.1237    Zr
H       0.9064  0.28079   0.9064     H
H       0.9064   0.9064  0.28079     H
H       0.9064   0.9064   0.9064     H
C       0.9225   0.0775   0.4477     C
C       0.9225   0.0775   0.5523     C
C       0.9225   0.4477   0.0775     C
C       0.9225   0.4477   0.5523     C
C       0.9225   0.5523   0.0775     C
C       0.9225   0.5523   0.4477     C
O       0.9245   0.0755   0.2731     O
O       0.9245   0.0755   0.7269     O
O       0.9245   0.2731   0.0755     O
O       0.9245   0.2731   0.7269     O
O       0.9245   0.7269   0.0755     O
O       0.9245   0.7269   0.2731     O
O       0.9288   0.2136   0.9288     O
O       0.9288   0.9288   0.2136     O
O       0.9288   0.9288   0.9288     O
