data_I
_chemical_name_common  '/home/zhangsd/repos/MofS-CGCNN/ML/data/SSD/clean_cifs/RUPVAB_clean'
_cell_length_a 23.50300
_cell_length_b 23.50300
_cell_length_c 23.50300
_cell_angle_alpha 90.00000
_cell_angle_beta  90.00000
_cell_angle_gamma 90.00000
_space_group_name_H-M_alt      'P 1'


loop_
_space_group_symop_operation_xyz
  'x, y, z' 

loop_
_atom_site_label
_atom_site_fract_x
_atom_site_fract_y
_atom_site_fract_z
_atom_site_type_symbol
Zn         0.0   0.0636      0.5    Zn
Zn         0.0      0.5   0.4364    Zn
Zn         0.0      0.5   0.5636    Zn
Zn         0.0   0.9364      0.5    Zn
C       0.0007   0.4226   0.0767     C
C       0.0007   0.5774   0.9233     C
C       0.0024   0.3776   0.8759     C
C       0.0024   0.6224   0.1241     C
C       0.0079   0.2952    0.791     C
C       0.0079   0.7048    0.209     C
H       0.0096   0.2661   0.7641     H
H       0.0096   0.7339   0.2359     H
C       0.0447    0.322   0.1963     C
C       0.0447    0.678   0.8037     C
C       0.0464    0.361   0.1541     C
C       0.0464    0.639   0.8459     C
O       0.0475   0.4363   0.9441     O
O       0.0475   0.5637   0.0559     O
O       0.0477   0.4427    0.065     O
O       0.0477   0.5573    0.935     O
C       0.0538   0.3531   0.8601     C
C       0.0538   0.6469   0.1399     C
C       0.0554   0.3123   0.8184     C
C       0.0554   0.6877   0.1816     C
O       0.0559   0.0475   0.5637     O
O       0.0559   0.9525   0.4363     O
O       0.0573    0.435   0.5477     O
O       0.0573    0.565   0.4523     O
Zn      0.0636      0.5      0.0    Zn
O       0.0637   0.4441   0.4525     O
O       0.0637   0.5559   0.5475     O
O        0.065   0.0477   0.4427     O
O        0.065   0.9523   0.5573     O
C       0.0767   0.0007   0.4226     C
C       0.0767   0.9993   0.5774     C
C       0.0774   0.4233   0.5007     C
C       0.0774   0.5767   0.4993     C
H       0.0811   0.3775   0.1446     H
H       0.0811   0.6225   0.8554     H
H       0.0873   0.3644   0.8779     H
H       0.0873   0.6356   0.1221     H
C       0.0976   0.3062   0.2262     C
C       0.0976   0.6938   0.7738     C
O       0.0981   0.2706   0.2665     O
O       0.0981   0.7294   0.7335     O
C       0.1149   0.2893   0.8013     C
C       0.1149   0.7107   0.1987     C
O        0.116   0.2574   0.7585     O
O        0.116   0.7426   0.2415     O
H       0.1221   0.0873   0.6356     H
H       0.1221   0.9127   0.3644     H
C       0.1224   0.3759   0.4976     C
C       0.1224   0.6241   0.5024     C
H       0.1225   0.3554   0.5811     H
H       0.1225   0.6446   0.4189     H
C       0.1241   0.0024   0.6224     C
C       0.1241   0.9976   0.3776     C
H       0.1356   0.3779   0.4127     H
H       0.1356   0.6221   0.5873     H
C        0.139   0.3459   0.5464     C
C        0.139   0.6541   0.4536     C
C       0.1399   0.0538   0.6469     C
C       0.1399   0.9462   0.3531     C
O       0.1433    0.332   0.2131     O
O       0.1433    0.668   0.7869     O
H       0.1446   0.0811   0.3775     H
H       0.1446   0.9189   0.6225     H
C       0.1469   0.3601   0.4462     C
C       0.1469   0.6399   0.5538     C
C       0.1541   0.0464    0.361     C
C       0.1541   0.9536    0.639     C
O       0.1561   0.3021    0.831     O
O       0.1561   0.6979    0.169     O
O        0.168   0.2869   0.6433     O
O        0.168   0.7131   0.3567     O
O        0.169   0.1561   0.6979     O
O        0.169   0.8439   0.3021     O
C        0.178   0.3037   0.5447     C
C        0.178   0.6963   0.4553     C
Zn     0.17948  0.23737  0.70659    Zn
Zn     0.17948  0.76263  0.29341    Zn
C       0.1816   0.0554   0.6877     C
C       0.1816   0.9446   0.3123     C
C       0.1877   0.3184   0.4446     C
C       0.1877   0.6816   0.5554     C
C       0.1938   0.2738   0.5976     C
C       0.1938   0.7262   0.4024     C
C       0.1963   0.0447    0.322     C
C       0.1963   0.9553    0.678     C
O       0.1979    0.331   0.3439     O
O       0.1979    0.669   0.6561     O
C       0.1987   0.1149   0.7107     C
C       0.1987   0.8851   0.2893     C
C       0.2048    0.291   0.4921     C
C       0.2048    0.709   0.5079     C
Zn     0.20659  0.32052  0.26263    Zn
Zn     0.20659  0.67948  0.73737    Zn
C        0.209   0.0079   0.7048     C
C        0.209   0.9921   0.2952     C
C       0.2107   0.3013   0.3851     C
C       0.2107   0.6987   0.6149     C
O       0.2131   0.1433    0.332     O
O       0.2131   0.8567    0.668     O
C       0.2262   0.0976   0.3062     C
C       0.2262   0.9024   0.6938     C
O       0.2294   0.2335   0.5981     O
O       0.2294   0.7665   0.4019     O
O       0.2335   0.4019   0.7706     O
O       0.2335   0.5981   0.2294     O
H       0.2339   0.2641   0.4904     H
H       0.2339   0.7359   0.5096     H
H       0.2359   0.0096   0.7339     H
H       0.2359   0.9904   0.2661     H
Zn     0.23737  0.29341  0.82052    Zn
Zn     0.23737  0.70659  0.17948    Zn
O       0.2415    0.116   0.7426     O
O       0.2415    0.884   0.2574     O
O       0.2426   0.2585    0.384     O
O       0.2426   0.7415    0.616     O
O        0.248    0.248    0.248     O
O        0.248    0.752    0.752     O
O        0.252    0.252    0.748     O
O        0.252    0.748    0.252     O
O       0.2574   0.2415    0.884     O
O       0.2574   0.7585    0.116     O
O       0.2585    0.384   0.2426     O
O       0.2585    0.616   0.7574     O
Zn     0.26263  0.20659  0.32052    Zn
Zn     0.26263  0.79341  0.67948    Zn
H       0.2641   0.4904   0.2339     H
H       0.2641   0.5096   0.7661     H
H       0.2661   0.2359   0.9904     H
H       0.2661   0.7641   0.0096     H
O       0.2665   0.0981   0.2706     O
O       0.2665   0.9019   0.7294     O
O       0.2706   0.2665   0.0981     O
O       0.2706   0.7335   0.9019     O
C       0.2738   0.4024   0.8062     C
C       0.2738   0.5976   0.1938     C
O       0.2869   0.3567    0.832     O
O       0.2869   0.6433    0.168     O
C       0.2893   0.1987   0.8851     C
C       0.2893   0.8013   0.1149     C
C        0.291   0.4921   0.2048     C
C        0.291   0.5079   0.7952     C
Zn     0.29341  0.17948  0.76263    Zn
Zn     0.29341  0.82052  0.23737    Zn
C       0.2952    0.209   0.9921     C
C       0.2952    0.791   0.0079     C
C       0.3013   0.3851   0.2107     C
C       0.3013   0.6149   0.7893     C
O       0.3021    0.169   0.8439     O
O       0.3021    0.831   0.1561     O
C       0.3037   0.4553    0.822     C
C       0.3037   0.5447    0.178     C
C       0.3062   0.2262   0.0976     C
C       0.3062   0.7738   0.9024     C
C       0.3123   0.1816   0.9446     C
C       0.3123   0.8184   0.0554     C
C       0.3184   0.4446   0.1877     C
C       0.3184   0.5554   0.8123     C
Zn     0.32052  0.26263  0.20659    Zn
Zn     0.32052  0.73737  0.79341    Zn
C        0.322   0.1963   0.0447     C
C        0.322   0.8037   0.9553     C
O        0.331   0.3439   0.1979     O
O        0.331   0.6561   0.8021     O
O        0.332   0.2131   0.1433     O
O        0.332   0.7869   0.8567     O
O       0.3439   0.1979    0.331     O
O       0.3439   0.8021    0.669     O
C       0.3459   0.4536    0.861     C
C       0.3459   0.5464    0.139     C
C       0.3531   0.1399   0.9462     C
C       0.3531   0.8601   0.0538     C
H       0.3554   0.4189   0.8775     H
H       0.3554   0.5811   0.1225     H
O       0.3567    0.168   0.7131     O
O       0.3567    0.832   0.2869     O
C       0.3601   0.4462   0.1469     C
C       0.3601   0.5538   0.8531     C
C        0.361   0.1541   0.0464     C
C        0.361   0.8459   0.9536     C
H       0.3644   0.1221   0.9127     H
H       0.3644   0.8779   0.0873     H
C       0.3759   0.4976   0.1224     C
C       0.3759   0.5024   0.8776     C
H       0.3775   0.1446   0.0811     H
H       0.3775   0.8554   0.9189     H
C       0.3776   0.1241   0.9976     C
C       0.3776   0.8759   0.0024     C
H       0.3779   0.4127   0.1356     H
H       0.3779   0.5873   0.8644     H
O        0.384   0.2426   0.2585     O
O        0.384   0.7574   0.7415     O
C       0.3851   0.2107   0.3013     C
C       0.3851   0.7893   0.6987     C
O       0.4019   0.2294   0.7665     O
O       0.4019   0.7706   0.2335     O
C       0.4024   0.1938   0.7262     C
C       0.4024   0.8062   0.2738     C
H       0.4127   0.1356   0.3779     H
H       0.4127   0.8644   0.6221     H
H       0.4189   0.1225   0.6446     H
H       0.4189   0.8775   0.3554     H
C       0.4226   0.0767   0.0007     C
C       0.4226   0.9233   0.9993     C
C       0.4233   0.4993   0.9226     C
C       0.4233   0.5007   0.0774     C
O        0.435   0.4523   0.9427     O
O        0.435   0.5477   0.0573     O
O       0.4363   0.0559   0.9525     O
O       0.4363   0.9441   0.0475     O
Zn      0.4364      0.0      0.5    Zn
O       0.4427    0.065   0.0477     O
O       0.4427    0.935   0.9523     O
O       0.4441   0.4525   0.0637     O
O       0.4441   0.5475   0.9363     O
C       0.4446   0.1877   0.3184     C
C       0.4446   0.8123   0.6816     C
C       0.4462   0.1469   0.3601     C
C       0.4462   0.8531   0.6399     C
O       0.4523   0.0573    0.565     O
O       0.4523   0.9427    0.435     O
O       0.4525   0.0637   0.4441     O
O       0.4525   0.9363   0.5559     O
C       0.4536    0.139   0.6541     C
C       0.4536    0.861   0.3459     C
C       0.4553    0.178   0.6963     C
C       0.4553    0.822   0.3037     C
H       0.4904   0.2339   0.2641     H
H       0.4904   0.7661   0.7359     H
C       0.4921   0.2048    0.291     C
C       0.4921   0.7952    0.709     C
C       0.4976   0.1224   0.3759     C
C       0.4976   0.8776   0.6241     C
C       0.4993   0.0774   0.5767     C
C       0.4993   0.9226   0.4233     C
Zn         0.5      0.0   0.0636    Zn
Zn         0.5      0.0   0.9364    Zn
Zn         0.5   0.4364      0.0    Zn
Zn         0.5   0.5636      0.0    Zn
C       0.5007   0.0774   0.4233     C
C       0.5007   0.9226   0.5767     C
C       0.5024   0.1224   0.6241     C
C       0.5024   0.8776   0.3759     C
C       0.5079   0.2048    0.709     C
C       0.5079   0.7952    0.291     C
H       0.5096   0.2339   0.7359     H
H       0.5096   0.7661   0.2641     H
C       0.5447    0.178   0.3037     C
C       0.5447    0.822   0.6963     C
C       0.5464    0.139   0.3459     C
C       0.5464    0.861   0.6541     C
O       0.5475   0.0637   0.5559     O
O       0.5475   0.9363   0.4441     O
O       0.5477   0.0573    0.435     O
O       0.5477   0.9427    0.565     O
C       0.5538   0.1469   0.6399     C
C       0.5538   0.8531   0.3601     C
C       0.5554   0.1877   0.6816     C
C       0.5554   0.8123   0.3184     C
O       0.5559   0.4525   0.9363     O
O       0.5559   0.5475   0.0637     O
O       0.5573    0.065   0.9523     O
O       0.5573    0.935   0.0477     O
Zn      0.5636      0.0      0.5    Zn
O       0.5637   0.0559   0.0475     O
O       0.5637   0.9441   0.9525     O
O        0.565   0.4523   0.0573     O
O        0.565   0.5477   0.9427     O
C       0.5767   0.4993   0.0774     C
C       0.5767   0.5007   0.9226     C
C       0.5774   0.0767   0.9993     C
C       0.5774   0.9233   0.0007     C
H       0.5811   0.1225   0.3554     H
H       0.5811   0.8775   0.6446     H
H       0.5873   0.1356   0.6221     H
H       0.5873   0.8644   0.3779     H
C       0.5976   0.1938   0.2738     C
C       0.5976   0.8062   0.7262     C
O       0.5981   0.2294   0.2335     O
O       0.5981   0.7706   0.7665     O
C       0.6149   0.2107   0.6987     C
C       0.6149   0.7893   0.3013     C
O        0.616   0.2426   0.7415     O
O        0.616   0.7574   0.2585     O
H       0.6221   0.4127   0.8644     H
H       0.6221   0.5873   0.1356     H
C       0.6224   0.1241   0.0024     C
C       0.6224   0.8759   0.9976     C
H       0.6225   0.1446   0.9189     H
H       0.6225   0.8554   0.0811     H
C       0.6241   0.4976   0.8776     C
C       0.6241   0.5024   0.1224     C
H       0.6356   0.1221   0.0873     H
H       0.6356   0.8779   0.9127     H
C        0.639   0.1541   0.9536     C
C        0.639   0.8459   0.0464     C
C       0.6399   0.4462   0.8531     C
C       0.6399   0.5538   0.1469     C
O       0.6433    0.168   0.2869     O
O       0.6433    0.832   0.7131     O
H       0.6446   0.4189   0.1225     H
H       0.6446   0.5811   0.8775     H
C       0.6469   0.1399   0.0538     C
C       0.6469   0.8601   0.9462     C
C       0.6541   0.4536    0.139     C
C       0.6541   0.5464    0.861     C
O       0.6561   0.1979    0.669     O
O       0.6561   0.8021    0.331     O
O        0.668   0.2131   0.8567     O
O        0.668   0.7869   0.1433     O
O        0.669   0.3439   0.8021     O
O        0.669   0.6561   0.1979     O
C        0.678   0.1963   0.9553     C
C        0.678   0.8037   0.0447     C
Zn     0.67948  0.26263  0.79341    Zn
Zn     0.67948  0.73737  0.20659    Zn
C       0.6816   0.4446   0.8123     C
C       0.6816   0.5554   0.1877     C
C       0.6877   0.1816   0.0554     C
C       0.6877   0.8184   0.9446     C
C       0.6938   0.2262   0.9024     C
C       0.6938   0.7738   0.0976     C
C       0.6963   0.4553    0.178     C
C       0.6963   0.5447    0.822     C
O       0.6979    0.169   0.1561     O
O       0.6979    0.831   0.8439     O
C       0.6987   0.3851   0.7893     C
C       0.6987   0.6149   0.2107     C
C       0.7048    0.209   0.0079     C
C       0.7048    0.791   0.9921     C
Zn     0.70659  0.17948  0.23737    Zn
Zn     0.70659  0.82052  0.76263    Zn
C        0.709   0.4921   0.7952     C
C        0.709   0.5079   0.2048     C
C       0.7107   0.1987   0.1149     C
C       0.7107   0.8013   0.8851     C
O       0.7131   0.3567    0.168     O
O       0.7131   0.6433    0.832     O
C       0.7262   0.4024   0.1938     C
C       0.7262   0.5976   0.8062     C
O       0.7294   0.2665   0.9019     O
O       0.7294   0.7335   0.0981     O
O       0.7335   0.0981   0.7294     O
O       0.7335   0.9019   0.2706     O
H       0.7339   0.2359   0.0096     H
H       0.7339   0.7641   0.9904     H
H       0.7359   0.4904   0.7661     H
H       0.7359   0.5096   0.2339     H
Zn     0.73737  0.20659  0.67948    Zn
Zn     0.73737  0.79341  0.32052    Zn
O       0.7415    0.384   0.7574     O
O       0.7415    0.616   0.2426     O
O       0.7426   0.2415    0.116     O
O       0.7426   0.7585    0.884     O
O        0.748    0.252    0.252     O
O        0.748    0.748    0.748     O
O        0.752    0.248    0.752     O
O        0.752    0.752    0.248     O
O       0.7574   0.2585    0.616     O
O       0.7574   0.7415    0.384     O
O       0.7585    0.116   0.2574     O
O       0.7585    0.884   0.7426     O
Zn     0.76263  0.29341  0.17948    Zn
Zn     0.76263  0.70659  0.82052    Zn
H       0.7641   0.0096   0.2661     H
H       0.7641   0.9904   0.7339     H
H       0.7661   0.2641   0.5096     H
H       0.7661   0.7359   0.4904     H
O       0.7665   0.4019   0.2294     O
O       0.7665   0.5981   0.7706     O
O       0.7706   0.2335   0.4019     O
O       0.7706   0.7665   0.5981     O
C       0.7738   0.0976   0.6938     C
C       0.7738   0.9024   0.3062     C
O       0.7869   0.1433    0.668     O
O       0.7869   0.8567    0.332     O
C       0.7893   0.3013   0.6149     C
C       0.7893   0.6987   0.3851     C
C        0.791   0.0079   0.2952     C
C        0.791   0.9921   0.7048     C
Zn     0.79341  0.32052  0.73737    Zn
Zn     0.79341  0.67948  0.26263    Zn
C       0.7952    0.291   0.5079     C
C       0.7952    0.709   0.4921     C
C       0.8013   0.1149   0.2893     C
C       0.8013   0.8851   0.7107     C
O       0.8021    0.331   0.6561     O
O       0.8021    0.669   0.3439     O
C       0.8037   0.0447    0.678     C
C       0.8037   0.9553    0.322     C
C       0.8062   0.2738   0.4024     C
C       0.8062   0.7262   0.5976     C
C       0.8123   0.3184   0.5554     C
C       0.8123   0.6816   0.4446     C
C       0.8184   0.0554   0.3123     C
C       0.8184   0.9446   0.6877     C
Zn     0.82052  0.23737  0.29341    Zn
Zn     0.82052  0.76263  0.70659    Zn
C        0.822   0.3037   0.4553     C
C        0.822   0.6963   0.5447     C
O        0.831   0.1561   0.3021     O
O        0.831   0.8439   0.6979     O
O        0.832   0.2869   0.3567     O
O        0.832   0.7131   0.6433     O
O       0.8439   0.3021    0.169     O
O       0.8439   0.6979    0.831     O
C       0.8459   0.0464    0.639     C
C       0.8459   0.9536    0.361     C
C       0.8531   0.3601   0.5538     C
C       0.8531   0.6399   0.4462     C
H       0.8554   0.0811   0.6225     H
H       0.8554   0.9189   0.3775     H
O       0.8567    0.332   0.7869     O
O       0.8567    0.668   0.2131     O
C       0.8601   0.0538   0.3531     C
C       0.8601   0.9462   0.6469     C
C        0.861   0.3459   0.4536     C
C        0.861   0.6541   0.5464     C
H       0.8644   0.3779   0.5873     H
H       0.8644   0.6221   0.4127     H
C       0.8759   0.0024   0.3776     C
C       0.8759   0.9976   0.6224     C
H       0.8775   0.3554   0.4189     H
H       0.8775   0.6446   0.5811     H
C       0.8776   0.3759   0.5024     C
C       0.8776   0.6241   0.4976     C
H       0.8779   0.0873   0.3644     H
H       0.8779   0.9127   0.6356     H
O        0.884   0.2574   0.2415     O
O        0.884   0.7426   0.7585     O
C       0.8851   0.2893   0.1987     C
C       0.8851   0.7107   0.8013     C
O       0.9019   0.2706   0.7335     O
O       0.9019   0.7294   0.2665     O
C       0.9024   0.3062   0.7738     C
C       0.9024   0.6938   0.2262     C
H       0.9127   0.3644   0.1221     H
H       0.9127   0.6356   0.8779     H
H       0.9189   0.3775   0.8554     H
H       0.9189   0.6225   0.1446     H
C       0.9226   0.4233   0.4993     C
C       0.9226   0.5767   0.5007     C
C       0.9233   0.0007   0.5774     C
C       0.9233   0.9993   0.4226     C
O        0.935   0.0477   0.5573     O
O        0.935   0.9523   0.4427     O
O       0.9363   0.4441   0.5475     O
O       0.9363   0.5559   0.4525     O
Zn      0.9364      0.5      0.0    Zn
O       0.9427    0.435   0.4523     O
O       0.9427    0.565   0.5477     O
O       0.9441   0.0475   0.4363     O
O       0.9441   0.9525   0.5637     O
C       0.9446   0.3123   0.1816     C
C       0.9446   0.6877   0.8184     C
C       0.9462   0.3531   0.1399     C
C       0.9462   0.6469   0.8601     C
O       0.9523   0.4427    0.935     O
O       0.9523   0.5573    0.065     O
O       0.9525   0.4363   0.0559     O
O       0.9525   0.5637   0.9441     O
C       0.9536    0.361   0.8459     C
C       0.9536    0.639   0.1541     C
C       0.9553    0.322   0.8037     C
C       0.9553    0.678   0.1963     C
H       0.9904   0.2661   0.2359     H
H       0.9904   0.7339   0.7641     H
C       0.9921   0.2952    0.209     C
C       0.9921   0.7048    0.791     C
C       0.9976   0.3776   0.1241     C
C       0.9976   0.6224   0.8759     C
C       0.9993   0.4226   0.9233     C
C       0.9993   0.5774   0.0767     C
