data_I
_chemical_name_common  '/home/zhangsd/repos/MofS-CGCNN/ML/data/SSD/clean_cifs/RUSWOT_clean'
_cell_length_a 10.44770
_cell_length_b 11.49450
_cell_length_c 12.95830
_cell_angle_alpha 106.63900
_cell_angle_beta  90.32200
_cell_angle_gamma 93.19400
_space_group_name_H-M_alt      'P 1'


loop_
_space_group_symop_operation_xyz
  'x, y, z' 

loop_
_atom_site_label
_atom_site_fract_x
_atom_site_fract_y
_atom_site_fract_z
_atom_site_type_symbol
C       0.0353   0.7749   0.7367     C
C       0.0557     0.59   0.5904     C
H       0.0707   0.8344   0.7961     H
C       0.0754   0.4042   0.4428     C
H        0.086   0.0946   0.5846     H
H       0.0942   0.8911    0.585     H
C        0.095   0.2197   0.2963     C
C       0.1069    0.684   0.6821     C
C       0.1287   0.4932   0.5319     C
H       0.1439   0.1569   0.2582     H
C       0.1468   0.3064   0.3834     C
C       0.1619   0.0553   0.5682     C
C       0.1676   0.9325   0.5702     C
H       0.1913   0.6823   0.7044     H
H       0.2311   0.3016   0.4046     H
H         0.26   0.1941   0.5394     H
C       0.2642    0.489   0.5666     C
C        0.266   0.1148   0.5427     C
C       0.2776    0.876   0.5509     C
H       0.2797   0.7961   0.5536     H
O       0.2847   0.4743    0.656     O
H        0.311   0.7179    0.153     H
H       0.3147   0.9025    0.289     H
C       0.3449   0.7885   0.1395     C
C       0.3473   0.9003   0.2219     C
O       0.3546   0.5099   0.5077     O
C       0.3854    0.059   0.5205     C
O       0.3854   0.2775   0.1846     O
H        0.389   0.7097   0.9864     H
C       0.3913   0.9362   0.5263     C
C       0.3921   0.7836     0.04     C
C       0.3963   0.0036   0.2044     C
H       0.3973   0.0757     0.26     H
O       0.4049   0.7162   0.7862     O
C       0.4467   0.8916   0.0172     C
C       0.4474   0.0053   0.1012     C
O       0.4612   0.2739   0.4096     O
Pr     0.47424  0.45386  0.33549    Pr
C       0.4875    0.252   0.4954     C
O       0.4897   0.6716   0.4144     O
C       0.4931   0.1202   0.4952     C
C       0.4934   0.2316   0.1659     C
C       0.4982   0.1133   0.0821     C
C       0.5018   0.8867   0.9179     C
C       0.5066   0.7684   0.8341     C
C       0.5069   0.8798   0.5048     C
O       0.5103   0.3284   0.5856     O
C       0.5125    0.748   0.5046     C
Pr     0.52576  0.54614  0.66451    Pr
O       0.5388   0.7261   0.5904     O
C       0.5526   0.9947   0.8988     C
C       0.5533   0.1084   0.9828     C
O       0.5951   0.2838   0.2138     O
H       0.6027   0.9243     0.74     H
C       0.6037   0.9964   0.7956     C
C       0.6079   0.2164     0.96     C
C       0.6087   0.0638   0.4737     C
H        0.611   0.2903   0.0136     H
O       0.6146   0.7225   0.8154     O
C       0.6146    0.941   0.4795     C
O       0.6454   0.4901   0.4923     O
C       0.6527   0.0997   0.7781     C
C       0.6551   0.2115   0.8605     C
H       0.6853   0.0975    0.711     H
H        0.689   0.2821    0.847     H
O       0.7153   0.5257    0.344     O
H       0.7203   0.2039   0.4464     H
C       0.7224    0.124   0.4491     C
C        0.734   0.8852   0.4573     C
C       0.7358    0.511   0.4334     C
H         0.74   0.8059   0.4606     H
H       0.7689   0.6984   0.5954     H
H       0.8087   0.3177   0.2956     H
C       0.8324   0.0675   0.4298     C
C       0.8381   0.9447   0.4318     C
C       0.8532   0.6936   0.6166     C
H       0.8561   0.8431   0.7418     H
C       0.8713   0.5068   0.4681     C
C       0.8931    0.316   0.3179     C
C        0.905   0.7803   0.7037     C
H       0.9058   0.1089    0.415     H
H        0.914   0.9054   0.4154     H
C       0.9246   0.5958   0.5572     C
H       0.9293   0.1656   0.2039     H
C       0.9443     0.41   0.4096     C
C       0.9647   0.2251   0.2633     C
