data_I
_chemical_name_common  '/home/zhangsd/repos/MofS-CGCNN/ML/data/SSD/clean_cifs/RUSWIN_clean'
_cell_length_a 10.38030
_cell_length_b 11.35080
_cell_length_c 12.98940
_cell_angle_alpha 72.43500
_cell_angle_beta  89.86700
_cell_angle_gamma 87.37200
_space_group_name_H-M_alt      'P 1'


loop_
_space_group_symop_operation_xyz
  'x, y, z' 

loop_
_atom_site_label
_atom_site_fract_x
_atom_site_fract_y
_atom_site_fract_z
_atom_site_type_symbol
C       0.0327   0.7183   0.7381     C
C       0.0552   0.9076   0.5905     C
H       0.0676   0.6574   0.7977     H
C       0.0767   0.0977   0.4408     C
H       0.0803    0.397   0.5809     H
H       0.0875    0.601   0.5862     H
C       0.0974   0.2876   0.2933     C
C       0.1067   0.8114   0.6824     C
C       0.1295   0.0046   0.5301     C
H       0.1468   0.3522   0.2544     H
C       0.1497   0.1989     0.38     C
C       0.1576   0.4371   0.5676     C
C       0.1619   0.5607   0.5711     C
H       0.1918    0.813    0.704     H
H       0.2346    0.204   0.4003     H
H       0.2606    0.295   0.5446     H
C       0.2649   0.3765   0.5451     C
C       0.2665   0.0091   0.5646     C
C       0.2743   0.6203   0.5525     C
H       0.2762   0.7008   0.5559     H
O      0.28755  0.01943  0.65607     O
H       0.3103   0.7865   0.1472     H
H       0.3189   0.5997   0.2898     H
C       0.3455   0.7148   0.1357     C
C       0.3498   0.6011   0.2222     C
O      0.35951  0.99366  0.50523     O
C       0.3842   0.4366   0.5221     C
O      0.38672  0.21701  0.19472     O
C       0.3894   0.5608   0.5277     C
H       0.3895    0.794   0.9823     H
C       0.3923   0.7191   0.0372     C
C       0.3984   0.4961   0.2058     C
H          0.4   0.4227   0.2625     H
O      0.40335   0.7863  0.78252     O
C       0.4461   0.6103   0.0161     C
C       0.4481   0.4949   0.1021     C
O      0.46962  0.22425  0.40625     O
Dy       0.479  0.04557   0.3397    Dy
C       0.4907   0.2453   0.4941     C
O      0.49139  0.83365  0.41492     O
C       0.4946   0.3783   0.4945     C
C       0.4947   0.2659   0.1705     C
C       0.4982   0.3853   0.0857     C
C       0.5018   0.6147   0.9143     C
C       0.5053   0.7341   0.8295     C
C       0.5054   0.6217   0.5055     C
O      0.50861  0.16635  0.58508     O
C       0.5093   0.7547   0.5059     C
Dy       0.521  0.95443   0.6603    Dy
O      0.53038  0.77575  0.59375     O
C       0.5519   0.5051   0.8979     C
C       0.5539   0.3897   0.9839     C
O      0.59665   0.2137  0.21748     O
H          0.6   0.5773   0.7375     H
C       0.6016   0.5039   0.7942     C
C       0.6077   0.2809   0.9628     C
H       0.6105    0.206   0.0177     H
C       0.6106   0.4392   0.4723     C
O      0.61328  0.78299  0.80528     O
C       0.6158   0.5634   0.4779     C
O      0.64049  0.00634  0.49477     O
C       0.6502   0.3989   0.7778     C
C       0.6545   0.2852   0.8643     C
H       0.6811   0.4003   0.7102     H
H       0.6897   0.2135   0.8528     H
O      0.71245  0.98057  0.34393     O
H       0.7238   0.2992   0.4441     H
C       0.7257   0.3797   0.4475     C
C       0.7335   0.9909   0.4354     C
C       0.7351   0.6235   0.4549     C
H       0.7394    0.705   0.4554     H
H       0.7654    0.796   0.5997     H
H       0.8082    0.187    0.296     H
C       0.8381   0.4393   0.4289     C
C       0.8424   0.5629   0.4324     C
C       0.8503   0.8011     0.62     C
H       0.8532   0.6478   0.7456     H
C       0.8705   0.9954   0.4699     C
C       0.8933   0.1886   0.3176     C
C       0.9026   0.7124   0.7067     C
H       0.9125    0.399   0.4138     H
H       0.9197    0.603   0.4191     H
C       0.9233   0.9023   0.5592     C
H       0.9324   0.3426   0.2023     H
C       0.9448   0.0924   0.4095     C
C       0.9673   0.2817   0.2619     C
