data_I
_chemical_name_common  '/home/zhangsd/repos/MofS-CGCNN/ML/data/SSD/clean_cifs/RUSXEK_clean'
_cell_length_a 10.46800
_cell_length_b 11.35600
_cell_length_c 13.08900
_cell_angle_alpha 107.53900
_cell_angle_beta  90.08600
_cell_angle_gamma 92.35600
_space_group_name_H-M_alt      'P 1'


loop_
_space_group_symop_operation_xyz
  'x, y, z' 

loop_
_atom_site_label
_atom_site_fract_x
_atom_site_fract_y
_atom_site_fract_z
_atom_site_type_symbol
C        0.033   0.7816   0.7334     C
C       0.0536   0.5921   0.5879     C
H       0.0682   0.8425   0.7924     H
C       0.0768   0.4028   0.4412     C
H       0.0855   0.1037   0.5772     H
H       0.0918   0.9014   0.5824     H
C       0.0956    0.213   0.2963     C
C       0.1058   0.6889   0.6774     C
C       0.1295   0.4962   0.5281     C
H       0.1442   0.1479   0.2581     H
C       0.1483   0.3031   0.3811     C
C       0.1621   0.0634   0.5644     C
C       0.1658   0.9419   0.5686     C
H       0.1911   0.6881   0.6972     H
H       0.2334    0.299      0.4     H
H        0.262   0.2042   0.5408     H
C       0.2671   0.1231   0.5423     C
C       0.2671   0.4913   0.5606     C
C       0.2763   0.8845   0.5527     C
H       0.2784   0.8054   0.5596     H
O       0.2885   0.4831    0.652     O
H       0.3063   0.7132   0.1443     H
H       0.3145   0.9004   0.2848     H
C       0.3427   0.7846   0.1336     C
C        0.349    0.898   0.2188     C
O        0.357   0.5052   0.5018     O
C       0.3858   0.0642   0.5211     C
H       0.3875   0.7078   0.9801     H
O       0.3911   0.2814   0.1952     O
C       0.3914   0.7822   0.0352     C
C       0.3914   0.9398   0.5256     C
O       0.4018   0.7172   0.7828     O
C       0.4032   0.0007   0.2057     C
H       0.4104   0.0716   0.2643     H
C       0.4477   0.8899   0.0142     C
C        0.452   0.0055   0.1017     C
O       0.4726   0.2756   0.4075     O
Tb     0.48066  0.45339  0.33946    Tb
C       0.4916   0.2544   0.4936     C
O       0.4931    0.667   0.4158     O
C       0.4938   0.1199   0.4933     C
C       0.4989   0.2333   0.1704     C
C       0.4993   0.8846   0.9132     C
C       0.5007   0.1154   0.0868     C
C       0.5011   0.7667   0.8296     C
C       0.5062   0.8801   0.5067     C
O       0.5069    0.333   0.5842     O
C       0.5084   0.7456   0.5064     C
Tb     0.51934  0.54661  0.66054    Tb
O       0.5274   0.7244   0.5925     O
C        0.548   0.9945   0.8983     C
C       0.5523   0.1101   0.9858     C
H       0.5896   0.9284   0.7357     H
C       0.5968   0.9993   0.7943     C
O       0.5982   0.2828   0.2172     O
C       0.6086   0.0602   0.4744     C
C       0.6086   0.2178   0.9648     C
O       0.6089   0.7186   0.8048     O
H       0.6125   0.2922   0.0199     H
C       0.6142   0.9358   0.4789     C
O        0.643   0.4948   0.4982     O
C        0.651    0.102   0.7812     C
C       0.6573   0.2154   0.8664     C
H       0.6855   0.0996   0.7152     H
H       0.6937   0.2868   0.8557     H
O       0.7115   0.5169    0.348     O
H       0.7216   0.1946   0.4404     H
C       0.7237   0.1155   0.4473     C
C       0.7329   0.5087   0.4394     C
C       0.7329   0.8769   0.4577     C
H        0.738   0.7958   0.4592     H
H       0.7666    0.701      0.6     H
H       0.8089   0.3119   0.3028     H
C       0.8342   0.0581   0.4314     C
C       0.8379   0.9366   0.4356     C
C       0.8517   0.6969   0.6189     C
H       0.8558   0.8521   0.7419     H
C       0.8705   0.5038   0.4719     C
C       0.8942   0.3111   0.3226     C
C       0.9044    0.787   0.7037     C
H       0.9082   0.0986   0.4176     H
H       0.9145   0.8963   0.4228     H
C       0.9232   0.5972   0.5588     C
H       0.9318   0.1575   0.2076     H
C       0.9464   0.4079   0.4121     C
C        0.967   0.2184   0.2666     C
