data_I
_chemical_name_common  '/home/zhangsd/repos/MofS-CGCNN/ML/data/SSD/clean_cifs/SAXFII_clean'
_cell_length_a  9.79390
_cell_length_b 21.68800
_cell_length_c 27.67700
_cell_angle_alpha 90.00000
_cell_angle_beta  90.00000
_cell_angle_gamma 90.00000
_space_group_name_H-M_alt      'P 1'


loop_
_space_group_symop_operation_xyz
  'x, y, z' 

loop_
_atom_site_label
_atom_site_fract_x
_atom_site_fract_y
_atom_site_fract_z
_atom_site_type_symbol
N       0.0005  0.03701   0.6185     N
N       0.0005  0.46299   0.1185     N
C       0.0017  0.73423  0.05997     C
C       0.0017  0.76577  0.55997     C
H       0.0058   0.6725   0.4398     H
H       0.0058   0.8275   0.9398     H
N       0.0183   0.7171  0.52909     N
N       0.0183   0.7829  0.02909     N
C       0.0189  0.74817  0.75072     C
C       0.0189  0.75183  0.25072     C
C       0.0231  0.08577  0.58932     C
C       0.0231  0.41423  0.08932     C
H       0.0244   0.7063   0.8978     H
H       0.0244   0.7937   0.3978     H
O        0.034  0.55793  0.18322     O
O        0.034  0.94207  0.68322     O
H       0.0351   0.1704   0.8217     H
H       0.0351   0.3296   0.3217     H
C       0.0358   0.6753  0.31928     C
C       0.0358   0.8247  0.81928     C
H       0.0375   0.1935   0.1648     H
H       0.0375   0.3065   0.6648     H
H       0.0452   0.7413   0.7189     H
H       0.0452   0.7587   0.2189     H
H       0.0628    0.638   0.9629     H
H       0.0628    0.862   0.4629     H
O       0.0639  0.57859  0.57533     O
O       0.0639  0.92141  0.07533     O
O       0.0678  0.68592  0.13404     O
O       0.0678  0.81408  0.63404     O
C       0.0685  0.20901  0.73101     C
C       0.0685  0.29099  0.23101     C
C       0.0699  0.22652  0.00698     C
C       0.0699  0.27348  0.50698     C
H       0.0703   0.6104   0.3685     H
H       0.0703   0.8896   0.8685     H
O       0.0711  0.00095   0.1251     O
O       0.0711  0.49905   0.6251     O
C         0.08  0.69821  0.27486     C
C         0.08  0.80179  0.77486     C
C       0.0844  0.18326   0.0484     C
C       0.0844  0.31674   0.5484     C
C       0.0851  0.73211  0.10425     C
C       0.0851  0.76789  0.60425     C
C       0.0862    0.626  0.93013     C
C       0.0862    0.874  0.43013     C
C       0.0944   0.1443  0.80527     C
C       0.0944   0.3557  0.30527     C
H       0.0968   0.2152   0.6993     H
H       0.0968   0.2848   0.1993     H
C       0.0985  0.19626  0.45873     C
C       0.0985  0.30374  0.95873     C
C       0.1015  0.62568  0.33908     C
C       0.1015  0.87432  0.83908     C
O       0.1046  0.11327  0.40394     O
O       0.1046  0.38673  0.90394     O
C       0.1085   0.6838   0.9002     C
C       0.1085   0.8162   0.4002     C
H       0.1105   0.1027   0.0109     H
H       0.1105   0.3973   0.5109     H
C       0.1253  0.15575  0.75727     C
C       0.1253  0.34425  0.25727     C
C       0.1263  0.01425   0.6295     C
C       0.1263  0.48575   0.1295     C
C       0.1275  0.54295  0.60197     C
C       0.1275  0.95705  0.10197     C
H       0.1284   0.0882   0.8609     H
H       0.1284   0.4118   0.3609     H
H       0.1327    0.204   0.0743     H
H       0.1327    0.296   0.5743     H
C       0.1368   0.5374  0.16388     C
C       0.1368   0.9626  0.66388     C
H       0.1389   0.6724   0.8684     H
H       0.1389   0.8276   0.3684     H
N       0.1433  0.22138  0.50126     N
N       0.1433  0.27862  0.00126     N
C       0.1507   0.0948  0.82865     C
C       0.1507   0.4052  0.32865     C
C       0.1559  0.13696  0.44158     C
C       0.1559  0.36304  0.94158     C
N       0.1572  0.09486  0.58116     N
N       0.1572  0.40514  0.08116     N
C       0.1602   0.1246   0.0354     C
C       0.1602   0.3754   0.5354     C
H       0.1687   0.0991   0.0636     H
H       0.1687   0.4009   0.5636     H
O       0.1699  0.72772   0.6129     O
O       0.1699  0.77228   0.1129     O
H       0.1708   0.6029   0.9315     H
H       0.1708   0.8971   0.4315     H
Cd     0.17105  0.02271  0.35622    Cd
Cd     0.17105  0.47729  0.85622    Cd
H       0.1738   0.5395   0.7454     H
H       0.1738   0.9605   0.2454     H
H       0.1765   0.7091   0.9153     H
H       0.1765   0.7909   0.4153     H
H       0.1773   0.0999   0.2605     H
H       0.1773   0.4001   0.7605     H
C       0.1865    0.668  0.25242     C
C       0.1865    0.832  0.75242     C
Cd     0.20347  0.65909  0.54182    Cd
Cd     0.20347  0.84091  0.04182    Cd
N       0.2088  0.59804  0.31821     N
N       0.2088  0.90196  0.81821     N
C       0.2145   0.1154  0.73535     C
C       0.2145   0.3846  0.23535     C
H       0.2159   0.6804    0.222     H
H       0.2159   0.8196    0.722     H
C       0.2229  0.04937  0.60613     C
C       0.2229  0.45063  0.10613     C
C       0.2332   0.5663  0.76114     C
C       0.2332   0.9337  0.26114     C
N       0.2371  0.05526  0.80693     N
N       0.2371  0.44474  0.30693     N
H       0.2394   0.1213   0.7033     H
H       0.2394   0.3787   0.2033     H
O       0.2412  0.05884  0.17296     O
O       0.2412  0.44116  0.67296     O
O       0.2484   0.6132  0.46546     O
O       0.2484   0.8868  0.96546     O
C       0.2491  0.61901  0.27556     C
C       0.2491  0.88099  0.77556     C
H       0.2494   0.1349   0.0235     H
H       0.2494   0.3651   0.5235     H
H       0.2506   0.6349   0.0235     H
H       0.2506   0.8651   0.5235     H
C       0.2509  0.11901  0.27556     C
C       0.2509  0.38099  0.77556     C
O       0.2516   0.1132  0.46546     O
O       0.2516   0.3868  0.96546     O
O       0.2588  0.55884  0.17296     O
O       0.2588  0.94116  0.67296     O
H       0.2606   0.6213   0.7033     H
H       0.2606   0.8787   0.2033     H
N       0.2629  0.55526  0.80693     N
N       0.2629  0.94474  0.30693     N
C       0.2668   0.0663  0.76114     C
C       0.2668   0.4337  0.26114     C
C       0.2771  0.54937  0.60613     C
C       0.2771  0.95063  0.10613     C
H       0.2841   0.1804    0.222     H
H       0.2841   0.3196    0.722     H
C       0.2855   0.6154  0.73535     C
C       0.2855   0.8846  0.23535     C
N       0.2912  0.09804  0.31821     N
N       0.2912  0.40196  0.81821     N
Cd     0.29653  0.15909  0.54182    Cd
Cd     0.29653  0.34091  0.04182    Cd
C       0.3135    0.168  0.25242     C
C       0.3135    0.332  0.75242     C
H       0.3227   0.5999   0.2605     H
H       0.3227   0.9001   0.7605     H
H       0.3235   0.2091   0.9153     H
H       0.3235   0.2909   0.4153     H
H       0.3262   0.0395   0.7454     H
H       0.3262   0.4605   0.2454     H
Cd     0.32895  0.52271  0.35622    Cd
Cd     0.32895  0.97729  0.85622    Cd
H       0.3292   0.1029   0.9315     H
H       0.3292   0.3971   0.4315     H
O       0.3301  0.22772   0.6129     O
O       0.3301  0.27228   0.1129     O
H       0.3313   0.5991   0.0636     H
H       0.3313   0.9009   0.5636     H
C       0.3398   0.6246   0.0354     C
C       0.3398   0.8754   0.5354     C
N       0.3428  0.59486  0.58116     N
N       0.3428  0.90514  0.08116     N
C       0.3441  0.63696  0.44158     C
C       0.3441  0.86304  0.94158     C
C       0.3493   0.5948  0.82865     C
C       0.3493   0.9052  0.32865     C
N       0.3567  0.72138  0.50126     N
N       0.3567  0.77862  0.00126     N
H       0.3611   0.1724   0.8684     H
H       0.3611   0.3276   0.3684     H
C       0.3632   0.0374  0.16388     C
C       0.3632   0.4626  0.66388     C
H       0.3673    0.704   0.0743     H
H       0.3673    0.796   0.5743     H
H       0.3716   0.5882   0.8609     H
H       0.3716   0.9118   0.3609     H
C       0.3725  0.04295  0.60197     C
C       0.3725  0.45705  0.10197     C
C       0.3737  0.51425   0.6295     C
C       0.3737  0.98575   0.1295     C
C       0.3747  0.65575  0.75727     C
C       0.3747  0.84425  0.25727     C
H       0.3895   0.6027   0.0109     H
H       0.3895   0.8973   0.5109     H
C       0.3915   0.1838   0.9002     C
C       0.3915   0.3162   0.4002     C
O       0.3954  0.61327  0.40394     O
O       0.3954  0.88673  0.90394     O
C       0.3985  0.12568  0.33908     C
C       0.3985  0.37432  0.83908     C
C       0.4015  0.69626  0.45873     C
C       0.4015  0.80374  0.95873     C
H       0.4032   0.7152   0.6993     H
H       0.4032   0.7848   0.1993     H
C       0.4056   0.6443  0.80527     C
C       0.4056   0.8557  0.30527     C
C       0.4138    0.126  0.93013     C
C       0.4138    0.374  0.43013     C
C       0.4149  0.23211  0.10425     C
C       0.4149  0.26789  0.60425     C
C       0.4156  0.68326   0.0484     C
C       0.4156  0.81674   0.5484     C
C         0.42  0.19821  0.27486     C
C         0.42  0.30179  0.77486     C
O       0.4289  0.50095   0.1251     O
O       0.4289  0.99905   0.6251     O
H       0.4297   0.1104   0.3685     H
H       0.4297   0.3896   0.8685     H
C       0.4301  0.72652  0.00698     C
C       0.4301  0.77348  0.50698     C
C       0.4315  0.70901  0.73101     C
C       0.4315  0.79099  0.23101     C
O       0.4322  0.18592  0.13404     O
O       0.4322  0.31408  0.63404     O
O       0.4361  0.07859  0.57533     O
O       0.4361  0.42141  0.07533     O
H       0.4372    0.138   0.9629     H
H       0.4372    0.362   0.4629     H
H       0.4548   0.2413   0.7189     H
H       0.4548   0.2587   0.2189     H
H       0.4625   0.6935   0.1648     H
H       0.4625   0.8065   0.6648     H
C       0.4642   0.1753  0.31928     C
C       0.4642   0.3247  0.81928     C
H       0.4649   0.6704   0.8217     H
H       0.4649   0.8296   0.3217     H
O        0.466  0.05793  0.18322     O
O        0.466  0.44207  0.68322     O
H       0.4756   0.2063   0.8978     H
H       0.4756   0.2937   0.3978     H
C       0.4769  0.58577  0.58932     C
C       0.4769  0.91423  0.08932     C
C       0.4811  0.24817  0.75072     C
C       0.4811  0.25183  0.25072     C
N       0.4817   0.2171  0.52909     N
N       0.4817   0.2829  0.02909     N
H       0.4942   0.1725   0.4398     H
H       0.4942   0.3275   0.9398     H
C       0.4983  0.23423  0.05997     C
C       0.4983  0.26577  0.55997     C
N       0.4995  0.53701   0.6185     N
N       0.4995  0.96299   0.1185     N
N       0.5005  0.03701   0.8815     N
N       0.5005  0.46299   0.3815     N
C       0.5017  0.73423  0.44003     C
C       0.5017  0.76577  0.94003     C
H       0.5058   0.6725   0.0602     H
H       0.5058   0.8275   0.5602     H
N       0.5183   0.7171  0.97091     N
N       0.5183   0.7829  0.47091     N
C       0.5189  0.74817  0.74928     C
C       0.5189  0.75183  0.24928     C
C       0.5231  0.08577  0.91068     C
C       0.5231  0.41423  0.41068     C
H       0.5244   0.7063   0.6022     H
H       0.5244   0.7937   0.1022     H
O        0.534  0.55793  0.31678     O
O        0.534  0.94207  0.81678     O
H       0.5351   0.1704   0.6783     H
H       0.5351   0.3296   0.1783     H
C       0.5358   0.6753  0.18072     C
C       0.5358   0.8247  0.68072     C
H       0.5375   0.1935   0.3352     H
H       0.5375   0.3065   0.8352     H
H       0.5452   0.7413   0.7811     H
H       0.5452   0.7587   0.2811     H
H       0.5628    0.638   0.5371     H
H       0.5628    0.862   0.0371     H
O       0.5639  0.57859  0.92467     O
O       0.5639  0.92141  0.42467     O
O       0.5678  0.68592  0.36596     O
O       0.5678  0.81408  0.86596     O
C       0.5685  0.20901  0.76899     C
C       0.5685  0.29099  0.26899     C
C       0.5699  0.22652  0.49302     C
C       0.5699  0.27348  0.99302     C
H       0.5703   0.6104   0.1315     H
H       0.5703   0.8896   0.6315     H
O       0.5711  0.00095   0.3749     O
O       0.5711  0.49905   0.8749     O
C         0.58  0.69821  0.22514     C
C         0.58  0.80179  0.72514     C
C       0.5844  0.18326   0.4516     C
C       0.5844  0.31674   0.9516     C
C       0.5851  0.73211  0.39575     C
C       0.5851  0.76789  0.89575     C
C       0.5862    0.626  0.56987     C
C       0.5862    0.874  0.06987     C
C       0.5944   0.1443  0.69473     C
C       0.5944   0.3557  0.19473     C
H       0.5968   0.2152   0.8007     H
H       0.5968   0.2848   0.3007     H
C       0.5985  0.19626  0.04127     C
C       0.5985  0.30374  0.54127     C
C       0.6015  0.62568  0.16092     C
C       0.6015  0.87432  0.66092     C
O       0.6046  0.11327  0.09606     O
O       0.6046  0.38673  0.59606     O
C       0.6085   0.6838   0.5998     C
C       0.6085   0.8162   0.0998     C
H       0.6105   0.1027   0.4891     H
H       0.6105   0.3973   0.9891     H
C       0.6253  0.15575  0.74273     C
C       0.6253  0.34425  0.24273     C
C       0.6263  0.01425   0.8705     C
C       0.6263  0.48575   0.3705     C
C       0.6275  0.54295  0.89803     C
C       0.6275  0.95705  0.39803     C
H       0.6284   0.0882   0.6391     H
H       0.6284   0.4118   0.1391     H
H       0.6327    0.204   0.4257     H
H       0.6327    0.296   0.9257     H
C       0.6368   0.5374  0.33612     C
C       0.6368   0.9626  0.83612     C
H       0.6389   0.6724   0.6316     H
H       0.6389   0.8276   0.1316     H
N       0.6433  0.22138  0.99874     N
N       0.6433  0.27862  0.49874     N
C       0.6507   0.0948  0.67135     C
C       0.6507   0.4052  0.17135     C
C       0.6559  0.13696  0.05842     C
C       0.6559  0.36304  0.55842     C
N       0.6572  0.09486  0.91884     N
N       0.6572  0.40514  0.41884     N
C       0.6602   0.1246   0.4646     C
C       0.6602   0.3754   0.9646     C
H       0.6687   0.0991   0.4364     H
H       0.6687   0.4009   0.9364     H
O       0.6699  0.72772   0.8871     O
O       0.6699  0.77228   0.3871     O
H       0.6708   0.6029   0.5685     H
H       0.6708   0.8971   0.0685     H
Cd     0.67105  0.02271  0.14378    Cd
Cd     0.67105  0.47729  0.64378    Cd
H       0.6738   0.5395   0.7546     H
H       0.6738   0.9605   0.2546     H
H       0.6765   0.7091   0.5847     H
H       0.6765   0.7909   0.0847     H
H       0.6773   0.0999   0.2395     H
H       0.6773   0.4001   0.7395     H
C       0.6865    0.668  0.24758     C
C       0.6865    0.832  0.74758     C
Cd     0.70347  0.65909  0.95818    Cd
Cd     0.70347  0.84091  0.45818    Cd
N       0.7088  0.59804  0.18179     N
N       0.7088  0.90196  0.68179     N
C       0.7145   0.1154  0.76465     C
C       0.7145   0.3846  0.26465     C
H       0.7159   0.6804    0.278     H
H       0.7159   0.8196    0.778     H
C       0.7229  0.04937  0.89387     C
C       0.7229  0.45063  0.39387     C
C       0.7332   0.5663  0.73886     C
C       0.7332   0.9337  0.23886     C
N       0.7371  0.05526  0.69307     N
N       0.7371  0.44474  0.19307     N
H       0.7394   0.1213   0.7967     H
H       0.7394   0.3787   0.2967     H
O       0.7412  0.05884  0.32704     O
O       0.7412  0.44116  0.82704     O
O       0.7484   0.6132  0.03454     O
O       0.7484   0.8868  0.53454     O
C       0.7491  0.61901  0.22444     C
C       0.7491  0.88099  0.72444     C
H       0.7494   0.1349   0.4765     H
H       0.7494   0.3651   0.9765     H
H       0.7506   0.6349   0.4765     H
H       0.7506   0.8651   0.9765     H
C       0.7509  0.11901  0.22444     C
C       0.7509  0.38099  0.72444     C
O       0.7516   0.1132  0.03454     O
O       0.7516   0.3868  0.53454     O
O       0.7588  0.55884  0.32704     O
O       0.7588  0.94116  0.82704     O
H       0.7606   0.6213   0.7967     H
H       0.7606   0.8787   0.2967     H
N       0.7629  0.55526  0.69307     N
N       0.7629  0.94474  0.19307     N
C       0.7668   0.0663  0.73886     C
C       0.7668   0.4337  0.23886     C
C       0.7771  0.54937  0.89387     C
C       0.7771  0.95063  0.39387     C
H       0.7841   0.1804    0.278     H
H       0.7841   0.3196    0.778     H
C       0.7855   0.6154  0.76465     C
C       0.7855   0.8846  0.26465     C
N       0.7912  0.09804  0.18179     N
N       0.7912  0.40196  0.68179     N
Cd     0.79653  0.15909  0.95818    Cd
Cd     0.79653  0.34091  0.45818    Cd
C       0.8135    0.168  0.24758     C
C       0.8135    0.332  0.74758     C
H       0.8227   0.5999   0.2395     H
H       0.8227   0.9001   0.7395     H
H       0.8235   0.2091   0.5847     H
H       0.8235   0.2909   0.0847     H
H       0.8262   0.0395   0.7546     H
H       0.8262   0.4605   0.2546     H
Cd     0.82895  0.52271  0.14378    Cd
Cd     0.82895  0.97729  0.64378    Cd
H       0.8292   0.1029   0.5685     H
H       0.8292   0.3971   0.0685     H
O       0.8301  0.22772   0.8871     O
O       0.8301  0.27228   0.3871     O
H       0.8313   0.5991   0.4364     H
H       0.8313   0.9009   0.9364     H
C       0.8398   0.6246   0.4646     C
C       0.8398   0.8754   0.9646     C
N       0.8428  0.59486  0.91884     N
N       0.8428  0.90514  0.41884     N
C       0.8441  0.63696  0.05842     C
C       0.8441  0.86304  0.55842     C
C       0.8493   0.5948  0.67135     C
C       0.8493   0.9052  0.17135     C
N       0.8567  0.72138  0.99874     N
N       0.8567  0.77862  0.49874     N
H       0.8611   0.1724   0.6316     H
H       0.8611   0.3276   0.1316     H
C       0.8632   0.0374  0.33612     C
C       0.8632   0.4626  0.83612     C
H       0.8673    0.704   0.4257     H
H       0.8673    0.796   0.9257     H
H       0.8716   0.5882   0.6391     H
H       0.8716   0.9118   0.1391     H
C       0.8725  0.04295  0.89803     C
C       0.8725  0.45705  0.39803     C
C       0.8737  0.51425   0.8705     C
C       0.8737  0.98575   0.3705     C
C       0.8747  0.65575  0.74273     C
C       0.8747  0.84425  0.24273     C
H       0.8895   0.6027   0.4891     H
H       0.8895   0.8973   0.9891     H
C       0.8915   0.1838   0.5998     C
C       0.8915   0.3162   0.0998     C
O       0.8954  0.61327  0.09606     O
O       0.8954  0.88673  0.59606     O
C       0.8985  0.12568  0.16092     C
C       0.8985  0.37432  0.66092     C
C       0.9015  0.69626  0.04127     C
C       0.9015  0.80374  0.54127     C
H       0.9032   0.7152   0.8007     H
H       0.9032   0.7848   0.3007     H
C       0.9056   0.6443  0.69473     C
C       0.9056   0.8557  0.19473     C
C       0.9138    0.126  0.56987     C
C       0.9138    0.374  0.06987     C
C       0.9149  0.23211  0.39575     C
C       0.9149  0.26789  0.89575     C
C       0.9156  0.68326   0.4516     C
C       0.9156  0.81674   0.9516     C
C         0.92  0.19821  0.22514     C
C         0.92  0.30179  0.72514     C
O       0.9289  0.50095   0.3749     O
O       0.9289  0.99905   0.8749     O
H       0.9297   0.1104   0.1315     H
H       0.9297   0.3896   0.6315     H
C       0.9301  0.72652  0.49302     C
C       0.9301  0.77348  0.99302     C
C       0.9315  0.70901  0.76899     C
C       0.9315  0.79099  0.26899     C
O       0.9322  0.18592  0.36596     O
O       0.9322  0.31408  0.86596     O
O       0.9361  0.07859  0.92467     O
O       0.9361  0.42141  0.42467     O
H       0.9372    0.138   0.5371     H
H       0.9372    0.362   0.0371     H
H       0.9548   0.2413   0.7811     H
H       0.9548   0.2587   0.2811     H
H       0.9625   0.6935   0.3352     H
H       0.9625   0.8065   0.8352     H
C       0.9642   0.1753  0.18072     C
C       0.9642   0.3247  0.68072     C
H       0.9649   0.6704   0.6783     H
H       0.9649   0.8296   0.1783     H
O        0.966  0.05793  0.31678     O
O        0.966  0.44207  0.81678     O
H       0.9756   0.2063   0.6022     H
H       0.9756   0.2937   0.1022     H
C       0.9769  0.58577  0.91068     C
C       0.9769  0.91423  0.41068     C
C       0.9811  0.24817  0.74928     C
C       0.9811  0.25183  0.24928     C
N       0.9817   0.2171  0.97091     N
N       0.9817   0.2829  0.47091     N
H       0.9942   0.1725   0.0602     H
H       0.9942   0.3275   0.5602     H
C       0.9983  0.23423  0.44003     C
C       0.9983  0.26577  0.94003     C
N       0.9995  0.53701   0.8815     N
N       0.9995  0.96299   0.3815     N
