data_I
_chemical_name_common  '/home/zhangsd/repos/MofS-CGCNN/ML/data/SSD/clean_cifs/SEGBIR_clean'
_cell_length_a  4.80130
_cell_length_b 19.49510
_cell_length_c 19.49510
_cell_angle_alpha 60.66660
_cell_angle_beta  85.29100
_cell_angle_gamma 94.70900
_space_group_name_H-M_alt      'P 1'


loop_
_space_group_symop_operation_xyz
  'x, y, z' 

loop_
_atom_site_label
_atom_site_fract_x
_atom_site_fract_y
_atom_site_fract_z
_atom_site_type_symbol
Cu         0.0      0.0      0.5    Cu
Cu         0.0      0.5     -0.0    Cu
C      0.01077  0.44715  0.89914     C
C      0.02821  0.55931  0.17328     C
H       0.0405   0.1869   0.4425     H
C      0.07348  0.18637  0.19983     C
H       0.0745   0.2591   0.0811     H
H       0.0792   0.8512    0.794     H
C      0.08144  0.57407  0.30525     C
H       0.0837   0.5902   0.4001     H
C      0.09009  0.10086  0.34629     C
C      0.09014  0.37715  0.74893     C
C      0.11289   0.3862  0.81363     C
C      0.11493  0.84371  0.51692     C
O      0.12666  0.94199  0.64811     O
H       0.1268    0.206   0.6452     H
O       0.1373  0.50827  0.08757     O
H       0.1464   0.6294   0.8131     H
N      0.14963  0.56988  0.37279     N
H       0.1556   0.0811   0.6598     H
C      0.16093  0.25107  0.12608     C
H       0.1836   0.6928   0.5251     H
H       0.1846   0.3402   0.7409     H
O      0.18467   0.4099  0.94199     O
N      0.19147   0.9209  0.48569     N
C      0.19603  0.51149   0.2265     C
C      0.20149  0.17328  0.26741     C
C      0.22021  0.51875  0.29442     C
O      0.22487  0.08757  0.40416     O
O      0.22523  0.35189   0.5901     O
H        0.228   0.3548   0.8512     H
N      0.27057  0.59341   0.9209     N
C      0.27122  0.63937  0.84371     C
C      0.27331  0.19983   0.6138     C
C      0.28701  0.12608  0.62285     C
H       0.2913   0.4749   0.2179     H
C      0.29854  0.81317  0.48125     C
C      0.31546  0.73799  0.48851     C
N      0.32284  0.51431  0.40659     N
C      0.36815  0.48308  0.36063     C
O      0.37097  0.59584  0.49173     O
C      0.38669  0.30525  0.12068     C
N      0.42025  0.94267  0.43012     N
C      0.42253   0.2265  0.26201     C
C      0.43638  0.34629  0.55285     C
C       0.4689  0.26741  0.55931     C
N      0.47758  0.62721  0.94267     N
H        0.483   0.4425   0.3706     H
H       0.4838   0.4001   0.0097     H
C      0.48537  0.70558  0.81317     C
H       0.4908   0.7821   0.6928     H
C      0.49263  0.87932  0.42593     C
H       0.4935   0.0097   0.5902     H
Cu         0.5      0.5      0.5    Cu
H       0.5065   0.9903   0.4098     H
C      0.50737  0.12068  0.57407     C
H       0.5092   0.2179   0.3072     H
C      0.51463  0.29442  0.18683     C
H       0.5162   0.5999   0.9903     H
H        0.517   0.5575   0.6294     H
N      0.52242  0.37279  0.05733     N
C       0.5311  0.73259  0.44069     C
C      0.56362  0.65371  0.44715     C
C      0.57747   0.7735  0.73799     C
N      0.57975  0.05733  0.56988     N
C      0.61331  0.69475  0.87932     C
O      0.62903  0.40416  0.50827     O
C      0.63185  0.51692  0.63937     C
N      0.67716  0.48569  0.59341     N
C      0.68454  0.26201  0.51149     C
C      0.70146  0.18683  0.51875     C
H       0.7087   0.5251   0.7821     H
C      0.71299  0.87392  0.37715     C
C      0.72669  0.80017   0.3862     C
C      0.72878  0.36063  0.15629     C
N      0.72943  0.40659   0.0791     N
H        0.772   0.6452   0.1488     H
O      0.77477  0.64811   0.4099     O
O      0.77513  0.91243  0.59584     O
C      0.77979  0.48125  0.70558     C
C      0.79851  0.82672  0.73259     C
C      0.80397  0.48851   0.7735     C
N      0.80853   0.0791  0.51431     N
O      0.81533   0.5901  0.05801     O
H       0.8154   0.6598   0.2591     H
H       0.8164   0.3072   0.4749     H
C      0.83907  0.74893  0.87392     C
H       0.8444   0.9189   0.3402     H
N      0.85037  0.43012  0.62721     N
H       0.8536   0.3706   0.1869     H
O       0.8627  0.49173  0.91243     O
H       0.8732    0.794   0.3548     H
O      0.87334  0.05801  0.35189     O
C      0.88507  0.15629  0.48308     C
C      0.88711   0.6138  0.18637     C
C      0.90986  0.62285  0.25107     C
C      0.90991  0.89914  0.65371     C
H       0.9163   0.4098   0.5999     H
C      0.91856  0.42593  0.69475     C
H       0.9208   0.1488    0.206     H
H       0.9255   0.7409   0.9189     H
C      0.92652  0.81363  0.80017     C
H       0.9595   0.8131   0.5575     H
C      0.97179  0.44069  0.82672     C
C      0.98923  0.55285  0.10086     C
