data_I
_chemical_name_common  '/home/zhangsd/repos/MofS-CGCNN/ML/data/SSD/clean_cifs/SEHTEF_clean'
_cell_length_a 10.83880
_cell_length_b 10.94210
_cell_length_c 15.59180
_cell_angle_alpha 90.00000
_cell_angle_beta  90.00000
_cell_angle_gamma 100.51300
_space_group_name_H-M_alt      'P 1'


loop_
_space_group_symop_operation_xyz
  'x, y, z' 

loop_
_atom_site_label
_atom_site_fract_x
_atom_site_fract_y
_atom_site_fract_z
_atom_site_type_symbol
C       0.0039   0.8006   0.6374     C
C       0.0184   0.7178   0.7019     C
O       0.0494   0.5597   0.8372     O
H       0.0515   0.3187   0.2665     H
O       0.0626   0.6621  0.06292     O
H       0.1012   0.9112   0.5472     H
C       0.1091   0.8547   0.5905     C
C       0.1217   0.1642   0.3782     C
C       0.1342   0.6873    0.721     C
O       0.1358   0.0905  0.43627     O
Y      0.14338  0.39735  0.89791     Y
C       0.1437    0.596   0.7909     C
C       0.1599   0.6158   0.0562     C
O       0.1712   0.5259  0.01004     O
H       0.1842   0.7788   0.1851     H
O       0.2115   0.2123  0.33012     O
C       0.2268   0.8244   0.6081     C
C       0.2378   0.7412   0.6732     C
O       0.2433   0.5545  0.80088     O
O       0.2567   0.9455  0.30088     O
C       0.2622   0.7588   0.1732     C
C       0.2732   0.6756   0.1081     C
O       0.2885   0.2877  0.83012     O
H       0.3158   0.7212   0.6851     H
O       0.3288   0.9741  0.51004     O
C       0.3401   0.8842   0.5562     C
C       0.3563    0.904   0.2909     C
Y      0.35662  0.10265  0.39791     Y
O       0.3642   0.4095  0.93627     O
C       0.3658   0.8127    0.221     C
C       0.3783   0.3358   0.8782     C
C       0.3909   0.6453   0.0905     C
H       0.3988   0.5888   0.0472     H
O       0.4374   0.8379  0.56292     O
H       0.4485   0.1813   0.7665     H
O       0.4506   0.9403   0.3372     O
C       0.4816   0.7822   0.2019     C
C       0.4961   0.6994   0.1374     C
C       0.5039   0.3006   0.8626     C
C       0.5184   0.2178   0.7981     C
O       0.5494   0.0597   0.6628     O
H       0.5515   0.8187   0.2335     H
O       0.5626   0.1621  0.43708     O
H       0.6012   0.4112   0.9528     H
C       0.6091   0.3547   0.9095     C
C       0.6217   0.6642   0.1218     C
C       0.6342   0.1873    0.779     C
O       0.6358   0.5905  0.06373     O
Y      0.64338  0.89735  0.60209     Y
C       0.6437    0.096   0.7091     C
C       0.6599   0.1158   0.4438     C
O       0.6712   0.0259  0.48996     O
H       0.6842   0.2788   0.3149     H
O       0.7115   0.7123  0.16988     O
C       0.7268   0.3244   0.8919     C
C       0.7378   0.2412   0.8268     C
O       0.7433   0.0545  0.69912     O
O       0.7567   0.4455  0.19912     O
C       0.7622   0.2588   0.3268     C
C       0.7732   0.1756   0.3919     C
O       0.7885   0.7877  0.66988     O
H       0.8158   0.2212   0.8149     H
O       0.8288   0.4741  0.98996     O
C       0.8401   0.3842   0.9438     C
C       0.8563    0.404   0.2091     C
Y      0.85662  0.60265  0.10209     Y
O       0.8642   0.9095  0.56373     O
C       0.8658   0.3127    0.279     C
C       0.8783   0.8358   0.6218     C
C       0.8909   0.1453   0.4095     C
H       0.8988   0.0888   0.4528     H
O       0.9374   0.3379  0.93708     O
H       0.9485   0.6813   0.7335     H
O       0.9506   0.4403   0.1628     O
C       0.9816   0.2822   0.2981     C
C       0.9961   0.1994   0.3626     C
