data_I
_chemical_name_common  '/home/zhangsd/repos/MofS-CGCNN/ML/data/SSD/clean_cifs/SEJBAL_clean'
_cell_length_a  8.24200
_cell_length_b 11.25900
_cell_length_c 12.89810
_cell_angle_alpha 104.23900
_cell_angle_beta  108.63300
_cell_angle_gamma 90.00000
_space_group_name_H-M_alt      'P 1'


loop_
_space_group_symop_operation_xyz
  'x, y, z' 

loop_
_atom_site_label
_atom_site_fract_x
_atom_site_fract_y
_atom_site_fract_z
_atom_site_type_symbol
H       0.0064    0.803   0.7418     H
O      0.01337   0.5376  0.45694     O
C       0.0495   0.9556   0.6966     C
C       0.0577   0.8317    0.697     C
H       0.0969    0.402   0.7766     H
H       0.0974   0.2044   0.7832     H
C        0.104   0.3425   0.7142     C
C       0.1077   0.2244   0.7198     C
N      0.10978   0.3793  0.62376     N
C       0.1188   0.2888   0.5358     C
H       0.1195   0.3106    0.471     H
Ni     0.12014  0.56326   0.6287    Ni
C       0.1268   0.1312   0.6304     C
C       0.1272   0.1681   0.5352     C
C       0.1322    0.001   0.6316     C
H       0.1332   0.1105   0.4714     H
N      0.13529   0.7511  0.63598     N
C       0.2129   0.9193   0.5736     C
C        0.214    0.797    0.577     C
O      0.24749   0.6139  0.80278     O
H       0.2531    0.993   0.2618     H
H       0.2646    0.197   0.2582     H
H       0.2694   0.9458   0.5304     H
H       0.2722   0.7447    0.536     H
H       0.3142   0.7956   0.2168     H
H       0.3203    0.598   0.2234     H
O      0.34528    0.552  0.59176     O
C       0.3529   0.0444   0.3034     C
C       0.3607   0.1683    0.303     C
C       0.3879   0.7756   0.2802     C
C       0.3898   0.6575   0.2858     C
C       0.4078   0.6173   0.8224     C
O      0.44471   0.3861  0.19722     O
C       0.4692   0.4904   0.6088     C
N      0.48602   0.6207  0.37624     N
Ni     0.49144  0.43674   0.3713    Ni
C       0.4953   0.4997   0.8114     C
C       0.4964   0.8688   0.3696     C
N      0.49931   0.2489  0.36402     N
C       0.5006    0.999   0.3684     C
O       0.5036      0.5      1.0     O
O      0.50515   0.7156   0.8611     O
C       0.5293   0.4412    0.713     C
C       0.5466   0.4447   0.9034     C
O      0.55643   0.4624  0.54306     O
C        0.583   0.7112   0.4642     C
C       0.5854   0.3827   0.1776     C
C        0.592   0.8319   0.4648     C
C       0.6162   0.3359   0.7086     C
C       0.6325   0.3398   0.8982     C
C        0.637    0.203    0.423     C
C       0.6393   0.0807   0.4264     C
H       0.6417   0.2993   0.6432     H
C       0.6432   0.5553   0.0966     C
O      0.64405   0.2844   0.1389     O
H       0.6485   0.6894    0.529     H
H       0.6618   0.8895   0.5286     H
C       0.6657   0.2842   0.7998     C
H       0.6677   0.3067   0.9602     H
C       0.6839   0.5003   0.1886     C
H       0.7075   0.6933   0.0398     H
H       0.7212   0.2121   0.7948     H
C       0.7343   0.6602   0.1018     C
H       0.7362   0.2553    0.464     H
H        0.739   0.0542   0.4696     H
O      0.75352    0.448  0.40824     O
C       0.8163   0.5588    0.287     C
C       0.8604   0.5096   0.3912     C
C       0.8659   0.7158   0.2002     C
C       0.9076   0.6641   0.2914     C
H       0.9264   0.7879   0.2052     H
H       0.9913    0.007   0.7382     H
H       0.9985   0.7007   0.3568     H
