data_I
_chemical_name_common  '/home/zhangsd/repos/MofS-CGCNN/ML/data/SSD/clean_cifs/SENVIR_clean'
_cell_length_a 22.03060
_cell_length_b 22.03060
_cell_length_c 22.03060
_cell_angle_alpha 109.47100
_cell_angle_beta  109.47100
_cell_angle_gamma 109.47100
_space_group_name_H-M_alt      'P 1'


loop_
_space_group_symop_operation_xyz
  'x, y, z' 

loop_
_atom_site_label
_atom_site_fract_x
_atom_site_fract_y
_atom_site_fract_z
_atom_site_type_symbol
C          0.0   0.0616    0.443     C
N          0.0   0.0647   0.6011     N
C          0.0   0.1324   0.4602     C
C          0.0   0.2649   0.4969     C
C          0.0    0.336     0.52     C
N          0.0   0.3989   0.9353     N
C          0.0    0.443   0.0616     C
C          0.0   0.4602   0.1324     C
C          0.0     0.48    0.664     C
C          0.0   0.4969   0.2649     C
C          0.0   0.5031   0.7351     C
C          0.0     0.52    0.336     C
C          0.0   0.5398   0.8676     C
C          0.0    0.557   0.9384     C
N          0.0   0.6011   0.0647     N
C          0.0    0.664     0.48     C
C          0.0   0.7351   0.5031     C
C          0.0   0.8676   0.5398     C
N          0.0   0.9353   0.3989     N
C          0.0   0.9384    0.557     C
O       0.0568   0.3938   0.5576     O
O       0.0568   0.4992    0.663     O
O       0.0568   0.5576   0.3938     O
O       0.0568    0.663   0.4992     O
C       0.0616      0.0    0.443     C
C       0.0616   0.0616   0.6186     C
C       0.0616    0.443      0.0     C
C       0.0616   0.6186   0.0616     C
C       0.0637   0.1985    0.509     C
C       0.0637    0.509   0.1985     C
C       0.0637   0.5547   0.8652     C
C       0.0637   0.8652   0.5547     C
N       0.0647      0.0   0.6011     N
N       0.0647   0.0647   0.4636     N
N       0.0647   0.4636   0.0647     N
N       0.0647   0.6011      0.0     N
C       0.0671   0.2669   0.5234     C
C       0.0671   0.5234   0.2669     C
C       0.0671   0.5437   0.8002     C
C       0.0671   0.8002   0.5437     C
H       0.0915   0.1986   0.6645     H
H       0.0915    0.427   0.8929     H
H       0.0915   0.6645   0.1986     H
H       0.0915   0.8929    0.427     H
Co      0.0924      0.5   0.5924    Co
Co      0.0924   0.5924      0.5    Co
H       0.1071   0.1986   0.5341     H
H       0.1071   0.5341   0.1986     H
H       0.1071    0.573   0.9085     H
H       0.1071   0.9085    0.573     H
H       0.1121   0.3111   0.5494     H
H       0.1121   0.5494   0.3111     H
H       0.1121   0.5627    0.801     H
H       0.1121    0.801   0.5627     H
C       0.1324      0.0   0.4602     C
C       0.1324   0.1324   0.6722     C
C       0.1324   0.4602      0.0     C
C       0.1324   0.6722   0.1324     C
C       0.1348   0.1985   0.6895     C
C       0.1348   0.4453   0.9363     C
C       0.1348   0.6895   0.1985     C
C       0.1348   0.9363   0.4453     C
O       0.1638   0.5008   0.5576     O
O       0.1638   0.5576   0.5008     O
O       0.1638   0.6062    0.663     O
O       0.1638    0.663   0.6062     O
C        0.184     0.52     0.52     C
C        0.184    0.664    0.664     C
C       0.1985   0.0637    0.509     C
C       0.1985   0.1348   0.6895     C
C       0.1985    0.509   0.0637     C
C       0.1985   0.6895   0.1348     C
H       0.1986   0.0915   0.6645     H
H       0.1986   0.1071   0.5341     H
H       0.1986   0.5341   0.1071     H
H       0.1986   0.6645   0.0915     H
H        0.199   0.3111   0.7617     H
H        0.199   0.4373   0.8879     H
H        0.199   0.7617   0.3111     H
H        0.199   0.8879   0.4373     H
C       0.1998   0.2669   0.7435     C
C       0.1998   0.4563   0.9329     C
C       0.1998   0.7435   0.2669     C
C       0.1998   0.9329   0.4563     C
C        0.232   0.4969   0.4969     C
C        0.232   0.7351   0.7351     C
H       0.2383   0.4373   0.5494     H
H       0.2383   0.5494   0.4373     H
H       0.2383   0.6889    0.801     H
H       0.2383    0.801   0.6889     H
C       0.2565   0.4563   0.5234     C
C       0.2565   0.5234   0.4563     C
C       0.2565   0.7331   0.8002     C
C       0.2565   0.8002   0.7331     C
C       0.2649      0.0   0.4969     C
C       0.2649   0.2649    0.768     C
C       0.2649   0.4969     -0.0     C
C       0.2649    0.768   0.2649     C
C       0.2669   0.0671   0.5234     C
C       0.2669   0.1998   0.7435     C
C       0.2669   0.5234   0.0671     C
C       0.2669   0.7435   0.1998     C
C       0.3105   0.4453    0.509     C
C       0.3105    0.509   0.4453     C
C       0.3105   0.8015   0.8652     C
C       0.3105   0.8652   0.8015     C
H       0.3111   0.1121   0.5494     H
H       0.3111    0.199   0.7617     H
H       0.3111   0.5494   0.1121     H
H       0.3111   0.7617    0.199     H
C       0.3278   0.4602   0.4602     C
C       0.3278   0.8676   0.8676     C
H       0.3355    0.427   0.5341     H
H       0.3355   0.5341    0.427     H
H       0.3355   0.8014   0.9085     H
H       0.3355   0.9085   0.8014     H
C        0.336      0.0     0.52     C
C        0.336    0.336    0.816     C
C        0.336     0.52      0.0     C
C        0.336    0.816    0.336     C
O        0.337   0.3938   0.8362     O
O        0.337   0.5008   0.9432     O
O        0.337   0.8362   0.3938     O
O        0.337   0.9432   0.5008     O
C       0.3814    0.443    0.443     C
C       0.3814   0.9384   0.9384     C
O       0.3938   0.0568   0.5576     O
O       0.3938    0.337   0.8362     O
O       0.3938   0.5576   0.0568     O
O       0.3938   0.8362    0.337     O
N       0.3989      0.0   0.9353     N
N       0.3989   0.3989   0.4636     N
N       0.3989   0.4636   0.3989     N
N       0.3989   0.9353      0.0     N
Co      0.4076      0.5   0.9076    Co
Co      0.4076   0.9076      0.5    Co
H        0.427   0.0915   0.8929     H
H        0.427   0.3355   0.5341     H
H        0.427   0.5341   0.3355     H
H        0.427   0.8929   0.0915     H
H       0.4373    0.199   0.8879     H
H       0.4373   0.2383   0.5494     H
H       0.4373   0.5494   0.2383     H
H       0.4373   0.8879    0.199     H
O       0.4424   0.4992   0.8362     O
O       0.4424   0.6062   0.9432     O
O       0.4424   0.8362   0.4992     O
O       0.4424   0.9432   0.6062     O
C        0.443      0.0   0.0616     C
C        0.443   0.0616      0.0     C
C        0.443   0.3814    0.443     C
C        0.443    0.443   0.3814     C
C       0.4453   0.1348   0.9363     C
C       0.4453   0.3105    0.509     C
C       0.4453    0.509   0.3105     C
C       0.4453   0.9363   0.1348     C
H       0.4506   0.5627   0.7617     H
H       0.4506   0.6889   0.8879     H
H       0.4506   0.7617   0.5627     H
H       0.4506   0.8879   0.6889     H
C       0.4563   0.1998   0.9329     C
C       0.4563   0.2565   0.5234     C
C       0.4563   0.5234   0.2565     C
C       0.4563   0.9329   0.1998     C
C       0.4602      0.0   0.1324     C
C       0.4602   0.1324      0.0     C
C       0.4602   0.3278   0.4602     C
C       0.4602   0.4602   0.3278     C
N       0.4636   0.0647   0.0647     N
N       0.4636   0.3989   0.3989     N
H       0.4659    0.573   0.6645     H
H       0.4659   0.6645    0.573     H
H       0.4659   0.8014   0.8929     H
H       0.4659   0.8929   0.8014     H
C       0.4766   0.5437   0.7435     C
C       0.4766   0.7331   0.9329     C
C       0.4766   0.7435   0.5437     C
C       0.4766   0.9329   0.7331     C
C         0.48      0.0    0.664     C
C         0.48     0.48    0.816     C
C         0.48    0.664      0.0     C
C         0.48    0.816     0.48     C
C        0.491   0.5547   0.6895     C
C        0.491   0.6895   0.5547     C
C        0.491   0.8015   0.9363     C
C        0.491   0.9363   0.8015     C
C       0.4969      0.0   0.2649     C
C       0.4969    0.232   0.4969     C
C       0.4969   0.2649     -0.0     C
C       0.4969   0.4969    0.232     C
O       0.4992   0.0568    0.663     O
O       0.4992   0.4424   0.8362     O
O       0.4992    0.663   0.0568     O
O       0.4992   0.8362   0.4424     O
Co         0.5   0.0924   0.5924    Co
Co         0.5   0.4076   0.9076    Co
Co         0.5   0.5924   0.0924    Co
Co         0.5   0.9076   0.4076    Co
O       0.5008   0.1638   0.5576     O
O       0.5008    0.337   0.9432     O
O       0.5008   0.5576   0.1638     O
O       0.5008   0.9432    0.337     O
C       0.5031      0.0   0.7351     C
C       0.5031   0.5031    0.768     C
C       0.5031   0.7351      0.0     C
C       0.5031    0.768   0.5031     C
C        0.509   0.0637   0.1985     C
C        0.509   0.1985   0.0637     C
C        0.509   0.3105   0.4453     C
C        0.509   0.4453   0.3105     C
C         0.52      0.0    0.336     C
C         0.52    0.184     0.52     C
C         0.52    0.336     -0.0     C
C         0.52     0.52    0.184     C
C       0.5234   0.0671   0.2669     C
C       0.5234   0.2565   0.4563     C
C       0.5234   0.2669   0.0671     C
C       0.5234   0.4563   0.2565     C
H       0.5341   0.1071   0.1986     H
H       0.5341   0.1986   0.1071     H
H       0.5341   0.3355    0.427     H
H       0.5341    0.427   0.3355     H
N       0.5364   0.6011   0.6011     N
N       0.5364   0.9353   0.9353     N
C       0.5398      0.0   0.8676     C
C       0.5398   0.5398   0.6722     C
C       0.5398   0.6722   0.5398     C
C       0.5398   0.8676      0.0     C
C       0.5437   0.0671   0.8002     C
C       0.5437   0.4766   0.7435     C
C       0.5437   0.7435   0.4766     C
C       0.5437   0.8002   0.0671     C
H       0.5494   0.1121   0.3111     H
H       0.5494   0.2383   0.4373     H
H       0.5494   0.3111   0.1121     H
H       0.5494   0.4373   0.2383     H
C       0.5547   0.0637   0.8652     C
C       0.5547    0.491   0.6895     C
C       0.5547   0.6895    0.491     C
C       0.5547   0.8652   0.0637     C
C        0.557      0.0   0.9384     C
C        0.557    0.557   0.6186     C
C        0.557   0.6186    0.557     C
C        0.557   0.9384     -0.0     C
O       0.5576   0.0568   0.3938     O
O       0.5576   0.1638   0.5008     O
O       0.5576   0.3938   0.0568     O
O       0.5576   0.5008   0.1638     O
H       0.5627   0.1121    0.801     H
H       0.5627   0.4506   0.7617     H
H       0.5627   0.7617   0.4506     H
H       0.5627    0.801   0.1121     H
H        0.573   0.1071   0.9085     H
H        0.573   0.4659   0.6645     H
H        0.573   0.6645   0.4659     H
H        0.573   0.9085   0.1071     H
Co      0.5924   0.0924      0.5    Co
Co      0.5924      0.5   0.0924    Co
N       0.6011      0.0   0.0647     N
N       0.6011   0.0647      0.0     N
N       0.6011   0.5364   0.6011     N
N       0.6011   0.6011   0.5364     N
O       0.6062   0.1638    0.663     O
O       0.6062   0.4424   0.9432     O
O       0.6062    0.663   0.1638     O
O       0.6062   0.9432   0.4424     O
C       0.6186   0.0616   0.0616     C
C       0.6186    0.557    0.557     C
O        0.663   0.0568   0.4992     O
O        0.663   0.1638   0.6062     O
O        0.663   0.4992   0.0568     O
O        0.663   0.6062   0.1638     O
C        0.664      0.0     0.48     C
C        0.664    0.184    0.664     C
C        0.664     0.48      0.0     C
C        0.664    0.664    0.184     C
H       0.6645   0.0915   0.1986     H
H       0.6645   0.1986   0.0915     H
H       0.6645   0.4659    0.573     H
H       0.6645    0.573   0.4659     H
C       0.6722   0.1324   0.1324     C
C       0.6722   0.5398   0.5398     C
H       0.6889   0.2383    0.801     H
H       0.6889   0.4506   0.8879     H
H       0.6889    0.801   0.2383     H
H       0.6889   0.8879   0.4506     H
C       0.6895   0.1348   0.1985     C
C       0.6895   0.1985   0.1348     C
C       0.6895    0.491   0.5547     C
C       0.6895   0.5547    0.491     C
C       0.7331   0.2565   0.8002     C
C       0.7331   0.4766   0.9329     C
C       0.7331   0.8002   0.2565     C
C       0.7331   0.9329   0.4766     C
C       0.7351      0.0   0.5031     C
C       0.7351    0.232   0.7351     C
C       0.7351   0.5031      0.0     C
C       0.7351   0.7351    0.232     C
C       0.7435   0.1998   0.2669     C
C       0.7435   0.2669   0.1998     C
C       0.7435   0.4766   0.5437     C
C       0.7435   0.5437   0.4766     C
H       0.7617    0.199   0.3111     H
H       0.7617   0.3111    0.199     H
H       0.7617   0.4506   0.5627     H
H       0.7617   0.5627   0.4506     H
C        0.768   0.2649   0.2649     C
C        0.768   0.5031   0.5031     C
C       0.8002   0.0671   0.5437     C
C       0.8002   0.2565   0.7331     C
C       0.8002   0.5437   0.0671     C
C       0.8002   0.7331   0.2565     C
H        0.801   0.1121   0.5627     H
H        0.801   0.2383   0.6889     H
H        0.801   0.5627   0.1121     H
H        0.801   0.6889   0.2383     H
H       0.8014   0.3355   0.9085     H
H       0.8014   0.4659   0.8929     H
H       0.8014   0.8929   0.4659     H
H       0.8014   0.9085   0.3355     H
C       0.8015   0.3105   0.8652     C
C       0.8015    0.491   0.9363     C
C       0.8015   0.8652   0.3105     C
C       0.8015   0.9363    0.491     C
C        0.816    0.336    0.336     C
C        0.816     0.48     0.48     C
O       0.8362    0.337   0.3938     O
O       0.8362   0.3938    0.337     O
O       0.8362   0.4424   0.4992     O
O       0.8362   0.4992   0.4424     O
C       0.8652   0.0637   0.5547     C
C       0.8652   0.3105   0.8015     C
C       0.8652   0.5547   0.0637     C
C       0.8652   0.8015   0.3105     C
C       0.8676      0.0   0.5398     C
C       0.8676   0.3278   0.8676     C
C       0.8676   0.5398     -0.0     C
C       0.8676   0.8676   0.3278     C
H       0.8879    0.199   0.4373     H
H       0.8879   0.4373    0.199     H
H       0.8879   0.4506   0.6889     H
H       0.8879   0.6889   0.4506     H
H       0.8929   0.0915    0.427     H
H       0.8929    0.427   0.0915     H
H       0.8929   0.4659   0.8014     H
H       0.8929   0.8014   0.4659     H
Co      0.9076   0.4076      0.5    Co
Co      0.9076      0.5   0.4076    Co
H       0.9085   0.1071    0.573     H
H       0.9085   0.3355   0.8014     H
H       0.9085    0.573   0.1071     H
H       0.9085   0.8014   0.3355     H
C       0.9329   0.1998   0.4563     C
C       0.9329   0.4563   0.1998     C
C       0.9329   0.4766   0.7331     C
C       0.9329   0.7331   0.4766     C
N       0.9353   0.3989      0.0     N
N       0.9353   0.5364   0.9353     N
N       0.9353   0.9353   0.5364     N
N       0.9353      1.0   0.3989     N
C       0.9363   0.1348   0.4453     C
C       0.9363   0.4453   0.1348     C
C       0.9363    0.491   0.8015     C
C       0.9363   0.8015    0.491     C
C       0.9384   0.3814   0.9384     C
C       0.9384    0.557      0.0     C
C       0.9384   0.9384   0.3814     C
C       0.9384      1.0    0.557     C
O       0.9432    0.337   0.5008     O
O       0.9432   0.4424   0.6062     O
O       0.9432   0.5008    0.337     O
O       0.9432   0.6062   0.4424     O
