data_I
_chemical_name_common  '/home/zhangsd/repos/MofS-CGCNN/ML/data/SSD/clean_cifs/SETPEO_clean'
_cell_length_a 19.12700
_cell_length_b 19.12700
_cell_length_c 19.12700
_cell_angle_alpha 109.47100
_cell_angle_beta  109.47100
_cell_angle_gamma 109.47100
_space_group_name_H-M_alt      'P 1'


loop_
_space_group_symop_operation_xyz
  'x, y, z' 

loop_
_atom_site_label
_atom_site_fract_x
_atom_site_fract_y
_atom_site_fract_z
_atom_site_type_symbol
H       0.0021   0.6077   0.2008     H
H       0.0301   0.8106   0.4633     H
C       0.0302   0.4682   0.8082     C
C       0.0373   0.5342   0.9507     C
H       0.0384   0.4333   0.6995     H
N       0.0385   0.0897    0.579     N
C       0.0493   0.5835   0.0866     C
N       0.0512   0.9615   0.5405     N
C       0.0627   0.6333   0.2288     C
C       0.0709   0.4683     0.76     C
C       0.0779   0.5194   0.8969     C
H       0.0831   0.6888   0.3503     H
C       0.0866   0.0493   0.5835     C
N       0.0897    0.579   0.0385     N
C       0.1031   0.6225    0.181     C
C       0.1108   0.6815   0.3177     C
Cl      0.1308      0.5   0.6308    Cl
Cl      0.1457  0.34404  0.65794    Cl
N       0.1592   0.5195   0.8005     N
C       0.1661   0.5706   0.9373     C
C        0.181   0.1031   0.6225     C
H       0.1894   0.2195   0.6527     H
C       0.1918     0.66    0.222     C
Cl     0.19834   0.8543  0.51224    Cl
H       0.1987   0.6056   0.9979     H
N       0.1995    0.719   0.3587     N
H       0.2008   0.0021   0.6077     H
C       0.2069   0.5707   0.8892     C
H       0.2195   0.6527   0.1894     H
C        0.222   0.1918     0.66     C
C       0.2288   0.0627   0.6333     C
In     0.23606      0.5  0.73606    In
C         0.24   0.7083   0.3109     C
In     0.26394  0.76394      0.5    In
H       0.2662   0.5667   0.6051     H
H       0.2672   0.6057   0.9169     H
N        0.281   0.4805   0.6397     N
C       0.2917   0.5317   0.6026     C
H       0.3005   0.7338   0.3389     H
C       0.3109     0.24   0.7083     C
H       0.3112   0.3943   0.6615     H
Cl      0.3139  0.65596  0.80166    Cl
C       0.3177   0.1108   0.6815     C
C       0.3185   0.4293   0.6362     C
H       0.3385   0.7328   0.6497     H
H       0.3389   0.3005   0.7338     H
C         0.34   0.5318    0.562     C
Cl     0.34206   0.6861  0.48776    Cl
Cl     0.34404  0.65794   0.1457    Cl
H       0.3473   0.5668   0.5367     H
H       0.3503   0.0831   0.6888     H
N       0.3587   0.1995    0.719     N
N       0.3603   0.8408   0.6413     N
C       0.3638   0.7931   0.6823     C
C       0.3667   0.4294   0.5955     C
Cl      0.3692   0.8692      0.5    Cl
C       0.3775   0.4806   0.5585     C
H       0.3923   0.3944   0.5931     H
H       0.3943   0.6615   0.3112     H
H       0.3944   0.5931   0.3923     H
H       0.3949   0.9616   0.6611     H
C       0.3974   0.9291   0.6891     C
C       0.4045   0.8339   0.7712     C
H       0.4069   0.8013   0.7992     H
C       0.4165   0.4658   0.5031     C
N        0.421   0.5107   0.4595     N
C       0.4293   0.6362   0.3185     C
C       0.4294   0.5955   0.3667     C
H       0.4332   0.7805   0.9699     H
H       0.4333   0.6995   0.0384     H
C        0.438   0.9698    0.778     C
C       0.4415   0.9221    0.819     C
N       0.4595    0.421   0.5107     N
H       0.4633   0.0301   0.8106     H
C       0.4658   0.5031   0.4165     C
C       0.4682   0.8082   0.0302     C
C       0.4683     0.76   0.0709     C
N       0.4805   0.6397    0.281     N
C       0.4806   0.5585   0.3775     C
Cl     0.48776  0.34206   0.6861    Cl
N       0.4893   0.9103   0.9488     N
C       0.4969   0.9627   0.9134     C
In         0.5  0.26394  0.76394    In
Cl         0.5   0.3692   0.8692    Cl
Cl         0.5   0.6308   0.1308    Cl
In         0.5  0.73606  0.23606    In
C       0.5031   0.4165   0.4658     C
N       0.5107   0.4595    0.421     N
Cl     0.51224  0.19834   0.8543    Cl
C       0.5194   0.8969   0.0779     C
N       0.5195   0.8005   0.1592     N
C       0.5317   0.6026   0.2917     C
C       0.5318    0.562     0.34     C
C       0.5342   0.9507   0.0373     C
H       0.5367   0.3473   0.5668     H
N       0.5405   0.0512   0.9615     N
C       0.5585   0.3775   0.4806     C
C        0.562     0.34   0.5318     C
H       0.5667   0.6051   0.2662     H
H       0.5668   0.5367   0.3473     H
C       0.5706   0.9373   0.1661     C
C       0.5707   0.8892   0.2069     C
N        0.579   0.0385   0.0897     N
C       0.5835   0.0866   0.0493     C
H       0.5931   0.3923   0.3944     H
C       0.5955   0.3667   0.4294     C
C       0.6026   0.2917   0.5317     C
H       0.6051   0.2662   0.5667     H
H       0.6056   0.9979   0.1987     H
H       0.6057   0.9169   0.2672     H
H       0.6077   0.2008   0.0021     H
C       0.6225    0.181   0.1031     C
Cl      0.6308   0.1308      0.5    Cl
C       0.6333   0.2288   0.0627     C
C       0.6362   0.3185   0.4293     C
N       0.6397    0.281   0.4805     N
N       0.6413   0.3603   0.8408     N
H       0.6497   0.3385   0.7328     H
H       0.6527   0.1894   0.2195     H
Cl     0.65596  0.80166   0.3139    Cl
Cl     0.65794   0.1457  0.34404    Cl
C         0.66    0.222   0.1918     C
H       0.6611   0.3949   0.9616     H
H       0.6615   0.3112   0.3943     H
C       0.6815   0.3177   0.1108     C
C       0.6823   0.3638   0.7931     C
Cl      0.6861  0.48776  0.34206    Cl
H       0.6888   0.3503   0.0831     H
C       0.6891   0.3974   0.9291     C
H       0.6995   0.0384   0.4333     H
C       0.7083   0.3109     0.24     C
N        0.719   0.3587   0.1995     N
H       0.7328   0.6497   0.3385     H
H       0.7338   0.3389   0.3005     H
In     0.73606  0.23606      0.5    In
C         0.76   0.0709   0.4683     C
In     0.76394      0.5  0.26394    In
C       0.7712   0.4045   0.8339     C
C        0.778    0.438   0.9698     C
H       0.7805   0.9699   0.4332     H
C       0.7931   0.6823   0.3638     C
H       0.7992   0.4069   0.8013     H
N       0.8005   0.1592   0.5195     N
H       0.8013   0.7992   0.4069     H
Cl     0.80166   0.3139  0.65596    Cl
C       0.8082   0.0302   0.4682     C
H       0.8106   0.4633   0.0301     H
C        0.819   0.4415   0.9221     C
C       0.8339   0.7712   0.4045     C
N       0.8408   0.6413   0.3603     N
Cl      0.8543  0.51224  0.19834    Cl
Cl      0.8692      0.5   0.3692    Cl
C       0.8892   0.2069   0.5707     C
C       0.8969   0.0779   0.5194     C
N       0.9103   0.9488   0.4893     N
C       0.9134   0.4969   0.9627     C
H       0.9169   0.2672   0.6057     H
C       0.9221    0.819   0.4415     C
C       0.9291   0.6891   0.3974     C
C       0.9373   0.1661   0.5706     C
N       0.9488   0.4893   0.9103     N
C       0.9507   0.0373   0.5342     C
N       0.9615   0.5405   0.0512     N
H       0.9616   0.6611   0.3949     H
C       0.9627   0.9134   0.4969     C
C       0.9698    0.778    0.438     C
H       0.9699   0.4332   0.7805     H
H       0.9979   0.1987   0.6056     H
