data_I
_chemical_name_common  '/home/zhangsd/repos/MofS-CGCNN/ML/data/SSD/clean_cifs/SETXEW_clean'
_cell_length_a 26.77410
_cell_length_b 10.05350
_cell_length_c 22.08650
_cell_angle_alpha 90.00000
_cell_angle_beta  97.27500
_cell_angle_gamma 90.00000
_space_group_name_H-M_alt      'P 1'


loop_
_space_group_symop_operation_xyz
  'x, y, z' 

loop_
_atom_site_label
_atom_site_fract_x
_atom_site_fract_y
_atom_site_fract_z
_atom_site_type_symbol
Zn         0.0      0.0      0.0    Zn
Zn         0.0      0.0      0.5    Zn
H       0.0073   0.1168   0.3669     H
H       0.0073   0.8832   0.8669     H
C       0.0231   0.0713   0.1345     C
C       0.0231   0.9287   0.6345     C
Mo     0.02374   0.3628  0.52827    Mo
Mo     0.02374   0.6372  0.02827    Mo
C      0.02572   0.2324   0.2479     C
C      0.02572   0.7676   0.7479     C
C      0.02615   0.4732   0.2477     C
C      0.02615   0.5268   0.7477     C
H       0.0309   0.3356   0.7177     H
H       0.0309   0.6644   0.2177     H
H       0.0377   0.0355   0.2679     H
H       0.0377   0.9645   0.7679     H
N      0.03876   0.0106   0.0876     N
N      0.03876   0.9894   0.5876     N
O      0.04069   0.4606  0.99431     O
O      0.04069   0.5394  0.49431     O
C       0.0518   0.3523   0.2467     C
C       0.0518   0.6477   0.7467     C
C       0.0523   0.3956   0.7438     C
C       0.0523   0.6044   0.2438     C
C       0.0541   0.1032   0.2461     C
C       0.0541   0.8968   0.7461     C
N      0.05612    0.059  0.18348     N
N      0.05612    0.941  0.68348     N
H        0.058   0.3733   0.1244     H
H        0.058   0.6267   0.6244     H
N      0.06386   0.3373   0.8047     N
N      0.06386   0.6627   0.3047     N
O      0.06395   0.0638  0.46056     O
O      0.06395   0.9362  0.96056     O
N      0.06655   0.2022   0.8107     N
N      0.06655   0.7978   0.3107     N
H       0.0736   0.4849   0.8656     H
H       0.0736   0.5151   0.3656     H
C      0.07366   0.3938   0.8586     C
C      0.07366   0.6062   0.3586     C
C       0.0791   0.1874   0.8696     C
C       0.0791   0.8126   0.3696     C
O      0.08263   0.3032  0.50475     O
O      0.08263   0.6968  0.00475     O
C       0.0831   0.0401   0.6112     C
C       0.0831   0.9599   0.1112     C
H       0.0832   0.4084   0.7259     H
H       0.0832   0.5916   0.2259     H
N      0.08352   0.3022  0.90101     N
N      0.08352   0.6978  0.40101     N
H       0.0845   0.1046    0.888     H
H       0.0845   0.8954    0.388     H
H       0.0881   0.1147   0.2665     H
H       0.0881   0.8853   0.7665     H
C      0.09203   0.3514   0.1294     C
C      0.09203   0.6486   0.6294     C
N       0.0955   0.0135    0.669     N
N       0.0955   0.9865    0.169     N
Zn     0.10045  0.33203  0.99271    Zn
Zn     0.10045  0.66797  0.49271    Zn
H       0.1033   0.0899   0.5885     H
H       0.1033   0.9101   0.0885     H
C       0.1082   0.3544   0.2451     C
C       0.1082   0.6456   0.7451     C
Mo     0.10841  0.18258  0.44564    Mo
Mo     0.10841  0.81742  0.94564    Mo
N      0.11856   0.3289  0.08476     N
N      0.11856   0.6711  0.58476     N
N      0.12017   0.3386   0.1826     N
N      0.12017   0.6614   0.6826     N
H       0.1219   0.4381   0.2617     H
H       0.1219   0.5619   0.7617     H
H       0.1223   0.0366   0.6923     H
H       0.1223   0.9634   0.1923     H
H       0.1238   0.2831   0.2704     H
H       0.1238   0.7169   0.7704     H
O      0.15447   0.0618  0.41679     O
O      0.15447   0.9382  0.91679     O
O      0.16095   0.1226  0.52929     O
O      0.16095   0.8774  0.02929     O
C        0.165   0.3054   0.1134     C
C        0.165   0.6946   0.6134     C
O      0.16771   0.4202  0.97939     O
O      0.16771   0.5798  0.47939     O
N      0.16813   0.3114   0.1736     N
N      0.16813   0.6886   0.6736     N
O       0.1692   0.3158  0.46026     O
O       0.1692   0.6842  0.96026     O
H       0.1924   0.2866   0.0928     H
H       0.1924   0.7134   0.5928     H
Mo     0.19248  0.04722  0.98067    Mo
Mo     0.19248  0.95278  0.48067    Mo
Mo      0.2013  0.47477   0.4374    Mo
Mo      0.2013  0.52523   0.9374    Mo
Mo     0.20558   0.2641  0.54966    Mo
Mo     0.20558   0.7359  0.04966    Mo
O      0.23632   0.0692  0.05649     O
O      0.23632   0.9308  0.55649     O
O      0.24879   0.1177  0.48538     O
O      0.24879   0.8823  0.98538     O
O       0.2493   0.1833  0.60354     O
O       0.2493   0.8167  0.10354     O
O       0.2507   0.3167  0.39646     O
O       0.2507   0.6833  0.89646     O
O      0.25121   0.3823  0.51462     O
O      0.25121   0.6177  0.01462     O
O      0.26368   0.4308  0.94351     O
O      0.26368   0.5692  0.44351     O
Mo     0.29442   0.2359  0.45034    Mo
Mo     0.29442   0.7641  0.95034    Mo
Mo      0.2987  0.02523   0.5626    Mo
Mo      0.2987  0.97477   0.0626    Mo
Mo     0.30752  0.45278  0.01933    Mo
Mo     0.30752  0.54722  0.51933    Mo
H       0.3076   0.2134   0.9072     H
H       0.3076   0.7866   0.4072     H
O       0.3308   0.1842  0.53974     O
O       0.3308   0.8158  0.03974     O
N      0.33187   0.1886   0.8264     N
N      0.33187   0.8114   0.3264     N
O      0.33229   0.0798  0.02061     O
O      0.33229   0.9202  0.52061     O
C        0.335   0.1946   0.8866     C
C        0.335   0.8054   0.3866     C
O      0.33905   0.3774  0.47071     O
O      0.33905   0.6226  0.97071     O
O      0.34553   0.4382  0.58321     O
O      0.34553   0.5618  0.08321     O
H       0.3762   0.2169   0.7296     H
H       0.3762   0.7831   0.2296     H
H       0.3777   0.4634   0.3077     H
H       0.3777   0.5366   0.8077     H
H       0.3781   0.0619   0.7383     H
H       0.3781   0.9381   0.2383     H
N      0.37983   0.1614   0.8174     N
N      0.37983   0.8386   0.3174     N
N      0.38144   0.1711  0.91524     N
N      0.38144   0.8289  0.41524     N
Mo     0.39159  0.31742  0.55436    Mo
Mo     0.39159  0.68258  0.05436    Mo
C       0.3918   0.1456   0.7549     C
C       0.3918   0.8544   0.2549     C
H       0.3967   0.4101   0.4115     H
H       0.3967   0.5899   0.9115     H
Zn     0.39955  0.16797  0.00729    Zn
Zn     0.39955  0.83203  0.50729    Zn
N       0.4045   0.4865    0.331     N
N       0.4045   0.5135    0.831     N
C      0.40797   0.1486   0.8706     C
C      0.40797   0.8514   0.3706     C
H       0.4119   0.3853   0.7335     H
H       0.4119   0.6147   0.2335     H
H       0.4155   0.3954    0.112     H
H       0.4155   0.6046    0.612     H
N      0.41648   0.1978  0.09899     N
N      0.41648   0.8022  0.59899     N
H       0.4168   0.0916   0.2741     H
H       0.4168   0.9084   0.7741     H
C       0.4169   0.4599   0.3888     C
C       0.4169   0.5401   0.8888     C
O      0.41737   0.1968  0.49525     O
O      0.41737   0.8032  0.99525     O
C       0.4209   0.3126   0.1304     C
C       0.4209   0.6874   0.6304     C
C      0.42634   0.1062   0.1414     C
C      0.42634   0.8938   0.6414     C
H       0.4264   0.0151   0.1344     H
H       0.4264   0.9849   0.6344     H
N      0.43345   0.2978   0.1893     N
N      0.43345   0.7022   0.6893     N
O      0.43605   0.4362  0.53944     O
O      0.43605   0.5638  0.03944     O
N      0.43614   0.1627   0.1953     N
N      0.43614   0.8373   0.6953     N
H        0.442   0.1267   0.8756     H
H        0.442   0.8733   0.3756     H
N      0.44388    0.441  0.81652     N
N      0.44388    0.559  0.31652     N
C       0.4459   0.3968   0.7539     C
C       0.4459   0.6032   0.2539     C
C       0.4477   0.1044   0.2562     C
C       0.4477   0.8956   0.7562     C
C       0.4482   0.1477   0.7533     C
C       0.4482   0.8523   0.2533     C
O      0.45931   0.0394  0.00569     O
O      0.45931   0.9606  0.50569     O
N      0.46124   0.4894   0.9124     N
N      0.46124   0.5106   0.4124     N
H       0.4623   0.4645   0.7321     H
H       0.4623   0.5355   0.2321     H
H       0.4691   0.1644   0.2823     H
H       0.4691   0.8356   0.7823     H
C      0.47385   0.0268   0.7523     C
C      0.47385   0.9732   0.2523     C
C      0.47428   0.2676   0.7521     C
C      0.47428   0.7324   0.2521     C
Mo     0.47626   0.1372  0.47173    Mo
Mo     0.47626   0.8628  0.97173    Mo
C       0.4769   0.4287   0.8655     C
C       0.4769   0.5713   0.3655     C
H       0.4927   0.3832   0.6331     H
H       0.4927   0.6168   0.1331     H
Zn         0.5      0.5      0.0    Zn
Zn         0.5      0.5      0.5    Zn
H       0.5073   0.3832   0.8669     H
H       0.5073   0.6168   0.3669     H
C       0.5231   0.4287   0.6345     C
C       0.5231   0.5713   0.1345     C
Mo     0.52374   0.1372  0.02827    Mo
Mo     0.52374   0.8628  0.52827    Mo
C      0.52572   0.2676   0.7479     C
C      0.52572   0.7324   0.2479     C
C      0.52615   0.0268   0.7477     C
C      0.52615   0.9732   0.2477     C
H       0.5309   0.1644   0.2177     H
H       0.5309   0.8356   0.7177     H
H       0.5377   0.4645   0.7679     H
H       0.5377   0.5355   0.2679     H
N      0.53876   0.4894   0.5876     N
N      0.53876   0.5106   0.0876     N
O      0.54069   0.0394  0.49431     O
O      0.54069   0.9606  0.99431     O
C       0.5518   0.1477   0.7467     C
C       0.5518   0.8523   0.2467     C
C       0.5523   0.1044   0.2438     C
C       0.5523   0.8956   0.7438     C
C       0.5541   0.3968   0.7461     C
C       0.5541   0.6032   0.2461     C
N      0.55612    0.441  0.68348     N
N      0.55612    0.559  0.18348     N
H        0.558   0.1267   0.6244     H
H        0.558   0.8733   0.1244     H
N      0.56386   0.1627   0.3047     N
N      0.56386   0.8373   0.8047     N
O      0.56395   0.4362  0.96056     O
O      0.56395   0.5638  0.46056     O
N      0.56655   0.2978   0.3107     N
N      0.56655   0.7022   0.8107     N
H       0.5736   0.0151   0.3656     H
H       0.5736   0.9849   0.8656     H
C      0.57366   0.1062   0.3586     C
C      0.57366   0.8938   0.8586     C
C       0.5791   0.3126   0.3696     C
C       0.5791   0.6874   0.8696     C
O      0.58263   0.1968  0.00475     O
O      0.58263   0.8032  0.50475     O
C       0.5831   0.4599   0.1112     C
C       0.5831   0.5401   0.6112     C
H       0.5832   0.0916   0.2259     H
H       0.5832   0.9084   0.7259     H
N      0.58352   0.1978  0.40101     N
N      0.58352   0.8022  0.90101     N
H       0.5845   0.3954    0.388     H
H       0.5845   0.6046    0.888     H
H       0.5881   0.3853   0.7665     H
H       0.5881   0.6147   0.2665     H
C      0.59203   0.1486   0.6294     C
C      0.59203   0.8514   0.1294     C
N       0.5955   0.4865    0.169     N
N       0.5955   0.5135    0.669     N
Zn     0.60045  0.16797  0.49271    Zn
Zn     0.60045  0.83203  0.99271    Zn
H       0.6033   0.4101   0.0885     H
H       0.6033   0.5899   0.5885     H
C       0.6082   0.1456   0.7451     C
C       0.6082   0.8544   0.2451     C
Mo     0.60841  0.31742  0.94564    Mo
Mo     0.60841  0.68258  0.44564    Mo
N      0.61856   0.1711  0.58476     N
N      0.61856   0.8289  0.08476     N
N      0.62017   0.1614   0.6826     N
N      0.62017   0.8386   0.1826     N
H       0.6219   0.0619   0.7617     H
H       0.6219   0.9381   0.2617     H
H       0.6223   0.4634   0.1923     H
H       0.6223   0.5366   0.6923     H
H       0.6238   0.2169   0.7704     H
H       0.6238   0.7831   0.2704     H
O      0.65447   0.4382  0.91679     O
O      0.65447   0.5618  0.41679     O
O      0.66095   0.3774  0.02929     O
O      0.66095   0.6226  0.52929     O
C        0.665   0.1946   0.6134     C
C        0.665   0.8054   0.1134     C
O      0.66771   0.0798  0.47939     O
O      0.66771   0.9202  0.97939     O
N      0.66813   0.1886   0.6736     N
N      0.66813   0.8114   0.1736     N
O       0.6692   0.1842  0.96026     O
O       0.6692   0.8158  0.46026     O
H       0.6924   0.2134   0.5928     H
H       0.6924   0.7866   0.0928     H
Mo     0.69248  0.45278  0.48067    Mo
Mo     0.69248  0.54722  0.98067    Mo
Mo      0.7013  0.02523   0.9374    Mo
Mo      0.7013  0.97477   0.4374    Mo
Mo     0.70558   0.2359  0.04966    Mo
Mo     0.70558   0.7641  0.54966    Mo
O      0.73632   0.4308  0.55649     O
O      0.73632   0.5692  0.05649     O
O      0.74879   0.3823  0.98538     O
O      0.74879   0.6177  0.48538     O
O       0.7493   0.3167  0.10354     O
O       0.7493   0.6833  0.60354     O
O       0.7507   0.1833  0.89646     O
O       0.7507   0.8167  0.39646     O
O      0.75121   0.1177  0.01462     O
O      0.75121   0.8823  0.51462     O
O      0.76368   0.0692  0.44351     O
O      0.76368   0.9308  0.94351     O
Mo     0.79442   0.2641  0.95034    Mo
Mo     0.79442   0.7359  0.45034    Mo
Mo      0.7987  0.47477   0.0626    Mo
Mo      0.7987  0.52523   0.5626    Mo
Mo     0.80752  0.04722  0.51933    Mo
Mo     0.80752  0.95278  0.01933    Mo
H       0.8076   0.2866   0.4072     H
H       0.8076   0.7134   0.9072     H
O       0.8308   0.3158  0.03974     O
O       0.8308   0.6842  0.53974     O
N      0.83187   0.3114   0.3264     N
N      0.83187   0.6886   0.8264     N
O      0.83229   0.4202  0.52061     O
O      0.83229   0.5798  0.02061     O
C        0.835   0.3054   0.3866     C
C        0.835   0.6946   0.8866     C
O      0.83905   0.1226  0.97071     O
O      0.83905   0.8774  0.47071     O
O      0.84553   0.0618  0.08321     O
O      0.84553   0.9382  0.58321     O
H       0.8762   0.2831   0.2296     H
H       0.8762   0.7169   0.7296     H
H       0.8777   0.0366   0.8077     H
H       0.8777   0.9634   0.3077     H
H       0.8781   0.4381   0.2383     H
H       0.8781   0.5619   0.7383     H
N      0.87983   0.3386   0.3174     N
N      0.87983   0.6614   0.8174     N
N      0.88144   0.3289  0.41524     N
N      0.88144   0.6711  0.91524     N
Mo     0.89159  0.18258  0.05436    Mo
Mo     0.89159  0.81742  0.55436    Mo
C       0.8918   0.3544   0.2549     C
C       0.8918   0.6456   0.7549     C
H       0.8967   0.0899   0.9115     H
H       0.8967   0.9101   0.4115     H
Zn     0.89955  0.33203  0.50729    Zn
Zn     0.89955  0.66797  0.00729    Zn
N       0.9045   0.0135    0.831     N
N       0.9045   0.9865    0.331     N
C      0.90797   0.3514   0.3706     C
C      0.90797   0.6486   0.8706     C
H       0.9119   0.1147   0.2335     H
H       0.9119   0.8853   0.7335     H
H       0.9155   0.1046    0.612     H
H       0.9155   0.8954    0.112     H
N      0.91648   0.3022  0.59899     N
N      0.91648   0.6978  0.09899     N
H       0.9168   0.4084   0.7741     H
H       0.9168   0.5916   0.2741     H
C       0.9169   0.0401   0.8888     C
C       0.9169   0.9599   0.3888     C
O      0.91737   0.3032  0.99525     O
O      0.91737   0.6968  0.49525     O
C       0.9209   0.1874   0.6304     C
C       0.9209   0.8126   0.1304     C
C      0.92634   0.3938   0.6414     C
C      0.92634   0.6062   0.1414     C
H       0.9264   0.4849   0.6344     H
H       0.9264   0.5151   0.1344     H
N      0.93345   0.2022   0.6893     N
N      0.93345   0.7978   0.1893     N
O      0.93605   0.0638  0.03944     O
O      0.93605   0.9362  0.53944     O
N      0.93614   0.3373   0.6953     N
N      0.93614   0.6627   0.1953     N
H        0.942   0.3733   0.3756     H
H        0.942   0.6267   0.8756     H
N      0.94388    0.059  0.31652     N
N      0.94388    0.941  0.81652     N
C       0.9459   0.1032   0.2539     C
C       0.9459   0.8968   0.7539     C
C       0.9477   0.3956   0.7562     C
C       0.9477   0.6044   0.2562     C
C       0.9482   0.3523   0.2533     C
C       0.9482   0.6477   0.7533     C
O      0.95931   0.4606  0.50569     O
O      0.95931   0.5394  0.00569     O
N      0.96124   0.0106   0.4124     N
N      0.96124   0.9894   0.9124     N
H       0.9623   0.0355   0.2321     H
H       0.9623   0.9645   0.7321     H
H       0.9691   0.3356   0.7823     H
H       0.9691   0.6644   0.2823     H
C      0.97385   0.4732   0.2523     C
C      0.97385   0.5268   0.7523     C
C      0.97428   0.2324   0.2521     C
C      0.97428   0.7676   0.7521     C
Mo     0.97626   0.3628  0.97173    Mo
Mo     0.97626   0.6372  0.47173    Mo
C       0.9769   0.0713   0.3655     C
C       0.9769   0.9287   0.8655     C
H       0.9927   0.1168   0.1331     H
H       0.9927   0.8832   0.6331     H
