data_I
_chemical_name_common  '/home/zhangsd/repos/MofS-CGCNN/ML/data/SSD/clean_cifs/SIRZUQ_clean'
_cell_length_a 11.10200
_cell_length_b 15.90040
_cell_length_c 15.90040
_cell_angle_alpha 65.24440
_cell_angle_beta  76.54160
_cell_angle_gamma 103.45800
_space_group_name_H-M_alt      'P 1'


loop_
_space_group_symop_operation_xyz
  'x, y, z' 

loop_
_atom_site_label
_atom_site_fract_x
_atom_site_fract_y
_atom_site_fract_z
_atom_site_type_symbol
C      0.00412  0.40286  0.93498     C
H       0.0081   0.2488    0.145     H
C      0.01245  0.97543  0.34038     C
C      0.02311  0.90394  0.61258     C
O      0.03367  0.28711  0.55803     O
C      0.03496  0.19417  0.38188     C
C      0.03568  0.30783  0.08499     C
O      0.03655  0.75684   0.6081     O
C      0.03702  0.68419  0.97543     C
C      0.04141  0.66401  0.44625     C
O      0.04273  0.60286  0.52778     O
H       0.0459   0.5924   0.1051     H
H       0.0546   0.7711   0.2651     H
C       0.0609  0.06502  0.33784     C
H       0.0698   0.9557   0.3067     H
O      0.07267  0.59555  0.77184     O
H       0.1141   0.7376   0.9557     H
C      0.11737  0.74163  0.26212     C
C      0.11917  0.48348  0.90394     C
C      0.12067  0.08499  0.60718     C
C      0.12986     0.68  0.34962     C
Cd     0.14025  0.36829  0.38868    Cd
C      0.14961   0.3874  0.05677     C
H        0.151   0.1051   0.3025     H
H       0.1531    0.145   0.6062     H
O      0.15549  0.22816  0.36739     O
C      0.15713  0.96737  0.55748     C
C      0.15921  0.57605  0.80583     C
H       0.1832   0.4796    0.618     H
H       0.1876   0.8017   0.1127     H
C      0.18976  0.47515  0.96737     C
C      0.19675  0.75989  0.17064     C
H       0.1988    0.382   0.0976     H
C      0.20638  0.05677  0.55583     C
C      0.22241  0.63411  0.34342     C
Cd     0.22804  0.75697  0.63171    Cd
C      0.23779  0.44417   0.6126     C
H       0.2407   0.3938   0.7512     H
N      0.24528  0.93702  0.50448     N
N      0.24879  0.57785  0.42978     N
N      0.25024  0.49552   0.4415     N
O      0.25344  0.84514  0.71289     O
H       0.2585   0.8701   0.3775     H
C      0.27215  0.39282  0.69217     C
O      0.27971  0.63506  0.75684     O
H       0.2835   0.9638   0.7711     H
C      0.28539  0.44252  0.52485     C
C      0.28948  0.71602  0.16538     C
H       0.2964   0.0976   0.5204     H
H       0.3003   0.1127   0.0856     H
C      0.30219  0.65265  0.25138     C
N      0.30826   0.5585  0.93702     N
H       0.3197   0.2651   0.9638     H
N      0.32143  0.57022  0.00763     N
N      0.32906  0.00763  0.42215     N
H       0.3438   0.7291   0.1037     H
C      0.35046  0.90403  0.34735     C
C      0.35283  0.34038  0.68419     C
O      0.35535   0.3919  0.36494     O
H        0.364   0.6225   0.2476     H
C      0.36431  0.38742  0.51652     C
C      0.36739  0.17064  0.06947     C
C      0.37574  0.99625  0.74163     C
H       0.3765   0.3067   0.7376     H
C       0.3774  0.88974  0.66401     C
C      0.37949  0.26212  0.99625     C
H       0.3853   0.8328   0.2709     H
H       0.3859   0.0856   0.8017     H
H       0.3884   0.7524   0.8701     H
C      0.39874  0.33784  0.59714     C
O       0.4083  0.44197  0.84514     O
C       0.4117  0.97753  0.36589     C
C      0.41684  0.38188  0.42395     C
C      0.42654   0.8814  0.28398     C
O      0.42949  0.47222  0.13064     O
C      0.43417  0.65658  0.97753     C
C      0.43686  0.06947  0.75989     C
O      0.43987  0.86936  0.60286     O
C      0.44643  0.74862  0.90403     C
H       0.4475   0.1037   0.1672     H
C      0.44986  0.97038     0.68     C
H       0.4535   0.3025   0.5924     H
C      0.45486  0.16538   0.1186     C
Cd     0.47107  0.61132  0.75697    Cd
O      0.47712  0.63261  0.59555     O
C      0.47948  0.34962  0.97038     C
C      0.48766  0.44625  0.88974     C
C      0.51234  0.55375  0.11026     C
C      0.52052  0.65038  0.02962     C
O      0.52288  0.36739  0.40445     O
Cd     0.52893  0.38868  0.24303    Cd
C      0.54514  0.83462   0.8814     C
H       0.5465   0.6975   0.4076     H
C      0.55014  0.02962     0.32     C
H       0.5525   0.8963   0.8328     H
C      0.55357  0.25138  0.09597     C
O      0.56013  0.13064  0.39714     O
C      0.56314  0.93053  0.24011     C
C      0.56583  0.34342  0.02247     C
O      0.57051  0.52778  0.86936     O
C      0.57346   0.1186  0.71602     C
C      0.58316  0.61812  0.57605     C
C       0.5883  0.02247  0.63411     C
O       0.5917  0.55803  0.15486     O
C      0.60126  0.66216  0.40286     C
H       0.6116   0.2476   0.1299     H
H       0.6141   0.9144   0.1983     H
H       0.6147   0.1672   0.7291     H
C      0.62051  0.73788  0.00375     C
C       0.6226  0.11026  0.33599     C
H       0.6235   0.6933   0.2624     H
C      0.62426  0.00375  0.25837     C
C      0.63261  0.82936  0.93053     C
C      0.63569  0.61258  0.48348     C
H        0.636   0.3775   0.7524     H
O      0.64465   0.6081  0.63506     O
C      0.64717  0.65962  0.31581     C
C      0.64954  0.09597  0.65265     C
H       0.6562   0.2709   0.8963     H
N      0.67094  0.99237  0.57785     N
N      0.67857  0.42978  0.99237     N
H       0.6803   0.7349   0.0362     H
N      0.69174   0.4415  0.06298     N
C      0.69781  0.34735  0.74862     C
H       0.6997   0.8873   0.9144     H
H       0.7036   0.9024   0.4796     H
C      0.71052  0.28398  0.83462     C
C      0.71461  0.55748  0.47515     C
H       0.7165   0.0362   0.2289     H
O      0.72029  0.36494  0.24316     O
C      0.72785  0.60718  0.30783     C
H       0.7415   0.1299   0.6225     H
O      0.74656  0.15486  0.28711     O
N      0.74976  0.50448   0.5585     N
N      0.75121  0.42215  0.57022     N
N      0.75472  0.06298  0.49552     N
H       0.7593   0.6062   0.2488     H
C      0.76221  0.55583   0.3874     C
Cd     0.77196  0.24303  0.36829    Cd
C      0.77759  0.36589  0.65658     C
C      0.79362  0.94323  0.44417     C
H       0.8012    0.618   0.9024     H
C      0.80325  0.24011  0.82936     C
C      0.81024  0.52485  0.03263     C
H       0.8124   0.1983   0.8873     H
H       0.8168   0.5204    0.382     H
C      0.84079  0.42395  0.19417     C
C      0.84287  0.03263  0.44252     C
O      0.84451  0.77184  0.63261     O
H       0.8469    0.855   0.3938     H
H        0.849   0.8949   0.6975     H
C      0.85039   0.6126  0.94323     C
Cd     0.85975  0.63171  0.61132    Cd
C      0.87014     0.32  0.65038     C
C      0.87933  0.91501  0.39282     C
C      0.88083  0.51652  0.09606     C
C      0.88263  0.25837  0.73788     C
H       0.8859   0.2624   0.0443     H
O      0.92733  0.40445  0.22816     O
H       0.9302   0.0443   0.6933     H
C       0.9391  0.93498  0.66216     C
H       0.9454   0.2289   0.7349     H
H       0.9541   0.4076   0.8949     H
O      0.95727  0.39714  0.47222     O
C      0.95859  0.33599  0.55375     C
C      0.96298  0.31581  0.02457     C
O      0.96345  0.24316   0.3919     O
C      0.96432  0.69217  0.91501     C
C      0.96504  0.80583  0.61812     C
O      0.96633  0.71289  0.44197     O
C      0.97689  0.09606  0.38742     C
C      0.98755  0.02457  0.65962     C
H       0.9919   0.7512    0.855     H
C      0.99588  0.59714  0.06502     C
