data_I
_chemical_name_common  '/home/zhangsd/repos/MofS-CGCNN/ML/data/SSD/clean_cifs/SIYXIH10_clean'
_cell_length_a  8.66400
_cell_length_b  8.66400
_cell_length_c 10.86100
_cell_angle_alpha 90.00000
_cell_angle_beta  90.00000
_cell_angle_gamma 120.00000
_space_group_name_H-M_alt      'P 1'


loop_
_space_group_symop_operation_xyz
  'x, y, z' 

loop_
_atom_site_label
_atom_site_fract_x
_atom_site_fract_y
_atom_site_fract_z
_atom_site_type_symbol
O          0.0   0.1133  0.16667     O
C          0.0   0.2695  0.16667     C
C          0.0  0.58218  0.16667     C
C          0.0   0.7558  0.16667     C
Fe         0.0  0.94403  0.66667    Fe
O      0.02208  0.83332  0.26796     O
Fe     0.05597  0.05597      0.0    Fe
C      0.05751  0.53587   0.0601     C
C      0.05994  0.37482  0.06216     C
O       0.1133      0.0  0.83333     O
O      0.11792  0.31179   0.9704     O
O      0.16668  0.18876   0.6013     O
O      0.18876  0.16668   0.3987     O
O      0.19387  0.88208  0.63707     O
C       0.2442   0.2442      0.5     C
C       0.2695      0.0  0.83333     C
O      0.31179  0.11792   0.0296     O
C      0.31488  0.94006  0.72883     C
C      0.37482  0.05994  0.93784     C
C      0.41782  0.41782      0.5     C
C      0.46413  0.52164  0.39344     C
C      0.47836  0.94249  0.72677     C
C      0.52164  0.46413  0.60656     C
C      0.53587  0.05751   0.9399     C
C      0.58218      0.0  0.83333     C
C      0.62518  0.68512   0.3955     C
C      0.68512  0.62518   0.6045     C
O      0.68821  0.80613  0.30374     O
C       0.7305   0.7305      0.5     C
C       0.7558      0.0  0.83333     C
O      0.80613  0.68821  0.69626     O
O      0.81124  0.97792  0.93463     O
O      0.83332  0.02208  0.73204     O
O      0.88208  0.19387  0.36293     O
O       0.8867   0.8867      0.5     O
C      0.94006  0.31488  0.27117     C
C      0.94249  0.47836  0.27323     C
Fe     0.94403      0.0  0.33333    Fe
O      0.97792  0.81124  0.06537     O
