data_I
_chemical_name_common  '/home/zhangsd/repos/MofS-CGCNN/ML/data/SSD/clean_cifs/SOCLAZ_clean'
_cell_length_a  7.28000
_cell_length_b 16.26730
_cell_length_c 16.28730
_cell_angle_alpha 106.00100
_cell_angle_beta  90.00000
_cell_angle_gamma 90.00000
_space_group_name_H-M_alt      'P 1'


loop_
_space_group_symop_operation_xyz
  'x, y, z' 

loop_
_atom_site_label
_atom_site_fract_x
_atom_site_fract_y
_atom_site_fract_z
_atom_site_type_symbol
N       0.0123   0.6752   0.0491     N
C       0.0152   0.3762   0.9009     C
C       0.0365   0.0508   0.1471     C
N        0.038   0.8977   0.1165     N
C       0.0446   0.7888     0.71     C
C       0.0536   0.7979    0.448     C
O       0.0551   0.8464  0.67443     O
H       0.0583   0.6309   0.1472     H
H       0.0742   0.3268   0.6831     H
H       0.0752    0.304    0.057     H
C       0.0932   0.3382   0.0204     C
C       0.0948     0.52   0.5084     C
C       0.0992    0.203   0.6148     C
O       0.1007   0.8665   0.4972     O
C       0.1029    0.206   0.2233     C
H       0.1041   0.5524    0.568     H
H       0.1125   0.5591   0.4737     H
C       0.1247    0.973   0.1322     C
O       0.1257  0.72792  0.44943     O
H       0.1274   0.0297   0.3691     H
C       0.1443   0.2776   0.6771     C
C       0.1451     0.13   0.1608     C
C       0.1456   0.1022   0.8838     C
O       0.1463  0.72491   0.6895     O
C       0.1473   0.4393   0.9172     C
C       0.1542    0.951   0.8552     C
H       0.1619    0.473     0.88     H
H       0.1736   0.0809   0.5659     H
H       0.1758   0.3294   0.2708     H
H       0.2028    0.406   0.5894     H
C        0.204   0.1309   0.6076     C
C       0.2067   0.2789     0.23     C
H       0.2077    0.154   0.8942     H
H       0.2203   0.9005   0.8472     H
Cd      0.2259  0.78123  0.07706    Cd
C       0.2267   0.3997   0.0404     C
C       0.2424   0.4527   0.4881     C
C       0.2449    0.028   0.8694     C
H       0.2476   0.9728   0.6331     H
H       0.2524   0.9728   0.1331     H
C       0.2551    0.028   0.3694     C
C       0.2576   0.4527   0.9881     C
C       0.2733   0.3997   0.5404     C
Cd      0.2741  0.78123  0.57706    Cd
H       0.2797   0.9005   0.3472     H
H       0.2923    0.154   0.3942     H
C       0.2933   0.2789     0.73     C
C        0.296   0.1309   0.1076     C
H       0.2972    0.406   0.0894     H
H       0.3242   0.3294   0.7708     H
H       0.3264   0.0809   0.0659     H
H       0.3381    0.473     0.38     H
C       0.3458    0.951   0.3552     C
C       0.3527   0.4393   0.4172     C
O       0.3537  0.72491   0.1895     O
C       0.3544   0.1022   0.3838     C
C       0.3549     0.13   0.6608     C
C       0.3557   0.2776   0.1771     C
H       0.3726   0.0297   0.8691     H
O       0.3743  0.72792  0.94943     O
C       0.3753    0.973   0.6322     C
H       0.3875   0.5591   0.9737     H
H       0.3959   0.5524    0.068     H
C       0.3971    0.206   0.7233     C
O       0.3993   0.8665   0.9972     O
C       0.4008    0.203   0.1148     C
C       0.4052     0.52   0.0084     C
C       0.4068   0.3382   0.5204     C
H       0.4248    0.304    0.557     H
H       0.4258   0.3268   0.1831     H
H       0.4417   0.6309   0.6472     H
O       0.4449   0.8464  0.17443     O
C       0.4464   0.7979    0.948     C
C       0.4554   0.7888     0.21     C
N        0.462   0.8977   0.6165     N
C       0.4635   0.0508   0.6471     C
C       0.4848   0.3762   0.4009     C
N       0.4877   0.6752   0.5491     N
N       0.5123   0.3248   0.4509     N
C       0.5152   0.6238   0.5991     C
C       0.5365   0.9492   0.3529     C
N        0.538   0.1023   0.3835     N
C       0.5446   0.2112     0.79     C
C       0.5536   0.2021    0.052     C
O       0.5551   0.1536  0.82557     O
H       0.5583   0.3691   0.3528     H
H       0.5742   0.6732   0.8169     H
H       0.5752    0.696    0.443     H
C       0.5932   0.6618   0.4796     C
C       0.5948     0.48   0.9916     C
C       0.5992    0.797   0.8852     C
O       0.6007   0.1335   0.0028     O
C       0.6029    0.794   0.2767     C
H       0.6041   0.4476    0.932     H
H       0.6125   0.4409   0.0263     H
C       0.6247    0.027   0.3678     C
O       0.6257  0.27208  0.05057     O
H       0.6274   0.9703   0.1309     H
C       0.6443   0.7224   0.8229     C
C       0.6451     0.87   0.3392     C
C       0.6456   0.8978   0.6162     C
O       0.6463  0.27509   0.8105     O
C       0.6473   0.5607   0.5828     C
C       0.6542    0.049   0.6448     C
H       0.6619    0.527     0.62     H
H       0.6736   0.9191   0.9341     H
H       0.6758   0.6706   0.2292     H
H       0.7028    0.594   0.9106     H
C        0.704   0.8691   0.8924     C
C       0.7067   0.7211     0.27     C
H       0.7077    0.846   0.6058     H
H       0.7203   0.0995   0.6528     H
Cd      0.7259  0.21877  0.42294    Cd
C       0.7267   0.6003   0.4596     C
C       0.7424   0.5473   0.0119     C
C       0.7449    0.972   0.6306     C
H       0.7476   0.0272   0.8669     H
H       0.7524   0.0272   0.3669     H
C       0.7551    0.972   0.1306     C
C       0.7576   0.5473   0.5119     C
C       0.7733   0.6003   0.9596     C
Cd      0.7741  0.21877  0.92294    Cd
H       0.7797   0.0995   0.1528     H
H       0.7923    0.846   0.1058     H
C       0.7933   0.7211     0.77     C
C        0.796   0.8691   0.3924     C
H       0.7972    0.594   0.4106     H
H       0.8242   0.6706   0.7292     H
H       0.8264   0.9191   0.4341     H
H       0.8381    0.527     0.12     H
C       0.8458    0.049   0.1448     C
C       0.8527   0.5607   0.0828     C
O       0.8537  0.27509   0.3105     O
C       0.8544   0.8978   0.1162     C
C       0.8549     0.87   0.8392     C
C       0.8557   0.7224   0.3229     C
H       0.8726   0.9703   0.6309     H
O       0.8743  0.27208  0.55057     O
C       0.8753    0.027   0.8678     C
H       0.8875   0.4409   0.5263     H
H       0.8959   0.4476    0.432     H
C       0.8971    0.794   0.7767     C
O       0.8993   0.1335   0.5028     O
C       0.9008    0.797   0.3852     C
C       0.9052     0.48   0.4916     C
C       0.9068   0.6618   0.9796     C
H       0.9248    0.696    0.943     H
H       0.9258   0.6732   0.3169     H
H       0.9417   0.3691   0.8528     H
O       0.9449   0.1536  0.32557     O
C       0.9464   0.2021    0.552     C
C       0.9554   0.2112     0.29     C
N        0.962   0.1023   0.8835     N
C       0.9635   0.9492   0.8529     C
C       0.9848   0.6238   0.0991     C
N       0.9877   0.3248   0.9509     N
