data_I
_chemical_name_common  '/home/zhangsd/repos/MofS-CGCNN/ML/data/SSD/clean_cifs/SOCNAB_clean'
_cell_length_a  8.30100
_cell_length_b 11.14600
_cell_length_c 13.36300
_cell_angle_alpha 86.42700
_cell_angle_beta  84.12200
_cell_angle_gamma 83.57300
_space_group_name_H-M_alt      'P 1'


loop_
_space_group_symop_operation_xyz
  'x, y, z' 

loop_
_atom_site_label
_atom_site_fract_x
_atom_site_fract_y
_atom_site_fract_z
_atom_site_type_symbol
Zn     0.05618  0.68803  0.20483    Zn
H        0.069   0.3691   0.0024     H
N       0.0693   0.4357  0.71382     N
N       0.0706   0.2325  0.90574     N
C       0.0984   0.2879   0.9905     C
H       0.0992   0.3887   0.5713     H
H       0.1067   0.5519   0.8202     H
C       0.1191   0.4433   0.6173     C
C       0.1238   0.5324    0.753     C
H       0.1281   0.0596   0.8743     H
C       0.1302   0.1189     0.92     C
H       0.1593   0.9067   0.3223     H
C       0.1743   0.2071   0.0536     C
O       0.1932   0.5528  0.12438     O
N       0.1939   0.0992  0.00802     N
N       0.2015   0.5386   0.5934     N
C       0.2058   0.5945   0.6795     C
H        0.207   0.2217   0.1158     H
H       0.2241   0.9649    0.114     H
H       0.2401   0.6558   0.4745     H
N       0.2463    0.753  0.25794     N
H        0.249   0.5214   0.4436     H
C       0.2508   0.8544   0.3027     C
H       0.2553     0.92   0.0041     H
H       0.2562   0.6635   0.6866     H
C       0.2734   0.9836   0.0467     C
C       0.2789   0.5729   0.4931     C
O        0.297   0.6885  0.01461     O
C       0.2971   0.5851   0.0529     C
H       0.3658   0.9297   0.5099     H
H       0.3727   0.0448   0.3581     H
H       0.3841   0.2367   0.7206     H
N       0.4031   0.8728  0.31637     N
H       0.4054   0.4084   0.0289     H
C       0.4071   0.7033   0.2439     C
C       0.4277   0.4885   0.0202     C
H       0.4427   0.6305   0.2142     H
H       0.4438   0.0034   0.6677     H
H        0.453   0.1245   0.5164     H
C        0.453   0.9754   0.3655     C
C       0.4549   0.9861   0.0499     C
C       0.4652   0.5605    0.493     C
C       0.4702   0.9469   0.4758     C
H        0.472   0.0462   0.0961     H
H       0.4879   0.4057   0.5706     H
H       0.4934   0.6073   0.5462     H
C       0.4967    0.224   0.7204     C
H       0.4994   0.0919   0.9235     H
H       0.5006   0.9081   0.0765     H
C       0.5033    0.776   0.2796     C
H       0.5066   0.3927   0.4538     H
H       0.5121   0.5943   0.4294     H
H        0.528   0.9538   0.9039     H
C       0.5298   0.0531   0.5242     C
C       0.5348   0.4395    0.507     C
C       0.5451   0.0139   0.9501     C
C        0.547   0.0246   0.6345     C
H        0.547   0.8755   0.4836     H
H       0.5562   0.9966   0.3323     H
H       0.5573   0.3695   0.7858     H
C       0.5723   0.5115   0.9798     C
C       0.5929   0.2967   0.7561     C
H       0.5946   0.5916   0.9711     H
N       0.5969   0.1272  0.68363     N
H       0.6159   0.7633   0.2794     H
H       0.6273   0.9552   0.6419     H
H       0.6342   0.0703   0.4901     H
C       0.7029   0.4149   0.9471     C
O        0.703   0.3115  0.98539     O
C       0.7211   0.4271   0.5069     C
C       0.7266   0.0164   0.9533     C
H       0.7438   0.3365   0.3134     H
H       0.7447     0.08   0.9959     H
C       0.7492   0.1456   0.6973     C
H        0.751   0.4786   0.5564     H
N       0.7537    0.247  0.74206     N
H       0.7599   0.3442   0.5255     H
H       0.7759   0.0351    0.886     H
H        0.793   0.7783   0.8842     H
C       0.7942   0.4055   0.3205     C
N       0.7985   0.4614   0.4066     N
N       0.8061   0.9008  0.99198     N
O       0.8068   0.4472  0.87562     O
C       0.8257   0.7929   0.9464     C
H       0.8407   0.0933   0.6777     H
C       0.8698   0.8811     0.08     C
H       0.8719   0.9404   0.1257     H
C       0.8762   0.4676    0.247     C
C       0.8809   0.5567   0.3827     C
H       0.8933   0.4481   0.1798     H
H       0.9008   0.6113   0.4287     H
C       0.9016   0.7121   0.0095     C
N       0.9294   0.7675  0.09426     N
N       0.9307   0.5643  0.28618     N
H        0.931   0.6309   0.9976     H
Zn     0.94382  0.31197  0.79517    Zn
