data_I
_chemical_name_common  '/home/zhangsd/repos/MofS-CGCNN/ML/data/SSD/clean_cifs/SODZIV_clean'
_cell_length_a 14.49790
_cell_length_b 15.47160
_cell_length_c 17.51250
_cell_angle_alpha 90.00000
_cell_angle_beta  90.00000
_cell_angle_gamma 90.00000
_space_group_name_H-M_alt      'P 1'


loop_
_space_group_symop_operation_xyz
  'x, y, z' 

loop_
_atom_site_label
_atom_site_fract_x
_atom_site_fract_y
_atom_site_fract_z
_atom_site_type_symbol
C       0.0358   0.6986   0.9115     C
O       0.0406    0.174  0.11453     O
O       0.0422   0.7623   0.9551     O
O       0.0503   0.1679   0.3595     O
H       0.0545   0.5267   0.5256     H
H       0.0578   0.5297   0.9156     H
H       0.0628   0.7639   0.7539     H
H       0.0694   0.4334   0.4249     H
Cd     0.06998  0.72697  0.57585    Cd
C       0.0754   0.5485   0.4792     C
C       0.0814   0.8192   0.7399     C
H       0.0814   0.8663   0.8476     H
C       0.0848   0.4913   0.4191     C
C        0.091    0.881   0.7967     C
N        0.094    0.631   0.4755     N
N       0.0972   0.8348   0.6665     N
H        0.101   0.1366   0.7643     H
O       0.1023   0.2179   0.4638     O
O       0.1084   0.3863   0.9643     O
H        0.109   0.2409   0.8567     H
H        0.109   0.5594   0.2024     H
C       0.1104   0.1208   0.8149     C
H       0.1125   0.5672   0.9855     H
C       0.1144   0.1771   0.4052     C
C       0.1145   0.5584   0.9307     C
C       0.1151   0.1834   0.8713     C
C       0.1151   0.9645    0.777     C
H       0.1174   0.4706   0.0981     H
C       0.1178   0.5224   0.3494     C
C       0.1181   0.5004    0.209     C
H       0.1192   0.6368   0.8352     H
C       0.1197    0.035   0.8345     C
C       0.1205   0.6468   0.8904     C
C       0.1235   0.4463   0.1464     C
C       0.1241   0.9145   0.6488     C
C       0.1265   0.4658   0.2821     C
N       0.1275   0.1668   0.9436     N
Cd     0.12786  0.27297  0.04072    Cd
C       0.1284     0.66   0.4088     C
C       0.1327    0.017    0.911     C
C       0.1342   0.9806   0.6997     C
C       0.1366   0.0837   0.9636     C
H       0.1369    0.926   0.5978     H
N        0.137    0.361   0.1512     N
H       0.1389     0.96   0.9272     H
C       0.1402   0.6093   0.3462     C
C       0.1414   0.3773   0.2871     C
H       0.1449    0.718   0.4054     H
C       0.1455   0.3282   0.2213     C
H       0.1458   0.0703   0.0149     H
H       0.1485   0.3512   0.3345     H
H       0.1532   0.0351   0.6836     H
H       0.1547    0.269   0.2261     H
H        0.162   0.0097   0.4107     H
H       0.1634   0.6329   0.3012     H
C        0.186   0.4136   0.9511     C
H       0.1939   0.4903   0.8558     H
C       0.1961   0.5011   0.9109     C
H       0.2061   0.0538   0.4826     H
C       0.2067   0.1337   0.3883     C
H       0.2098   0.1235   0.3332     H
C       0.2112   0.6907   0.9099     C
C       0.2125   0.0459   0.4279     C
H       0.2131   0.7028   0.9642     H
H       0.2153   0.7452   0.8828     H
O       0.2461   0.8729   0.4742     O
O       0.2539   0.3729   0.9742     O
H       0.2847   0.2452   0.3828     H
H       0.2869   0.2028   0.4642     H
C       0.2875   0.5459   0.9279     C
C       0.2888   0.1907   0.4099     C
H       0.2902   0.6235   0.8332     H
C       0.2933   0.6337   0.8883     C
H       0.2939   0.5538   0.9826     H
C       0.3039   0.0011   0.4109     C
H       0.3061   0.9903   0.3558     H
C        0.314   0.9136   0.4511     C
H       0.3366   0.1329   0.8012     H
H        0.338   0.5097   0.9107     H
H       0.3453    0.769   0.7261     H
H       0.3468   0.5351   0.1836     H
H       0.3515   0.8512   0.8345     H
H       0.3542   0.5703   0.5149     H
C       0.3545   0.8282   0.7213     C
H       0.3551    0.218   0.9054     H
C       0.3586   0.8773   0.7871     C
C       0.3598   0.1093   0.8462     C
H       0.3611     0.46   0.4272     H
N        0.363    0.861   0.6512     N
H       0.3631    0.426   0.0978     H
C       0.3634   0.5837   0.4636     C
C       0.3658   0.4806   0.1997     C
C       0.3673    0.517    0.411     C
C       0.3716     0.16   0.9088     C
Cd     0.37214  0.77297  0.54072    Cd
N       0.3725   0.6668   0.4436     N
C       0.3735   0.9658   0.7821     C
C       0.3759   0.4145   0.1488     C
C       0.3765   0.9463   0.6464     C
C       0.3795   0.1468   0.3904     C
C       0.3803    0.535   0.3345     C
H       0.3808   0.1368   0.3352     H
C       0.3819   0.0004    0.709     C
C       0.3822   0.0224   0.8494     C
H       0.3826   0.9706   0.5981     H
C       0.3849   0.4645    0.277     C
C       0.3849   0.6834   0.3713     C
C       0.3855   0.0584   0.4307     C
C       0.3856   0.6771   0.9052     C
H       0.3875   0.0672   0.4855     H
C       0.3896   0.6208   0.3149     C
H        0.391   0.0594   0.7024     H
H        0.391   0.7409   0.3567     H
O       0.3916   0.8863   0.4643     O
O       0.3977   0.7179   0.9638     O
H        0.399   0.6366   0.2643     H
N       0.4028   0.3348   0.1665     N
N        0.406    0.131   0.9755     N
C        0.409    0.381   0.2967     C
C       0.4152   0.9913   0.9191     C
C       0.4186   0.3192   0.2399     C
H       0.4186   0.3663   0.3476     H
C       0.4246   0.0485   0.9792     C
Cd     0.43002  0.22697  0.07585    Cd
H       0.4306   0.9334   0.9249     H
H       0.4372   0.2639   0.2539     H
H       0.4422   0.0297   0.4156     H
H       0.4455   0.0267   0.0256     H
O       0.4497   0.6679   0.8595     O
O       0.4578   0.2623   0.4551     O
O       0.4594    0.674  0.61453     O
C       0.4642   0.1986   0.4115     C
C       0.5358   0.6986   0.5885     C
O       0.5406    0.174  0.38547     O
O       0.5422   0.7623   0.5449     O
O       0.5503   0.1679   0.1405     O
H       0.5545   0.5267   0.9744     H
H       0.5578   0.5297   0.5844     H
H       0.5628   0.7639   0.7461     H
H       0.5694   0.4334   0.0751     H
Cd     0.56998  0.72697  0.92415    Cd
C       0.5754   0.5485   0.0208     C
C       0.5814   0.8192   0.7601     C
H       0.5814   0.8663   0.6524     H
C       0.5848   0.4913   0.0809     C
C        0.591    0.881   0.7033     C
N        0.594    0.631   0.0245     N
N       0.5972   0.8348   0.8335     N
H        0.601   0.1366   0.7357     H
O       0.6023   0.2179   0.0362     O
O       0.6084   0.3863   0.5357     O
H        0.609   0.2409   0.6433     H
H        0.609   0.5594   0.2976     H
C       0.6104   0.1208   0.6851     C
H       0.6125   0.5672   0.5145     H
C       0.6144   0.1771   0.0948     C
C       0.6145   0.5584   0.5693     C
C       0.6151   0.1834   0.6287     C
C       0.6151   0.9645    0.723     C
H       0.6174   0.4706   0.4019     H
C       0.6178   0.5224   0.1506     C
C       0.6181   0.5004    0.291     C
H       0.6192   0.6368   0.6648     H
C       0.6197    0.035   0.6655     C
C       0.6205   0.6468   0.6096     C
C       0.6235   0.4463   0.3536     C
C       0.6241   0.9145   0.8512     C
C       0.6265   0.4658   0.2179     C
N       0.6275   0.1668   0.5564     N
Cd     0.62786  0.27297  0.45928    Cd
C       0.6284     0.66   0.0912     C
C       0.6327    0.017    0.589     C
C       0.6342   0.9806   0.8003     C
C       0.6366   0.0837   0.5364     C
H       0.6369    0.926   0.9022     H
N        0.637    0.361   0.3488     N
H       0.6389     0.96   0.5728     H
C       0.6402   0.6093   0.1538     C
C       0.6414   0.3773   0.2129     C
H       0.6449    0.718   0.0946     H
C       0.6455   0.3282   0.2787     C
H       0.6458   0.0703   0.4851     H
H       0.6485   0.3512   0.1655     H
H       0.6532   0.0351   0.8164     H
H       0.6547    0.269   0.2739     H
H        0.662   0.0097   0.0893     H
H       0.6634   0.6329   0.1988     H
C        0.686   0.4136   0.5489     C
H       0.6939   0.4903   0.6442     H
C       0.6961   0.5011   0.5891     C
H       0.7061   0.0538   0.0174     H
C       0.7067   0.1337   0.1117     C
H       0.7098   0.1235   0.1668     H
C       0.7112   0.6907   0.5901     C
C       0.7125   0.0459   0.0721     C
H       0.7131   0.7028   0.5358     H
H       0.7153   0.7452   0.6172     H
O       0.7461   0.8729   0.0258     O
O       0.7539   0.3729   0.5258     O
H       0.7847   0.2452   0.1172     H
H       0.7869   0.2028   0.0358     H
C       0.7875   0.5459   0.5721     C
C       0.7888   0.1907   0.0901     C
H       0.7902   0.6235   0.6668     H
C       0.7933   0.6337   0.6117     C
H       0.7939   0.5538   0.5174     H
C       0.8039   0.0011   0.0891     C
H       0.8061   0.9903   0.1442     H
C        0.814   0.9136   0.0489     C
H       0.8366   0.1329   0.6988     H
H        0.838   0.5097   0.5893     H
H       0.8453    0.769   0.7739     H
H       0.8468   0.5351   0.3164     H
H       0.8515   0.8512   0.6655     H
H       0.8542   0.5703   0.9851     H
C       0.8545   0.8282   0.7787     C
H       0.8551    0.218   0.5946     H
C       0.8586   0.8773   0.7129     C
C       0.8598   0.1093   0.6538     C
H       0.8611     0.46   0.0728     H
N        0.863    0.861   0.8488     N
H       0.8631    0.426   0.4022     H
C       0.8634   0.5837   0.0364     C
C       0.8658   0.4806   0.3003     C
C       0.8673    0.517    0.089     C
C       0.8716     0.16   0.5912     C
Cd     0.87214  0.77297  0.95928    Cd
N       0.8725   0.6668   0.0564     N
C       0.8735   0.9658   0.7179     C
C       0.8759   0.4145   0.3512     C
C       0.8765   0.9463   0.8536     C
C       0.8795   0.1468   0.1096     C
C       0.8803    0.535   0.1655     C
H       0.8808   0.1368   0.1648     H
C       0.8819   0.0004    0.791     C
C       0.8822   0.0224   0.6506     C
H       0.8826   0.9706   0.9019     H
C       0.8849   0.4645    0.223     C
C       0.8849   0.6834   0.1287     C
C       0.8855   0.0584   0.0693     C
C       0.8856   0.6771   0.5948     C
H       0.8875   0.0672   0.0145     H
C       0.8896   0.6208   0.1851     C
H        0.891   0.0594   0.7976     H
H        0.891   0.7409   0.1433     H
O       0.8916   0.8863   0.0357     O
O       0.8977   0.7179   0.5362     O
H        0.899   0.6366   0.2357     H
N       0.9028   0.3348   0.3335     N
N        0.906    0.131   0.5245     N
C        0.909    0.381   0.2033     C
C       0.9152   0.9913   0.5809     C
C       0.9186   0.3192   0.2601     C
H       0.9186   0.3663   0.1524     H
C       0.9246   0.0485   0.5208     C
Cd     0.93002  0.22697  0.42415    Cd
H       0.9306   0.9334   0.5751     H
H       0.9372   0.2639   0.2461     H
H       0.9422   0.0297   0.0844     H
H       0.9455   0.0267   0.4744     H
O       0.9497   0.6679   0.6405     O
O       0.9578   0.2623   0.0449     O
O       0.9594    0.674  0.88547     O
C       0.9642   0.1986   0.0885     C
