data_I
_chemical_name_common  '/home/zhangsd/repos/MofS-CGCNN/ML/data/SSD/clean_cifs/SOKKUZ_clean'
_cell_length_a 13.56500
_cell_length_b 13.56500
_cell_length_c 15.50300
_cell_angle_alpha 90.00000
_cell_angle_beta  90.00000
_cell_angle_gamma 90.00000
_space_group_name_H-M_alt      'P 1'


loop_
_space_group_symop_operation_xyz
  'x, y, z' 

loop_
_atom_site_label
_atom_site_fract_x
_atom_site_fract_y
_atom_site_fract_z
_atom_site_type_symbol
In         0.0  0.42366      0.5    In
In         0.0  0.57634      0.0    In
O       0.0263   0.4978   0.1228     O
O       0.0263   0.5022   0.3772     O
H       0.0703   0.3834   0.2615     H
H       0.0703   0.6166   0.2385     H
C       0.0932    0.443   0.0903     C
C       0.0932    0.557   0.4097     C
O       0.1063   0.3071     0.46     O
O       0.1063   0.6929     0.04     O
O       0.1139    0.352   0.5944     O
O       0.1139    0.648   0.9056     O
C       0.1147   0.3462   0.2295     C
C       0.1147   0.6538   0.2705     C
O       0.1209   0.4526   0.0153     O
O       0.1209   0.5474   0.4847     O
C       0.1371   0.3645   0.1466     C
C       0.1371   0.6355   0.3534     C
C       0.1439   0.2984   0.5333     C
C       0.1439   0.7016   0.9667     C
H       0.1581   0.2384   0.3178     H
H       0.1581   0.7616   0.1822     H
C       0.1668   0.2635   0.2625     C
C       0.1668   0.7365   0.2375     C
S      0.22329  0.28493  0.10762     S
S      0.22329  0.71507  0.39238     S
C       0.2255   0.2304   0.5456     C
C       0.2255   0.7696   0.9544     C
C       0.2304   0.2255   0.2044     C
C       0.2304   0.7745   0.2956     C
H       0.2384   0.1581   0.4322     H
H       0.2384   0.8419   0.0678     H
C       0.2635   0.1668   0.4875     C
C       0.2635   0.8332   0.0125     C
S      0.28493  0.22329  0.64238     S
S      0.28493  0.77671  0.85762     S
C       0.2984   0.1439   0.2167     C
C       0.2984   0.8561   0.2833     C
O       0.3071   0.1063     0.29     O
O       0.3071   0.8937     0.21     O
C       0.3462   0.1147   0.5205     C
C       0.3462   0.8853   0.9795     C
O        0.352   0.1139   0.1556     O
O        0.352   0.8861   0.3444     O
C       0.3645   0.1371   0.6034     C
C       0.3645   0.8629   0.8966     C
H       0.3834   0.0703   0.4885     H
H       0.3834   0.9297   0.0115     H
In     0.42366      0.0     0.25    In
C        0.443   0.0932   0.6597     C
C        0.443   0.9068   0.8403     C
O       0.4526   0.1209   0.7347     O
O       0.4526   0.8791   0.7653     O
O       0.4978   0.0263   0.6272     O
O       0.4978   0.9737   0.8728     O
O       0.5022   0.0263   0.3728     O
O       0.5022   0.9737   0.1272     O
O       0.5474   0.1209   0.2653     O
O       0.5474   0.8791   0.2347     O
C        0.557   0.0932   0.3403     C
C        0.557   0.9068   0.1597     C
In     0.57634      0.0     0.75    In
H       0.6166   0.0703   0.5115     H
H       0.6166   0.9297   0.9885     H
C       0.6355   0.1371   0.3966     C
C       0.6355   0.8629   0.1034     C
O        0.648   0.1139   0.8444     O
O        0.648   0.8861   0.6556     O
C       0.6538   0.1147   0.4795     C
C       0.6538   0.8853   0.0205     C
O       0.6929   0.1063     0.71     O
O       0.6929   0.8937     0.79     O
C       0.7016   0.1439   0.7833     C
C       0.7016   0.8561   0.7167     C
S      0.71507  0.22329  0.35762     S
S      0.71507  0.77671  0.14238     S
C       0.7365   0.1668   0.5125     C
C       0.7365   0.8332   0.9875     C
H       0.7616   0.1581   0.5678     H
H       0.7616   0.8419   0.9322     H
C       0.7696   0.2255   0.7956     C
C       0.7696   0.7745   0.7044     C
C       0.7745   0.2304   0.4544     C
C       0.7745   0.7696   0.0456     C
S      0.77671  0.28493  0.89238     S
S      0.77671  0.71507  0.60762     S
C       0.8332   0.2635   0.7375     C
C       0.8332   0.7365   0.7625     C
H       0.8419   0.2384   0.6822     H
H       0.8419   0.7616   0.8178     H
C       0.8561   0.2984   0.4667     C
C       0.8561   0.7016   0.0333     C
C       0.8629   0.3645   0.8534     C
C       0.8629   0.6355   0.6466     C
O       0.8791   0.4526   0.9847     O
O       0.8791   0.5474   0.5153     O
C       0.8853   0.3462   0.7705     C
C       0.8853   0.6538   0.7295     C
O       0.8861    0.352   0.4056     O
O       0.8861    0.648   0.0944     O
O       0.8937   0.3071     0.54     O
O       0.8937   0.6929     0.96     O
C       0.9068    0.443   0.9097     C
C       0.9068    0.557   0.5903     C
H       0.9297   0.3834   0.7385     H
H       0.9297   0.6166   0.7615     H
O       0.9737   0.4978   0.8772     O
O       0.9737   0.5022   0.6228     O
