data_I
_chemical_name_common  '/home/zhangsd/repos/MofS-CGCNN/ML/data/SSD/clean_cifs/SOMFEG_clean'
_cell_length_a 13.57700
_cell_length_b 13.57700
_cell_length_c 15.53940
_cell_angle_alpha 90.00000
_cell_angle_beta  90.00000
_cell_angle_gamma 90.00000
_space_group_name_H-M_alt      'P 1'


loop_
_space_group_symop_operation_xyz
  'x, y, z' 

loop_
_atom_site_label
_atom_site_fract_x
_atom_site_fract_y
_atom_site_fract_z
_atom_site_type_symbol
In         0.0  0.42385      0.5    In
In         0.0  0.57615      0.0    In
O       0.0262    0.497   0.1233     O
O       0.0262    0.503   0.3767     O
H       0.0715   0.3836   0.2615     H
H       0.0715   0.6164   0.2385     H
C       0.0925   0.4429   0.0913     C
C       0.0925   0.5571   0.4087     C
O       0.1052   0.3067   0.4597     O
O       0.1052   0.6933   0.0403     O
O       0.1149   0.3529    0.594     O
O       0.1149   0.6471    0.906     O
C        0.115   0.3457   0.2293     C
C        0.115   0.6543   0.2707     C
O       0.1207   0.4531   0.0155     O
O       0.1207   0.5469   0.4845     O
C       0.1366   0.3644   0.1464     C
C       0.1366   0.6356   0.3536     C
C       0.1432   0.2998   0.5333     C
C       0.1432   0.7002   0.9667     C
H       0.1554   0.2368   0.3175     H
H       0.1554   0.7632   0.1825     H
C       0.1652   0.2625   0.2627     C
C       0.1652   0.7375   0.2373     C
S       0.2233  0.28496  0.10754     S
S       0.2233  0.71504  0.39246     S
C       0.2249     0.23   0.5464     C
C       0.2249     0.77   0.9536     C
C         0.23   0.2249   0.2036     C
C         0.23   0.7751   0.2964     C
H       0.2368   0.1554   0.4325     H
H       0.2368   0.8446   0.0675     H
C       0.2625   0.1652   0.4873     C
C       0.2625   0.8348   0.0127     C
S      0.28496   0.2233  0.64246     S
S      0.28496   0.7767  0.85754     S
C       0.2998   0.1432   0.2167     C
C       0.2998   0.8568   0.2833     C
O       0.3067   0.1052   0.2903     O
O       0.3067   0.8948   0.2097     O
C       0.3457    0.115   0.5207     C
C       0.3457    0.885   0.9793     C
O       0.3529   0.1149    0.156     O
O       0.3529   0.8851    0.344     O
C       0.3644   0.1366   0.6036     C
C       0.3644   0.8634   0.8964     C
H       0.3836   0.0715   0.4885     H
H       0.3836   0.9285   0.0115     H
In     0.42385      0.0     0.25    In
C       0.4429   0.0925   0.6587     C
C       0.4429   0.9075   0.8413     C
O       0.4531   0.1207   0.7345     O
O       0.4531   0.8793   0.7655     O
O        0.497   0.0262   0.6267     O
O        0.497   0.9738   0.8733     O
O        0.503   0.0262   0.3733     O
O        0.503   0.9738   0.1267     O
O       0.5469   0.1207   0.2655     O
O       0.5469   0.8793   0.2345     O
C       0.5571   0.0925   0.3413     C
C       0.5571   0.9075   0.1587     C
In     0.57615      0.0     0.75    In
H       0.6164   0.0715   0.5115     H
H       0.6164   0.9285   0.9885     H
C       0.6356   0.1366   0.3964     C
C       0.6356   0.8634   0.1036     C
O       0.6471   0.1149    0.844     O
O       0.6471   0.8851    0.656     O
C       0.6543    0.115   0.4793     C
C       0.6543    0.885   0.0207     C
O       0.6933   0.1052   0.7097     O
O       0.6933   0.8948   0.7903     O
C       0.7002   0.1432   0.7833     C
C       0.7002   0.8568   0.7167     C
S      0.71504   0.2233  0.35754     S
S      0.71504   0.7767  0.14246     S
C       0.7375   0.1652   0.5127     C
C       0.7375   0.8348   0.9873     C
H       0.7632   0.1554   0.5675     H
H       0.7632   0.8446   0.9325     H
C         0.77   0.2249   0.7964     C
C         0.77   0.7751   0.7036     C
C       0.7751     0.23   0.4536     C
C       0.7751     0.77   0.0464     C
S       0.7767  0.28496  0.89246     S
S       0.7767  0.71504  0.60754     S
C       0.8348   0.2625   0.7373     C
C       0.8348   0.7375   0.7627     C
H       0.8446   0.2368   0.6825     H
H       0.8446   0.7632   0.8175     H
C       0.8568   0.2998   0.4667     C
C       0.8568   0.7002   0.0333     C
C       0.8634   0.3644   0.8536     C
C       0.8634   0.6356   0.6464     C
O       0.8793   0.4531   0.9845     O
O       0.8793   0.5469   0.5155     O
C        0.885   0.3457   0.7707     C
C        0.885   0.6543   0.7293     C
O       0.8851   0.3529    0.406     O
O       0.8851   0.6471    0.094     O
O       0.8948   0.3067   0.5403     O
O       0.8948   0.6933   0.9597     O
C       0.9075   0.4429   0.9087     C
C       0.9075   0.5571   0.5913     C
H       0.9285   0.3836   0.7385     H
H       0.9285   0.6164   0.7615     H
O       0.9738    0.497   0.8767     O
O       0.9738    0.503   0.6233     O
