data_I
_chemical_name_common  '/home/zhangsd/repos/MofS-CGCNN/ML/data/SSD/clean_cifs/SOMFIK_clean'
_cell_length_a 13.51000
_cell_length_b 13.51000
_cell_length_c 16.06840
_cell_angle_alpha 90.00000
_cell_angle_beta  90.00000
_cell_angle_gamma 90.00000
_space_group_name_H-M_alt      'P 1'


loop_
_space_group_symop_operation_xyz
  'x, y, z' 

loop_
_atom_site_label
_atom_site_fract_x
_atom_site_fract_y
_atom_site_fract_z
_atom_site_type_symbol
In         0.0  0.41831      0.0    In
In         0.0  0.58169      0.5    In
O        0.026    0.498   0.8824     O
O        0.026    0.502   0.6176     O
H       0.0721   0.3948   0.7567     H
H       0.0721   0.6052   0.7433     H
C       0.0937   0.4475   0.5895     C
C       0.0937   0.5525   0.9105     C
O       0.1073   0.3008   0.9582     O
O       0.1073   0.6992   0.5418     O
O       0.1146   0.3472   0.0883     O
O       0.1146   0.6528   0.4117     O
C       0.1149    0.354   0.7271     C
C       0.1149    0.646   0.7729     C
O       0.1239   0.4555    0.517     O
O       0.1239   0.5445    0.983     O
C       0.1371   0.3681    0.645     C
C       0.1371   0.6319    0.855     C
C       0.1468   0.2941   0.0288     C
C       0.1468   0.7059   0.4712     C
H       0.1519   0.2494   0.8164     H
H       0.1519   0.7506   0.6836     H
C       0.1625   0.2722   0.7625     C
C       0.1625   0.7278   0.7375     C
S       0.2218   0.2862  0.61063     S
S       0.2218   0.7138  0.88937     S
C       0.2275   0.2301   0.7064     C
C       0.2275   0.7699   0.7936     C
C       0.2301   0.2275   0.0436     C
C       0.2301   0.7725   0.4564     C
H       0.2494   0.1519   0.9336     H
H       0.2494   0.8481   0.5664     H
C       0.2722   0.1625   0.9875     C
C       0.2722   0.8375   0.5125     C
S       0.2862   0.2218  0.13937     S
S       0.2862   0.7782  0.36063     S
C       0.2941   0.1468   0.7212     C
C       0.2941   0.8532   0.7788     C
O       0.3008   0.1073   0.7918     O
O       0.3008   0.8927   0.7082     O
O       0.3472   0.1146   0.6617     O
O       0.3472   0.8854   0.8383     O
C        0.354   0.1149   0.0229     C
C        0.354   0.8851   0.4771     C
C       0.3681   0.1371    0.105     C
C       0.3681   0.8629    0.395     C
H       0.3948   0.0721   0.9933     H
H       0.3948   0.9279   0.5067     H
In     0.41831      0.0     0.75    In
C       0.4475   0.0937   0.1605     C
C       0.4475   0.9063   0.3395     C
O       0.4555   0.1239    0.233     O
O       0.4555   0.8761    0.267     O
O        0.498    0.026   0.8676     O
O        0.498    0.974   0.6324     O
O        0.502    0.026   0.1324     O
O        0.502    0.974   0.3676     O
O       0.5445   0.1239    0.767     O
O       0.5445   0.8761    0.733     O
C       0.5525   0.0937   0.8395     C
C       0.5525   0.9063   0.6605     C
In     0.58169      0.0     0.25    In
H       0.6052   0.0721   0.0067     H
H       0.6052   0.9279   0.4933     H
C       0.6319   0.1371    0.895     C
C       0.6319   0.8629    0.605     C
C        0.646   0.1149   0.9771     C
C        0.646   0.8851   0.5229     C
O       0.6528   0.1146   0.3383     O
O       0.6528   0.8854   0.1617     O
O       0.6992   0.1073   0.2082     O
O       0.6992   0.8927   0.2918     O
C       0.7059   0.1468   0.2788     C
C       0.7059   0.8532   0.2212     C
S       0.7138   0.2218  0.86063     S
S       0.7138   0.7782  0.63937     S
C       0.7278   0.1625   0.0125     C
C       0.7278   0.8375   0.4875     C
H       0.7506   0.1519   0.0664     H
H       0.7506   0.8481   0.4336     H
C       0.7699   0.2275   0.9564     C
C       0.7699   0.7725   0.5436     C
C       0.7725   0.2301   0.2936     C
C       0.7725   0.7699   0.2064     C
S       0.7782   0.2862  0.38937     S
S       0.7782   0.7138  0.11063     S
C       0.8375   0.2722   0.2375     C
C       0.8375   0.7278   0.2625     C
H       0.8481   0.2494   0.1836     H
H       0.8481   0.7506   0.3164     H
C       0.8532   0.2941   0.9712     C
C       0.8532   0.7059   0.5288     C
C       0.8629   0.3681    0.355     C
C       0.8629   0.6319    0.145     C
O       0.8761   0.4555    0.483     O
O       0.8761   0.5445    0.017     O
C       0.8851    0.354   0.2729     C
C       0.8851    0.646   0.2271     C
O       0.8854   0.3472   0.9117     O
O       0.8854   0.6528   0.5883     O
O       0.8927   0.3008   0.0418     O
O       0.8927   0.6992   0.4582     O
C       0.9063   0.4475   0.4105     C
C       0.9063   0.5525   0.0895     C
H       0.9279   0.3948   0.2433     H
H       0.9279   0.6052   0.2567     H
O        0.974    0.498   0.1176     O
O        0.974    0.502   0.3824     O
