data_I
_chemical_name_common  '/home/zhangsd/repos/MofS-CGCNN/ML/data/SSD/clean_cifs/SOMFAC_clean'
_cell_length_a 13.55900
_cell_length_b 13.55900
_cell_length_c 15.67820
_cell_angle_alpha 90.00000
_cell_angle_beta  90.00000
_cell_angle_gamma 90.00000
_space_group_name_H-M_alt      'P 1'


loop_
_space_group_symop_operation_xyz
  'x, y, z' 

loop_
_atom_site_label
_atom_site_fract_x
_atom_site_fract_y
_atom_site_fract_z
_atom_site_type_symbol
O       0.0021   0.4733   0.8719     O
O       0.0021   0.5267   0.6281     O
O       0.0473   0.3791    0.766     O
O       0.0473   0.6209    0.734     O
C       0.0571   0.4069   0.8412     C
C       0.0571   0.5931   0.6588     C
In     0.07701      0.5     0.25    In
H       0.1125   0.4285   0.0101     H
H       0.1125   0.5715   0.4899     H
C        0.134   0.3635   0.8959     C
C        0.134   0.6365   0.6041     C
O        0.148   0.3844   0.3425     O
O        0.148   0.6156   0.1575     O
C       0.1509   0.3848   0.9786     C
C       0.1509   0.6152   0.5214     C
O       0.1943    0.394   0.2092     O
O       0.1943    0.606   0.2908     O
C       0.2004    0.355   0.2823     C
C       0.2004    0.645   0.2177     C
S      0.21496  0.27708  0.85828     S
S      0.21496  0.72292  0.64172     S
C       0.2331    0.334   0.0126     C
C       0.2331    0.666   0.4874     C
H       0.2573   0.3426   0.0676     H
H       0.2573   0.6574   0.4324     H
C       0.2701   0.2724   0.2962     C
C       0.2701   0.7276   0.2038     C
C       0.2724   0.2701   0.9538     C
C       0.2724   0.7299   0.5462     C
S      0.27708  0.21496  0.39172     S
S      0.27708  0.78504  0.10828     S
C        0.334   0.2331   0.2374     C
C        0.334   0.7669   0.2626     C
H       0.3426   0.2573   0.1824     H
H       0.3426   0.7427   0.3176     H
C        0.355   0.2004   0.9677     C
C        0.355   0.7996   0.5323     C
C       0.3635    0.134   0.3541     C
C       0.3635    0.866   0.1459     C
O       0.3791   0.0473    0.484     O
O       0.3791   0.9527    0.016     O
O       0.3844    0.148   0.9075     O
O       0.3844    0.852   0.5925     O
C       0.3848   0.1509   0.2714     C
C       0.3848   0.8491   0.2286     C
O        0.394   0.1943   0.0408     O
O        0.394   0.8057   0.4592     O
C       0.4069   0.0571   0.4088     C
C       0.4069   0.9429   0.0912     C
H       0.4285   0.1125   0.2399     H
H       0.4285   0.8875   0.2601     H
O       0.4733   0.0021   0.3781     O
O       0.4733   0.9979   0.1219     O
In         0.5  0.07701      0.0    In
In         0.5  0.92299      0.5    In
O       0.5267   0.0021   0.6219     O
O       0.5267   0.9979   0.8781     O
H       0.5715   0.1125   0.7601     H
H       0.5715   0.8875   0.7399     H
C       0.5931   0.0571   0.5912     C
C       0.5931   0.9429   0.9088     C
O        0.606   0.1943   0.9592     O
O        0.606   0.8057   0.5408     O
C       0.6152   0.1509   0.7286     C
C       0.6152   0.8491   0.7714     C
O       0.6156    0.148   0.0925     O
O       0.6156    0.852   0.4075     O
O       0.6209   0.0473    0.516     O
O       0.6209   0.9527    0.984     O
C       0.6365    0.134   0.6459     C
C       0.6365    0.866   0.8541     C
C        0.645   0.2004   0.0323     C
C        0.645   0.7996   0.4677     C
H       0.6574   0.2573   0.8176     H
H       0.6574   0.7427   0.6824     H
C        0.666   0.2331   0.7626     C
C        0.666   0.7669   0.7374     C
S      0.72292  0.21496  0.60828     S
S      0.72292  0.78504  0.89172     S
C       0.7276   0.2701   0.0462     C
C       0.7276   0.7299   0.4538     C
C       0.7299   0.2724   0.7038     C
C       0.7299   0.7276   0.7962     C
H       0.7427   0.3426   0.9324     H
H       0.7427   0.6574   0.5676     H
C       0.7669    0.334   0.9874     C
C       0.7669    0.666   0.5126     C
S      0.78504  0.27708  0.14172     S
S      0.78504  0.72292  0.35828     S
C       0.7996    0.355   0.7177     C
C       0.7996    0.645   0.7823     C
O       0.8057    0.394   0.7908     O
O       0.8057    0.606   0.7092     O
C       0.8491   0.3848   0.0214     C
C       0.8491   0.6152   0.4786     C
O        0.852   0.3844   0.6575     O
O        0.852   0.6156   0.8425     O
C        0.866   0.3635   0.1041     C
C        0.866   0.6365   0.3959     C
H       0.8875   0.4285   0.9899     H
H       0.8875   0.5715   0.5101     H
In     0.92299      0.5     0.75    In
C       0.9429   0.4069   0.1588     C
C       0.9429   0.5931   0.3412     C
O       0.9527   0.3791    0.234     O
O       0.9527   0.6209    0.266     O
O       0.9979   0.4733   0.1281     O
O       0.9979   0.5267   0.3719     O
