data_I
_chemical_name_common  '/home/zhangsd/repos/MofS-CGCNN/ML/data/SSD/clean_cifs/SONTIZ_clean'
_cell_length_a 10.53900
_cell_length_b 11.21800
_cell_length_c 12.84200
_cell_angle_alpha 101.47200
_cell_angle_beta  110.50000
_cell_angle_gamma 99.25700
_space_group_name_H-M_alt      'P 1'


loop_
_space_group_symop_operation_xyz
  'x, y, z' 

loop_
_atom_site_label
_atom_site_fract_x
_atom_site_fract_y
_atom_site_fract_z
_atom_site_type_symbol
C       0.0389   0.4212   0.4239     C
C       0.0531   0.9566   0.9196     C
H       0.0887   0.9272   0.8654     H
C       0.0925   0.0585   0.1161     C
N        0.097    0.342    0.362     N
C       0.0976   0.6098   0.5801     C
C       0.1351   0.5308   0.5037     C
C       0.1444   0.0142   0.0334     C
O        0.168   0.7933   0.7363     O
N       0.1723   0.1149   0.2271     N
C       0.1997   0.7295   0.6645     C
N        0.276    0.532   0.5158     N
C       0.2981   0.0259   0.0664     C
O       0.3175   0.7631   0.6583     O
O        0.344   0.9969   0.9882     O
O       0.3803   0.0624   0.1724     O
Tb     0.39379  0.95009  0.82439    Tb
O       0.4312   0.7797    0.903     O
C       0.4703   0.7545   0.9992     C
C       0.4823   0.6217   0.9983     C
C       0.4868     0.54      0.9     C
H       0.4956   0.6353   0.1603     H
C       0.4968    0.581   0.0958     C
O       0.4996   0.8308   0.0963     O
O       0.5004   0.1692   0.9037     O
C       0.5032    0.419   0.9042     C
H       0.5044   0.3647   0.8397     H
C       0.5132     0.46      0.1     C
C       0.5177   0.3783   0.0017     C
C       0.5297   0.2455   0.0008     C
O       0.5688   0.2203    0.097     O
Tb     0.60621  0.04991  0.17561    Tb
O       0.6197   0.9376   0.8276     O
O        0.656   0.0031   0.0118     O
O       0.6825   0.2369   0.3417     O
C       0.7019   0.9741   0.9336     C
N        0.724    0.468   0.4842     N
C       0.8003   0.2705   0.3355     C
N       0.8277   0.8851   0.7729     N
O        0.832   0.2067   0.2637     O
C       0.8556   0.9858   0.9666     C
C       0.8649   0.4692   0.4963     C
C       0.9024   0.3902   0.4199     C
N        0.903    0.658    0.638     N
C       0.9075   0.9415   0.8839     C
H       0.9113   0.0728   0.1346     H
C       0.9469   0.0434   0.0804     C
C       0.9611   0.5788   0.5761     C
