data_I
_chemical_name_common  '/home/zhangsd/repos/MofS-CGCNN/ML/data/SSD/clean_cifs/SONTAR_manual'
_cell_length_a 10.49510
_cell_length_b 11.33960
_cell_length_c 12.79540
_cell_angle_alpha 100.73000
_cell_angle_beta  110.14200
_cell_angle_gamma 99.73200
_space_group_name_H-M_alt      'P 1'


loop_
_space_group_symop_operation_xyz
  'x, y, z' 

loop_
_atom_site_label
_atom_site_fract_x
_atom_site_fract_y
_atom_site_fract_z
_atom_site_type_symbol
C      0.05379  0.41943  0.42708     C
C      0.05673  0.87466  0.99383     C
H      0.09073   0.3553  0.37794     H
C      0.09487  0.59033  0.58938     C
H      0.10046  0.80161  0.96413     H
C      0.10352  0.08742    0.118     C
H      0.14387  0.74935  0.73186     H
C      0.15081 -0.01514  0.07819     C
C      0.15131  0.51082  0.52635     C
O      0.17736  0.31641  0.21186     O
N      0.18174   0.6785  0.69768     N
C      0.20589  0.21135  0.20187     C
H      0.26228 -0.00882  0.10972     H
H      0.27336  0.66409  0.75352     H
C      0.30879  0.52468   0.5609     C
O       0.3325  0.22503  0.26879     O
H      0.36267  0.81398  0.63298     H
O      0.37792  0.44914  0.51668     O
O      0.39704  0.60505     0.64     O
Pr      0.4006  0.44496  0.34263    Pr
N      0.41648    0.907  0.65863     N
H      0.41785  0.96218   0.7343     H
O      0.42901  0.66546  0.39131     O
O      0.45779  0.29272  0.43587     O
C      0.46792  0.96119   0.5838     C
H      0.48285  0.14666  0.67487     H
C      0.48341  0.88599  0.48864     C
C      0.49127  0.75608  0.48619     C
C      0.49841  0.09073  0.60397     C
C      0.52271   0.9434  0.41273     C
C      0.53794  0.27798  0.53276     C
H      0.53805  0.88904  0.34098     H
C      0.53848  0.14725  0.52845     C
C       0.5485  0.07241  0.43181     C
O      0.56576  0.74386  0.58457     O
H      0.57584  0.11435   0.3704     H
O      0.60814  0.40985  0.32234     O
O      0.61068  0.36709  0.62701     O
Pr     0.61101  0.57328  0.63661    Pr
O      0.62913  0.55198  0.46092     O
H      0.63947 -0.11564 -0.12316     H
H      0.67849  1.03157  0.97503     H
O      0.69115  0.68087   0.8349     O
C      0.69614  0.47976  0.41053     C
N        0.714  0.95736 -0.05628     N
C      0.81132  0.74278  0.84687     C
O      0.83528  0.70308  0.75792     O
H      0.83719  0.33672  0.31329     H
C      0.85248  0.49025  0.44967     C
C      0.86034  0.96047  0.98862     C
C      0.90754  0.40887   0.3898     C
C      0.90909  0.85804  0.94712     C
H      0.90966    0.645  0.59562     H
H      0.91494  0.14787  0.09826     H
C      0.94871  0.58123  0.54837     C
C      0.95637  0.07172  0.07129     C
