data_I
_chemical_name_common  '/home/zhangsd/repos/MofS-CGCNN/ML/data/SSD/clean_cifs/SOTWUV_clean'
_cell_length_a 12.97310
_cell_length_b 12.97310
_cell_length_c 14.78100
_cell_angle_alpha 83.84000
_cell_angle_beta  83.84000
_cell_angle_gamma 62.22520
_space_group_name_H-M_alt      'P 1'


loop_
_space_group_symop_operation_xyz
  'x, y, z' 

loop_
_atom_site_label
_atom_site_fract_x
_atom_site_fract_y
_atom_site_fract_z
_atom_site_type_symbol
Tb     0.01177  0.64992  0.47276    Tb
O       0.0621   0.7779   0.5486     O
O      0.10481  0.54141    0.604     O
O      0.11453  0.36433   0.6208     O
O      0.11642  0.45922   0.4336     O
O      0.14249  0.28529   0.4104     O
C       0.1461   0.4381   0.6371     C
C        0.168   0.3664   0.3931     C
N       0.1701   0.7241   0.5326     N
O       0.2067   0.6451   0.4775     O
H        0.218   0.2644   0.7648     H
O       0.2221   0.9379   0.9514     O
O       0.2385   0.7439   0.5698     O
C       0.2406   0.3982   0.7024     C
O       0.2561   0.7615   0.9302     O
C      0.26263  0.30363   0.7635     C
H       0.2644    0.218   0.2648     H
C       0.2661   0.3509    0.323     C
N       0.2759   0.8299   0.9674     N
O      0.28529  0.14249   0.9104     O
H       0.2887   0.5239   0.6615     H
H       0.2947   0.4815   0.3566     H
C      0.30363  0.26263   0.2635     C
C       0.3062   0.4576   0.7007     C
C       0.3218   0.4202   0.3186     C
Tb     0.35008  0.98823  0.02724    Tb
C       0.3509   0.2661    0.823     C
O       0.3549   0.7933   0.0225     O
O      0.36433  0.11453   0.1208     O
C       0.3664    0.168   0.8931     C
C       0.3982   0.2406   0.2024     C
C       0.3986   0.4184   0.7575     C
C       0.4184   0.3986   0.2575     C
C       0.4202   0.3218   0.8186     C
C       0.4381   0.1461   0.1371     C
C       0.4576   0.3062   0.2007     C
O      0.45859  0.89519    0.896     O
O      0.45922  0.11642   0.9336     O
C       0.4672    0.479   0.7533     C
H       0.4761   0.7113   0.8385     H
C        0.479   0.4672   0.2533     C
H       0.4815   0.2947   0.8566     H
H       0.5185   0.7053   0.1434     H
C        0.521   0.5328   0.7467     C
H       0.5239   0.2887   0.1615     H
C       0.5328    0.521   0.2467     C
O      0.54078  0.88358   0.0664     O
O      0.54141  0.10481    0.104     O
C       0.5424   0.6938   0.7993     C
C       0.5619   0.8539   0.8629     C
C       0.5798   0.6782   0.1814     C
C       0.5816   0.6014   0.7425     C
C       0.6014   0.5816   0.2425     C
C       0.6018   0.7594   0.7976     C
C       0.6336    0.832   0.1069     C
O      0.63567  0.88547   0.8792     O
O       0.6451   0.2067   0.9775     O
C       0.6491   0.7339    0.177     C
Tb     0.64992  0.01177  0.97276    Tb
C       0.6782   0.5798   0.6814     C
C       0.6938   0.5424   0.2993     C
C      0.69637  0.73737   0.7365     C
H       0.7053   0.5185   0.6434     H
H       0.7113   0.4761   0.3385     H
O      0.71471  0.85751   0.0896     O
N       0.7241   0.1701   0.0326     N
C       0.7339   0.6491    0.677     C
H       0.7356    0.782   0.7352     H
C      0.73737  0.69637   0.2365     C
O       0.7439   0.2385   0.0698     O
C       0.7594   0.6018   0.2976     C
O       0.7615   0.2561   0.4302     O
O       0.7779   0.0621   0.0486     O
H        0.782   0.7356   0.2352     H
O       0.7933   0.3549   0.5225     O
N       0.8299   0.2759   0.4674     N
C        0.832   0.6336   0.6069     C
C       0.8539   0.5619   0.3629     C
O      0.85751  0.71471   0.5896     O
O      0.88358  0.54078   0.5664     O
O      0.88547  0.63567   0.3792     O
O      0.89519  0.45859    0.396     O
O       0.9379   0.2221   0.4514     O
Tb     0.98823  0.35008  0.52724    Tb
