data_I
_chemical_name_common  '/home/zhangsd/repos/MofS-CGCNN/ML/data/SSD/clean_cifs/SOTWOP_clean'
_cell_length_a 13.01770
_cell_length_b 13.01770
_cell_length_c 15.00200
_cell_angle_alpha 83.69560
_cell_angle_beta  83.69560
_cell_angle_gamma 61.73200
_space_group_name_H-M_alt      'P 1'


loop_
_space_group_symop_operation_xyz
  'x, y, z' 

loop_
_atom_site_label
_atom_site_fract_x
_atom_site_fract_y
_atom_site_fract_z
_atom_site_type_symbol
Eu     0.01022  0.65098  0.47281    Eu
O       0.0615   0.7813   0.5466     O
O       0.1064   0.5414   0.6032     O
O        0.117   0.3644   0.6214     O
O       0.1174   0.4554   0.4346     O
O       0.1456   0.2812   0.4086     O
C        0.147   0.4374   0.6376     C
C       0.1703   0.3625   0.3936     C
N       0.1713   0.7251   0.5301     N
O       0.2059   0.6469   0.4768     O
O       0.2187   0.9385   0.9534     O
H       0.2191   0.2647   0.7645     H
O       0.2403   0.7409    0.568     O
C       0.2424   0.3982   0.7018     C
O       0.2591   0.7597    0.932     O
C       0.2633   0.3039   0.7635     C
H       0.2647   0.2191   0.2645     H
C       0.2674   0.3498    0.324     C
N       0.2749   0.8287   0.9699     N
O       0.2812   0.1456   0.9086     O
H       0.2909   0.5235   0.6617     H
H       0.2972   0.4796   0.3583     H
C       0.3039   0.2633   0.2635     C
C       0.3076   0.4576   0.7006     C
C       0.3232   0.4194   0.3199     C
Eu     0.34902  0.98978  0.02719    Eu
C       0.3498   0.2674    0.824     C
O       0.3531   0.7941   0.0232     O
C       0.3625   0.1703   0.8936     C
O       0.3644    0.117   0.1214     O
C       0.3982   0.2424   0.2018     C
C       0.3982    0.418   0.7581     C
C        0.418   0.3982   0.2581     C
C       0.4194   0.3232   0.8199     C
C       0.4374    0.147   0.1376     C
O       0.4554   0.1174   0.9346     O
C       0.4576   0.3076   0.2006     C
O       0.4586   0.8936   0.8968     O
C       0.4666   0.4792   0.7528     C
H       0.4765   0.7091   0.8383     H
C       0.4792   0.4666   0.2528     C
H       0.4796   0.2972   0.8583     H
H       0.5204   0.7028   0.1417     H
C       0.5208   0.5334   0.7472     C
H       0.5235   0.2909   0.1617     H
C       0.5334   0.5208   0.2472     C
O       0.5414   0.1064   0.1032     O
C       0.5424   0.6924   0.7994     C
O       0.5446   0.8826   0.0654     O
C       0.5626    0.853   0.8624     C
C       0.5806   0.6768   0.1801     C
C        0.582   0.6018   0.7419     C
C       0.6018    0.582   0.2419     C
C       0.6018   0.7576   0.7982     C
O       0.6356    0.883   0.8786     O
C       0.6375   0.8297   0.1064     C
O       0.6469   0.2059   0.9768     O
C       0.6502   0.7326    0.176     C
Eu     0.65098  0.01022  0.97281    Eu
C       0.6768   0.5806   0.6801     C
C       0.6924   0.5424   0.2994     C
C       0.6961   0.7367   0.7365     C
H       0.7028   0.5204   0.6417     H
H       0.7091   0.4765   0.3383     H
O       0.7188   0.8544   0.0914     O
N       0.7251   0.1713   0.0301     N
C       0.7326   0.6502    0.676     C
H       0.7353   0.7809   0.7355     H
C       0.7367   0.6961   0.2365     C
O       0.7409   0.2403    0.068     O
C       0.7576   0.6018   0.2982     C
O       0.7597   0.2591    0.432     O
H       0.7809   0.7353   0.2355     H
O       0.7813   0.0615   0.0466     O
O       0.7941   0.3531   0.5232     O
N       0.8287   0.2749   0.4699     N
C       0.8297   0.6375   0.6064     C
C        0.853   0.5626   0.3624     C
O       0.8544   0.7188   0.5914     O
O       0.8826   0.5446   0.5654     O
O        0.883   0.6356   0.3786     O
O       0.8936   0.4586   0.3968     O
O       0.9385   0.2187   0.4534     O
Eu     0.98978  0.34902  0.52719    Eu
