data_I
_chemical_name_common  '/home/zhangsd/repos/MofS-CGCNN/ML/data/SSD/clean_cifs/SUGDIJ_auto'
_cell_length_a 24.36000
_cell_length_b 24.36000
_cell_length_c 16.90900
_cell_angle_alpha 90.00000
_cell_angle_beta  90.00000
_cell_angle_gamma 90.00000
_space_group_name_H-M_alt      'P 1'


loop_
_space_group_symop_operation_xyz
  'x, y, z' 

loop_
_atom_site_label
_atom_site_fract_x
_atom_site_fract_y
_atom_site_fract_z
_atom_site_type_symbol
C     -0.02506  0.83488  0.98596     C
O     -0.00769  0.85438  1.05101     O
O     -0.00503  0.85096  0.92058     O
C      0.00575  1.00296  0.83734     C
C       0.0069  1.00618  1.13046     C
O       0.0127  0.95128  0.83487     O
O       0.0132   0.9545  1.13429     O
O      0.02394  1.03107  0.89543     O
O      0.02493  1.03324  1.07127     O
Zn      0.0452   0.9044  1.07251    Zn
Zn     0.04608  0.90252  0.89794    Zn
Zn     0.06268  1.00997  0.98336    Zn
O      0.07684  0.93508  0.98484     O
H      0.08979  0.75059  0.36635     H
H      0.09099  0.74708  0.60837     H
O      0.09463  0.87094   1.1347     O
O      0.09604  0.86967  0.83666     O
H      0.09879  0.80295  0.24598     H
H      0.10035  0.80017    0.728     H
O      0.12562  1.04969  0.98192     O
N       0.1323  0.75163  0.37419     N
N      0.13338   0.7489  0.59951     N
C      0.14257  0.80752  0.25514     C
C      0.14396  0.80538  0.71795     C
C      0.14649  0.86519  1.13202     C
C      0.14786   0.8643  0.83966     C
H      0.14909   0.7253  0.41636     H
H      0.15015  0.72304  0.55672     H
Zn     0.15201  0.92221  0.98554    Zn
H      0.16299  0.14599  0.95064     H
C      0.16639  0.78347  0.32249     C
C      0.16747  0.78138  0.65038     C
O      0.17409  0.88422  1.07392     O
C      0.17422  0.83683  0.19975     C
O      0.17514  0.88378  0.89779     O
C      0.17565  0.83566  0.77227     C
C      0.17622  1.03646  0.98362     C
O      0.19076  0.98617  0.98568     O
H      0.19505  0.81921  0.48633     H
C      0.20493   0.1353 -0.03477     C
C      0.21895  0.08068 -0.01662     C
C      0.22327  0.78977  0.33714     C
C      0.22405  0.78854  0.63453     C
C      0.22808  0.78939  0.48587     C
C      0.23118  0.84053  0.21242     C
C      0.23241  0.84016  0.75848     C
H       0.2327  0.21845  -0.0493     H
C      0.24483  0.17684 -0.03493     C
C      0.24867  0.77043  0.41291     C
C      0.24883  0.76956  0.55823     C
C      0.25533  0.81742  0.28039     C
C      0.25625    0.817  0.69029     C
H      0.25686  0.86275   0.1711     H
H      0.25808  0.86313  0.79895     H
C      0.27412  0.06888  0.00159     C
H      0.28599  0.02717  0.01575     H
C      0.29154  0.73062  0.55705     C
C      0.29187  0.73198  0.41301     C
H        0.299  0.82256  0.28992     H
H      0.29971  0.82282  0.67972     H
C      0.29974  0.16526 -0.01592     C
H      0.30039  0.60436  0.52117     H
H      0.30733  0.71452  0.61229     H
H      0.30778  0.71673  0.35734     H
H      0.31034  0.34013  0.23469     H
H      0.31147  0.34009  -0.2655     H
H      0.31289  0.31468   0.1359     H
C      0.31319  0.71147  0.48476     C
H      0.31349  0.31591 -0.16603     H
C      0.31444  0.11049  0.00245     C
N      0.33354  0.32407   0.1882     N
N      0.33443  0.32461 -0.21834     N
C      0.34069  0.21081 -0.01531     C
C      0.34229  0.61405  0.50486     C
H      0.34597   0.2161 -0.14265     H
H      0.34637  0.21423  0.11217     H
C      0.35648  0.66811  0.48423     C
C      0.36042  0.23281 -0.08703     C
C      0.36074  0.23165  0.05696     C
H      0.36895  0.53075  0.52006     H
N      0.37007  0.09616  0.02099     N
H      0.38043  0.05576  0.03531     H
C      0.38155  0.57189  0.50395     C
C      0.39193  0.31862  0.19547     C
C       0.3929  0.31939 -0.22467     C
H      0.39336  0.35907  0.30928     H
H      0.39488  0.35921 -0.33883     H
C      0.39987  0.27425  0.05814     C
C      0.39996  0.27508 -0.08717     C
H       0.4014  0.76728  0.44431     H
H      0.40171  0.12502   0.0196     H
C      0.41152  0.67956  0.46313     C
C      0.41804  0.33995  0.26366     C
C      0.41929  0.29524 -0.01425     C
C      0.41938  0.34053 -0.29264     C
C      0.42389  0.29492  0.13407     C
C      0.42453  0.29614 -0.16259     C
N      0.42847   0.7341   0.4426     N
C      0.43645  0.58276  0.48351     C
H      0.44996  0.32749 -0.01381     H
C      0.45083  0.63702  0.46339     C
O      0.46344  0.48793  0.48585     O
H      0.46907  0.74206  0.42637     H
C      0.47557  0.33897  0.27155     C
C      0.47698  0.33993 -0.29971     C
O      0.47768   0.3856  0.39801     O
C      0.47861  0.53802  0.48373     C
O      0.47883  0.38594   0.5737     O
C      0.48113  0.29284  0.14352     C
C       0.4819  0.29454 -0.17111     C
H      0.49285  0.64647   0.4474     H
Zn      0.5014  0.42353  0.48558    Zn
C      0.50438  0.36616  0.33934     C
C      0.50584  0.36688  0.63231     C
C       0.5065  0.31441  0.21084     C
H      0.50658  0.27484   0.0978     H
H      0.50714  0.27688 -0.12488     H
C      0.50766  0.31604 -0.23823     C
O      0.52937  0.55059  0.48195     O
H      0.55084  0.31257  0.21455     H
H      0.55204  0.31457  0.75871     H
O      0.55628  0.37071  0.33602     O
O      0.55779  0.37178  0.63537     O
O      0.57666   0.4353  0.48489     O
Zn     0.59172  0.50997  0.48341    Zn
Zn     0.60685  0.40242  0.39777    Zn
Zn     0.60786  0.40416  0.57269    Zn
O      0.62976  0.53271   0.5712     O
O      0.63068  0.53057  0.39559     O
O      0.64083  0.45388  0.63427     O
O      0.64116  0.45072  0.33491     O
H      0.64675  0.61526  0.67243     H
C      0.64761   0.5055  0.63035     C
C      0.64862  0.50233   0.3375     C
H      0.65589  0.61262  0.30067     H
O      0.65684  0.34982  0.42049     O
O      0.65975  0.35304  0.55098     O
C      0.67045   0.5898   0.7123     C
C      0.67606  0.53325  0.69769     C
C      0.67647  0.58633  1.25838     C
C      0.67655  0.33319  0.48581     C
C      0.67762  0.52917  1.26977     C
H       0.6848  0.24509  0.38849     H
H      0.68662  0.65683  0.79198     H
C      0.69332  0.61359  0.78065     C
H      0.69428  0.55032  0.98356     H
H      0.69668  0.65396  1.18192     H
C      0.69996  0.61001  1.19049     C
C      0.70488  0.49668  1.21322     C
C      0.70719  0.50175   0.7511     C
H      0.70746  0.45265  1.22143     H
H      0.71327  0.45834  0.74017     H
C      0.71843  0.24719  0.43035     C
C      0.71983  0.29004  0.48579     C
H      0.72022  0.15991  0.33557     H
C       0.7227  0.58154  0.83555     C
C      0.72387  0.58356  0.98405     C
C      0.72543  0.57726  1.13249     C
C      0.72927  0.52001  1.14578     C
C      0.73113  0.52527  0.81864     C
C      0.74177  0.60605  0.91186     C
C      0.74445  0.60272  1.05674     C
N      0.75031  0.15895  0.37955     N
H      0.75809  0.44244  1.09963     H
C      0.75819  0.20516  0.43087     C
N      0.75887  0.48503   1.0926     N
H      0.75973  0.74963  0.08291     H
C      0.76261  0.29106  0.54133     C
H      0.76479  0.32371   0.5847     H
N      0.76495   0.4916  0.86825     N
H      0.76752   0.4493  0.85887     H
H      0.76985  0.12149  0.38963     H
C      0.77913   0.6501  0.91303     C
C      0.78319  0.64558  1.05663     C
H       0.7853  0.50102  1.04994     H
H      0.79122  0.50871  0.91023     H
H      0.79242  0.66784  0.85749     H
N      0.79787  0.76794  1.09248     N
H      0.80027  0.79762  0.13693     H
C      0.80051   0.6703  0.98517     C
H      0.80064  0.65889  1.11234     H
C      0.80299   0.2077  0.48473     C
C      0.80401  0.25104  0.53997     C
H      0.83738  0.25435  0.58201     H
C      0.84342  0.75866  1.04044     C
C      0.84354  0.71459  0.98529     C
C      0.84875  0.16625   0.4845     C
H      0.85058  0.15685  0.61199     H
H      0.85898  0.16577   0.3571     H
H        0.863  0.00956  0.41002     H
C      0.86841  0.14392  0.55634     C
H      0.86938  0.00153  0.54946     H
C      0.87267  0.14845  0.41272     C
H      0.88616  -0.0498  0.35803     H
C      0.88688  0.71193  0.93011     C
H      0.88704  0.82949  0.08438     H
C      0.88744  0.79625   1.0418     C
H      0.88869  0.67884  0.88744     H
N      0.88907 -0.00756  0.36778     N
N      0.89563 -0.01439  0.59242     N
H      0.89643 -0.05698  0.59953     H
C      0.90939  0.10315  0.55672     C
C      0.91234  0.10651  0.41187     C
C      0.92318  0.02605  0.31847     C
C      0.92509  0.02067  0.64567     C
C      0.92877  0.07791   0.6324     C
C      0.92899  0.75115  0.92972     C
C       0.9302  0.79325  0.98625     C
C      0.93094   0.0848  0.48416     C
C      0.93191  0.08219  0.33576     C
H      0.94074 -0.04074  0.23971     H
H      0.94701 -0.04665  0.72124     H
C      0.94712  0.00258  0.25093     C
C      0.94956 -0.00261  0.71305     C
C      0.95432  0.11072  0.69025     C
H      0.95748  0.15467  0.68164     H
H      0.96142  0.74781  0.88617     H
C       0.9617  0.11423  0.28131     C
H      0.96177  0.05271  0.48386     H
H      0.96856  0.15741  0.29296     H
C      0.97686  0.02989  0.76955     C
C      0.97797  0.08706  0.75811     C
C      0.97862  0.03403  0.19789     C
C      0.98463  0.09049  0.21293     C
H      0.99857  0.11336  0.80035     H
H      1.00861   1.1159  0.17334     H
