data_I
_chemical_name_common  '/home/zhangsd/repos/MofS-CGCNN/ML/data/SSD/clean_cifs/SUHBAA_clean'
_cell_length_a 37.22700
_cell_length_b 37.22700
_cell_length_c 30.14900
_cell_angle_alpha 90.00000
_cell_angle_beta  90.00000
_cell_angle_gamma 120.00000
_space_group_name_H-M_alt      'P 1'


loop_
_space_group_symop_operation_xyz
  'x, y, z' 

loop_
_atom_site_label
_atom_site_fract_x
_atom_site_fract_y
_atom_site_fract_z
_atom_site_type_symbol
H       0.0006   0.0975   0.2215     H
H       0.0006   0.9031   0.2785     H
H        0.006   0.3196   0.5711     H
H        0.006   0.6864   0.9289     H
C       0.0066   0.3197    0.602     C
C       0.0066   0.6869    0.898     C
C       0.0086     0.32   0.6941     C
F       0.0086   0.3201   0.7376     F
F       0.0086   0.6885   0.7624     F
C       0.0086   0.6886   0.8059     C
C       0.0192   0.0384     0.25     C
C       0.0192   0.9808     0.25     C
C       0.0236   0.0472     0.75     C
C       0.0236   0.9764     0.75     C
C      0.02621   0.1114   0.7329     C
C      0.02621  0.91481   0.7671     C
C       0.0273   0.3397   0.1721     C
C       0.0273   0.6876   0.3279     C
C       0.0283   0.3405    0.126     C
C       0.0283   0.6878    0.374     C
H      0.03365   0.0673     0.25     H
H      0.03365  0.96635     0.25     H
F        0.034   0.1786   0.7175     F
F        0.034   0.8554   0.7825     F
C       0.0384   0.0192     0.75     C
C       0.0426   0.3274    0.624     C
C       0.0426   0.7152    0.876     C
C       0.0436   0.3276   0.6701     C
C       0.0436    0.716   0.8299     C
C       0.0449   0.0898     0.75     C
C       0.0449   0.9551     0.75     C
C       0.0472   0.0236     0.25     C
C      0.04795  0.15491   0.7329     C
C      0.04795  0.89304   0.7671     C
H       0.0507   0.3581   0.1881     H
H       0.0507   0.6926   0.3119     H
H       0.0525    0.337   0.0442     H
H       0.0525   0.7155   0.4558     H
C       0.0656   0.3704   0.1008     C
C       0.0656   0.6952   0.3992     C
H       0.0673  0.03365     0.75     H
O       0.0717   0.2982   0.7207     O
O       0.0717   0.7735   0.7793     O
C       0.0722   0.3613   0.0578     C
C       0.0722   0.7109   0.4422     C
F       0.0756   0.3346   0.6014     F
F       0.0756    0.741   0.8986     F
H       0.0786   0.3211   0.9945     H
H       0.0786   0.7575   0.5055     H
C       0.0807   0.3298   0.6924     C
C       0.0807   0.7509   0.8076     C
F       0.0843   0.2928   0.9179     F
F       0.0843   0.7915   0.5821     F
C      0.08519   0.1114   0.7671     C
C      0.08519  0.97379   0.7329     C
C      0.08825  0.17651     0.75     C
C      0.08825  0.91175     0.75     C
C       0.0898   0.0449     0.25     C
O       0.0907   0.2478    0.756     O
H       0.0907    0.413   0.1498     H
H       0.0907   0.6777   0.3502     H
O       0.0907   0.8429    0.744     O
O       0.0935   0.3029   0.6804     O
O       0.0935   0.7906   0.8196     O
O       0.0951   0.3567   0.7269     O
C       0.0951   0.4069   0.1211     C
C       0.0951   0.6882   0.3789     C
O       0.0951   0.7384   0.7731     O
C       0.0954   0.3417   0.9745     C
C       0.0954   0.7537   0.5255     C
H       0.0969   0.0975   0.2785     H
H       0.0969   0.9994   0.2215     H
H       0.0975   0.0006   0.7215     H
H       0.0975   0.0969   0.7785     H
C       0.1013   0.3312    0.932     C
C       0.1013   0.7701    0.568     C
C      0.10696  0.15491   0.7671     C
C      0.10696  0.95205   0.7329     C
O       0.1076   0.3198   0.8402     O
O       0.1076   0.7878   0.6598     O
C       0.1082   0.3887   0.0353     C
C       0.1082   0.7195   0.4647     C
Zn      0.1105   0.3021   0.7786    Zn
Zn      0.1105   0.8084   0.7214    Zn
C       0.1114  0.02621   0.2329     C
C       0.1114  0.08519   0.2671     C
C       0.1115    0.223     0.75     C
C       0.1115   0.8885     0.75     C
O        0.114   0.2415   0.7105     O
O        0.114   0.8725   0.7895     O
O       0.1146   0.3675    0.685     O
C       0.1146   0.3832   0.9872     C
C       0.1146   0.7314   0.5128     C
O       0.1146   0.7471    0.815     O
H       0.1255   0.4839   0.1598     H
H       0.1255   0.6416   0.3402     H
C       0.1265   0.3621   0.9022     C
C       0.1265   0.7644   0.5978     C
O       0.1275   0.2415   0.7895     O
O       0.1275    0.886   0.7105     O
O       0.1285   0.3714   0.8243     O
O       0.1285   0.7571   0.6757     O
C       0.1311   0.4342   0.0986     C
C       0.1311   0.6969   0.4014     C
C       0.1377   0.4251   0.0556     C
C       0.1377   0.7126   0.4444     C
C       0.1396   0.3547   0.8577     C
C       0.1396   0.7849   0.6423     C
Zn     0.13965  0.29765  0.69821    Zn
Zn     0.13965    0.842  0.80179    Zn
C       0.1398    0.414   0.9573     C
C       0.1398   0.7258   0.5427     C
Zn     0.14168  0.36675  0.76123    Zn
Zn     0.14168  0.77493  0.73877    Zn
F       0.1446   0.1786   0.7825     F
F       0.1446    0.966   0.7175     F
O       0.1456   0.3217   0.8547     O
O       0.1456   0.8239   0.6453     O
C       0.1457   0.4035   0.9148     C
C       0.1457   0.7422   0.5852     C
H       0.1527   0.4418   0.9658     H
H       0.1527   0.7109   0.5342     H
C       0.1533   0.4947   0.1525     C
C       0.1533   0.6586   0.3475     C
H       0.1547   0.4502   0.1813     H
H       0.1547   0.7045   0.3187     H
C      0.15491  0.04795   0.2329     C
C      0.15491  0.10696   0.2671     C
O       0.1571   0.2478    0.744     O
O       0.1571   0.9093    0.756     O
Zn       0.158  0.29765  0.80179    Zn
Zn       0.158  0.86035  0.69821    Zn
H       0.1618   0.4434   0.0405     H
H       0.1618   0.7184   0.4595     H
C       0.1646   0.4757   0.1201     C
C       0.1646   0.6889   0.3799     C
Zn      0.1647   0.3723   0.7067    Zn
Zn      0.1647   0.7924   0.7933    Zn
O      0.16765   0.3353     0.75     O
O      0.16765  0.83235     0.75     O
F       0.1681   0.5442   0.2037     F
F       0.1681   0.6239   0.2963     F
F       0.1693   0.4326   0.8866     F
F       0.1693   0.7367   0.6134     F
C       0.1713   0.4743   0.1653     C
C       0.1713    0.697   0.3347     C
O       0.1761   0.3217   0.6453     O
O       0.1761   0.8544   0.8547     O
C      0.17651  0.08825     0.25     C
F       0.1786    0.034   0.2175     F
F       0.1786   0.1446   0.2825     F
O       0.1796   0.3802   0.8456     O
O       0.1796   0.7994   0.6544     O
O      0.17998   0.4232   0.7456     O
O      0.17998  0.75678   0.7544     O
H       0.1835   0.5133   0.0664     H
H       0.1835   0.6702   0.4336     H
C       0.1836   0.5299   0.1742     C
C       0.1836   0.6537   0.3258     C
C       0.1882   0.5123   0.0965     C
C       0.1882   0.6759   0.4035     C
Zn      0.1916   0.3021   0.7214    Zn
Zn      0.1916   0.8895   0.7786    Zn
F       0.1986   0.4901   0.8014     F
F       0.1986   0.7085   0.6986     F
O       0.2006   0.3802   0.6544     O
O       0.2006   0.8204   0.8456     O
C       0.2027    0.509   0.1865     C
C       0.2027   0.6937   0.3135     C
C       0.2062   0.4919   0.1092     C
C       0.2062   0.7143   0.3908     C
Zn      0.2076   0.3723   0.7933    Zn
Zn      0.2076   0.8353   0.7067    Zn
F       0.2077   0.5044   0.2287     F
F       0.2077   0.7033   0.2713     F
F       0.2085   0.2928   0.5821     F
F       0.2085   0.9157   0.9179     F
O       0.2094   0.3029   0.8196     O
O       0.2094   0.9065   0.6804     O
O       0.2122   0.3198   0.6598     O
O       0.2122   0.8924   0.8402     O
O       0.2129   0.4261   0.7909     O
O       0.2129   0.7868   0.7091     O
O       0.2132   0.4261   0.7091     O
O       0.2132   0.7871   0.7909     O
H       0.2137   0.4792   0.0875     H
H       0.2137   0.7345   0.4125     H
C       0.2151   0.3547   0.6423     C
C       0.2151   0.8604   0.8577     C
C        0.219   0.5472    0.118     C
C        0.219   0.6718    0.382     C
C       0.2218   0.4436     0.75     C
C       0.2218   0.7782     0.75     C
C        0.223   0.1115     0.25     C
Zn     0.22507  0.36675  0.73877    Zn
Zn     0.22507  0.85832  0.76123    Zn
C       0.2252    0.546   0.1633     C
C       0.2252   0.6792   0.3367     C
O       0.2265   0.2982   0.7793     O
O       0.2265   0.9283   0.7207     O
C       0.2299   0.3312    0.568     C
C       0.2299   0.8987    0.932     C
C       0.2315  0.51176   0.7766     C
C       0.2315  0.71974   0.7234     C
C       0.2356   0.3621   0.5978     C
C       0.2356   0.8735   0.9022     C
C       0.2365    0.527   0.1308     C
C       0.2365   0.7095   0.3692     C
F        0.237   0.5776   0.0893     F
F        0.237   0.6594   0.4107     F
O       0.2415    0.114   0.2105     O
O       0.2415   0.1275   0.2895     O
O        0.242   0.6057   0.1886     O
O        0.242   0.6363   0.3114     O
H       0.2425   0.3211   0.5055     H
H       0.2425   0.9214   0.9945     H
O       0.2429   0.3714   0.6757     O
O       0.2429   0.8715   0.8243     O
O      0.24322   0.4232   0.7544     O
O      0.24322  0.82002   0.7456     O
H        0.244   0.5697    0.794     H
H        0.244   0.6743    0.706     H
C      0.24508  0.75491     0.75     C
C      0.24509  0.49017     0.75     C
C       0.2463   0.3417   0.5255     C
C       0.2463   0.9046   0.9745     C
O       0.2478   0.0907    0.256     O
O       0.2478   0.1571    0.244     O
C       0.2491   0.3298   0.8076     C
C       0.2491   0.9193   0.6924     C
O       0.2522   0.5951   0.2269     O
O       0.2522   0.6571   0.2731     O
O       0.2529   0.3675    0.815     O
O       0.2529   0.8854    0.685     O
C       0.2531  0.55528   0.7765     C
C       0.2531  0.69782   0.7235     C
C       0.2578   0.4035   0.5852     C
C       0.2578   0.8543   0.9148     C
C       0.2586   0.5816   0.1889     C
C       0.2586    0.677   0.3111     C
F        0.259   0.3346   0.8986     F
F        0.259   0.9244   0.6014     F
O       0.2616   0.3567   0.7731     O
O       0.2616   0.9049   0.7269     O
H        0.262    0.631     0.75     H
F       0.2633   0.4326   0.6134     F
F       0.2633   0.8307   0.8866     F
F       0.2652     0.54   0.3814     F
F       0.2652   0.7252   0.1186     F
H       0.2655   0.4792   0.4125     H
H       0.2655   0.7863   0.0875     H
C       0.2686   0.3832   0.5128     C
C       0.2686   0.8854   0.9872     C
C       0.2742    0.414   0.5427     C
C       0.2742   0.8602   0.9573     C
F       0.2748     0.54   0.1186     F
F       0.2748   0.7348   0.3814     F
C      0.28026  0.51176   0.7234     C
C      0.28026   0.7685   0.7766     C
C       0.2805   0.3887   0.4647     C
C       0.2805   0.8918   0.0353     C
Zn     0.28099  0.62298  0.28188    Zn
Zn     0.28099  0.65801  0.21812    Zn
H       0.2816   0.4434   0.4595     H
H       0.2816   0.8382   0.0405     H
C        0.284   0.3276   0.8299     C
C        0.284   0.9564   0.6701     C
H       0.2845    0.337   0.4558     H
H       0.2845   0.9475   0.0442     H
C       0.2848   0.3274    0.876     C
C       0.2848   0.9574    0.624     C
O       0.2854   0.5758   0.3044     O
O       0.2854   0.7096   0.1956     O
C       0.2857   0.4919   0.3908     C
C       0.2857   0.7938   0.1092     C
C       0.2874   0.4251   0.4444     C
C       0.2874   0.8623   0.0556     C
O        0.288   0.6149   0.1689     O
O        0.288   0.6731   0.3311     O
C      0.28843  0.71157     0.75     C
C      0.28844  0.57687     0.75     C
C       0.2891   0.3613   0.4422     C
H       0.2891   0.4418   0.5342     H
H       0.2891   0.8473   0.9658     H
C       0.2891   0.9278   0.0578     C
O       0.2904   0.5758   0.1956     O
O       0.2904   0.7146   0.3044     O
C       0.2905    0.527   0.3692     C
C       0.2905   0.7635   0.1308     C
C       0.2908   0.6454     0.75     C
F       0.2915   0.4901   0.6986     F
F       0.2915   0.8014   0.8014     F
F       0.2928   0.0843   0.4179     F
F       0.2928   0.2085   0.0821     F
H       0.2955   0.4502   0.3187     H
H       0.2955   0.8453   0.1813     H
F       0.2967   0.5044   0.2713     F
F       0.2967   0.7923   0.2287     F
Zn     0.29765  0.13965  0.19821    Zn
Zn     0.29765    0.158  0.30179    Zn
O       0.2982   0.0717   0.2207     O
O       0.2982   0.2265   0.2793     O
Zn      0.3021   0.1105   0.2786    Zn
Zn      0.3021   0.1916   0.2214    Zn
C      0.30218  0.55528   0.7235     C
C      0.30218   0.7469   0.7765     C
O       0.3029   0.0935   0.1804     O
O       0.3029   0.2094   0.3196     O
C        0.303   0.4743   0.3347     C
C        0.303   0.8287   0.1653     C
C       0.3031   0.4342   0.4014     C
C       0.3031   0.8689   0.0986     C
C       0.3048   0.3704   0.3992     C
C       0.3048   0.9344   0.1008     C
C       0.3063    0.509   0.3135     C
C       0.3063   0.7973   0.1865     C
H       0.3074   0.3581   0.3119     H
H       0.3074   0.9493   0.1881     H
C       0.3111   0.4757   0.3799     C
C       0.3111   0.8354   0.1201     C
C      0.31115   0.6223     0.75     C
C      0.31115  0.68885     0.75     C
C       0.3114     0.32   0.8059     C
C       0.3114   0.9914   0.6941     C
F       0.3115   0.3201   0.7624     F
F       0.3115   0.9914   0.7376     F
C       0.3118   0.4069   0.3789     C
C       0.3118   0.9049   0.1211     C
C       0.3122   0.3405    0.374     C
C       0.3122   0.9717    0.126     C
C       0.3124   0.3397   0.3279     C
C       0.3124   0.9727   0.1721     C
C       0.3131   0.3197    0.898     C
C       0.3131   0.9934    0.602     C
H       0.3136   0.3196   0.9289     H
H       0.3136    0.994   0.5711     H
H       0.3196    0.006   0.0711     H
H       0.3196   0.3136   0.4289     H
C       0.3197   0.0066    0.102     C
C       0.3197   0.3131    0.398     C
O       0.3198   0.1076   0.3402     O
O       0.3198   0.2122   0.1598     O
C         0.32   0.0086   0.1941     C
C         0.32   0.3114   0.3059     C
F       0.3201   0.0086   0.2376     F
F       0.3201   0.3115   0.2624     F
C       0.3208    0.546   0.3367     C
C       0.3208   0.7748   0.1633     C
H       0.3211   0.0786   0.4945     H
H       0.3211   0.2425   0.0055     H
O       0.3217   0.1456   0.3547     O
O       0.3217   0.1761   0.1453     O
H       0.3223    0.413   0.3502     H
H       0.3223   0.9093   0.1498     H
C        0.323   0.5816   0.3111     C
C        0.323   0.7414   0.1889     C
C       0.3241   0.5123   0.4035     C
C       0.3241   0.8118   0.0965     C
H       0.3257   0.5697    0.706     H
H       0.3257    0.756    0.794     H
O       0.3269   0.6149   0.3311     O
O       0.3269    0.712   0.1689     O
C       0.3274   0.0426    0.124     C
C       0.3274   0.2848    0.376     C
C       0.3276   0.0436   0.1701     C
C       0.3276    0.284   0.3299     C
C       0.3282   0.5472    0.382     C
C       0.3282    0.781    0.118     C
C       0.3298   0.0807   0.1924     C
C       0.3298   0.2491   0.3076     C
H       0.3298   0.5133   0.4336     H
H       0.3298   0.8165   0.0664     H
C       0.3312   0.1013    0.432     C
C       0.3312   0.2299    0.068     C
Zn     0.33333  0.66667   0.1936    Zn
O      0.33333  0.66667     0.25     O
Zn     0.33333  0.66667   0.3064    Zn
F       0.3346   0.0756   0.1014     F
F       0.3346    0.259   0.3986     F
O       0.3353  0.16765     0.25     O
H        0.337   0.0525   0.5442     H
H        0.337   0.2845   0.9558     H
C       0.3397   0.0273   0.6721     C
C       0.3397   0.3124   0.8279     C
C       0.3405   0.0283    0.626     C
C       0.3405   0.3122    0.874     C
F       0.3406   0.5776   0.4107     F
F       0.3406    0.763   0.0893     F
C       0.3414   0.4947   0.3475     C
C       0.3414   0.8467   0.1525     C
C       0.3417   0.0954   0.4745     C
C       0.3417   0.2463   0.0255     C
Zn     0.34199  0.62298  0.21812    Zn
Zn     0.34199  0.71901  0.28188    Zn
O       0.3429   0.5951   0.2731     O
O       0.3429   0.7478   0.2269     O
C       0.3463   0.5299   0.3258     C
C       0.3463   0.8164   0.1742     C
C       0.3546   0.6454     0.75     C
C       0.3546   0.7092     0.75     C
C       0.3547   0.1396   0.3577     C
C       0.3547   0.2151   0.1423     C
O       0.3567   0.0951   0.2269     O
O       0.3567   0.2616   0.2731     O
H       0.3581   0.0507   0.6881     H
H       0.3581   0.3074   0.8119     H
H       0.3584   0.4839   0.3402     H
H       0.3584   0.8745   0.1598     H
C       0.3613   0.0722   0.5578     C
C       0.3613   0.2891   0.9422     C
C       0.3621   0.1265   0.4022     C
C       0.3621   0.2356   0.0978     C
O       0.3637   0.6057   0.3114     O
O       0.3637    0.758   0.1886     O
Zn     0.36675  0.14168  0.26123    Zn
Zn     0.36675  0.22507  0.23877    Zn
O       0.3675   0.1146    0.185     O
O       0.3675   0.2529    0.315     O
H        0.369    0.631     0.75     H
H        0.369    0.738     0.75     H
C       0.3704   0.0656   0.6008     C
C       0.3704   0.3048   0.8992     C
O       0.3714   0.1285   0.3243     O
O       0.3714   0.2429   0.1757     O
Zn      0.3723   0.1647   0.2067    Zn
Zn      0.3723   0.2076   0.2933    Zn
F       0.3761   0.5442   0.2963     F
F       0.3761   0.8319   0.2037     F
Zn     0.37702  0.65801  0.28188    Zn
Zn     0.37702  0.71901  0.21812    Zn
C       0.3777  0.68885     0.75     C
O       0.3802   0.1796   0.3456     O
O       0.3802   0.2006   0.1544     O
C       0.3832   0.1146   0.4872     C
C       0.3832   0.2686   0.0128     C
O       0.3851   0.6731   0.1689     O
O       0.3851    0.712   0.3311     O
C       0.3887   0.1082   0.5353     C
C       0.3887   0.2805   0.9647     C
O       0.3943   0.6363   0.1886     O
O       0.3943    0.758   0.3114     O
C       0.4035   0.1457   0.4148     C
C       0.4035   0.2578   0.0852     C
O       0.4049   0.6571   0.2269     O
O       0.4049   0.7478   0.2731     O
C       0.4069   0.0951   0.6211     C
C       0.4069   0.3118   0.8789     C
H        0.413   0.0907   0.6498     H
H        0.413   0.3223   0.8502     H
C        0.414   0.1398   0.4573     C
C        0.414   0.2742   0.0427     C
C       0.4184    0.677   0.1889     C
C       0.4184   0.7414   0.3111     C
F       0.4224   0.6594   0.0893     F
F       0.4224    0.763   0.4107     F
C      0.42313  0.71157     0.75     C
O       0.4232  0.17998   0.2456     O
O       0.4232  0.24322   0.2544     O
O       0.4242   0.7096   0.3044     O
O       0.4242   0.7146   0.1956     O
C       0.4251   0.1377   0.5556     C
C       0.4251   0.2874   0.9444     C
O       0.4261   0.2129   0.2909     O
O       0.4261   0.2132   0.2091     O
H       0.4303   0.6743    0.794     H
H       0.4303    0.756    0.706     H
F       0.4326   0.1693   0.3866     F
F       0.4326   0.2633   0.1134     F
C       0.4342   0.1311   0.5986     C
C       0.4342   0.3031   0.9014     C
H       0.4418   0.1527   0.4658     H
H       0.4418   0.2891   0.0342     H
H       0.4434   0.1618   0.5405     H
H       0.4434   0.2816   0.9595     H
C       0.4436   0.2218     0.25     C
C      0.44472  0.69782   0.7765     C
C      0.44472   0.7469   0.7235     C
H       0.4502   0.1547   0.6813     H
H       0.4502   0.2955   0.8187     H
C       0.4528   0.6718    0.118     C
C       0.4528    0.781    0.382     C
C        0.454   0.6792   0.1633     C
C        0.454   0.7748   0.3367     C
F       0.4558   0.6239   0.2037     F
F       0.4558   0.8319   0.2963     F
F         0.46   0.7252   0.3814     F
F         0.46   0.7348   0.1186     F
C       0.4701   0.6537   0.1742     C
C       0.4701   0.8164   0.3258     C
C        0.473   0.7095   0.1308     C
C        0.473   0.7635   0.3692     C
C       0.4743   0.1713   0.6653     C
C       0.4743    0.303   0.8347     C
C       0.4757   0.1646   0.6201     C
C       0.4757   0.3111   0.8799     C
H       0.4792   0.2137   0.5875     H
H       0.4792   0.2655   0.9125     H
H       0.4839   0.1255   0.6598     H
H       0.4839   0.3584   0.8402     H
H       0.4867   0.6702   0.0664     H
H       0.4867   0.8165   0.4336     H
C       0.4877   0.6759   0.0965     C
C       0.4877   0.8118   0.4035     C
C      0.48824  0.71974   0.7766     C
C      0.48824   0.7685   0.7234     C
F       0.4901   0.1986   0.3014     F
F       0.4901   0.2915   0.1986     F
C      0.49017  0.24508     0.25     C
C        0.491   0.6937   0.1865     C
C        0.491   0.7973   0.3135     C
C       0.4919   0.2062   0.6092     C
C       0.4919   0.2857   0.8908     C
C       0.4947   0.1533   0.6525     C
C       0.4947   0.3414   0.8475     C
F       0.4956   0.7033   0.2287     F
F       0.4956   0.7923   0.2713     F
F       0.5044   0.2077   0.7287     F
F       0.5044   0.2967   0.7713     F
C       0.5053   0.6586   0.1525     C
C       0.5053   0.8467   0.3475     C
C       0.5081   0.7143   0.1092     C
C       0.5081   0.7938   0.3908     C
C        0.509   0.2027   0.6865     C
C        0.509   0.3063   0.8135     C
C      0.50983  0.75492     0.75     C
F       0.5099   0.7085   0.8014     F
F       0.5099   0.8014   0.6986     F
C      0.51176   0.2315   0.2766     C
C      0.51176  0.28026   0.2234     C
C       0.5123   0.1882   0.5965     C
C       0.5123   0.3241   0.9035     C
H       0.5133   0.1835   0.5664     H
H       0.5133   0.3298   0.9336     H
H       0.5161   0.6416   0.1598     H
H       0.5161   0.8745   0.3402     H
H       0.5208   0.7345   0.0875     H
H       0.5208   0.7863   0.4125     H
C       0.5243   0.6889   0.1201     C
C       0.5243   0.8354   0.3799     C
C       0.5257    0.697   0.1653     C
C       0.5257   0.8287   0.3347     C
C        0.527   0.2365   0.6308     C
C        0.527   0.2905   0.8692     C
C       0.5299   0.1836   0.6742     C
C       0.5299   0.3463   0.8258     C
F         0.54   0.2652   0.8814     F
F         0.54   0.2748   0.6186     F
F       0.5442   0.1681   0.7037     F
F       0.5442   0.3761   0.7963     F
C        0.546   0.2252   0.6633     C
C        0.546   0.3208   0.8367     C
C       0.5472    0.219    0.618     C
C       0.5472   0.3282    0.882     C
H       0.5498   0.7045   0.1813     H
H       0.5498   0.8453   0.3187     H
C      0.55528   0.2531   0.2765     C
C      0.55528  0.30218   0.2235     C
C       0.5564   0.7782     0.75     C
H       0.5566   0.7184   0.0405     H
H       0.5566   0.8382   0.4595     H
H       0.5582   0.7109   0.9658     H
H       0.5582   0.8473   0.5342     H
C       0.5658   0.6969   0.0986     C
C       0.5658   0.8689   0.4014     C
F       0.5674   0.7367   0.8866     F
F       0.5674   0.8307   0.6134     F
H       0.5697    0.244    0.294     H
H       0.5697   0.3257    0.206     H
O       0.5739   0.7868   0.7909     O
O       0.5739   0.7871   0.7091     O
C       0.5749   0.7126   0.0556     C
C       0.5749   0.8623   0.4444     C
O       0.5758   0.2854   0.8044     O
O       0.5758   0.2904   0.6956     O
O       0.5768  0.75678   0.7456     O
O       0.5768  0.82002   0.7544     O
C      0.57687  0.28843     0.25     C
F       0.5776    0.237   0.5893     F
F       0.5776   0.3406   0.9107     F
C       0.5816   0.2586   0.6889     C
C       0.5816    0.323   0.8111     C
C        0.586   0.7258   0.9573     C
C        0.586   0.8602   0.5427     C
H        0.587   0.6777   0.1498     H
H        0.587   0.9093   0.3502     H
C       0.5931   0.6882   0.1211     C
C       0.5931   0.9049   0.3789     C
O       0.5951   0.2522   0.7269     O
O       0.5951   0.3429   0.7731     O
C       0.5965   0.7422   0.9148     C
C       0.5965   0.8543   0.5852     C
O       0.6057    0.242   0.6886     O
O       0.6057   0.3637   0.8114     O
C       0.6113   0.7195   0.0353     C
C       0.6113   0.8918   0.4647     C
O       0.6149    0.288   0.6689     O
O       0.6149   0.3269   0.8311     O
C       0.6168   0.7314   0.9872     C
C       0.6168   0.8854   0.5128     C
O       0.6198   0.7994   0.8456     O
O       0.6198   0.8204   0.6544     O
C       0.6223  0.31115     0.25     C
Zn     0.62298  0.28099  0.78188    Zn
Zn     0.62298  0.34199  0.71812    Zn
F       0.6239   0.1681   0.7963     F
F       0.6239   0.4558   0.7037     F
Zn      0.6277   0.7924   0.7067    Zn
Zn      0.6277   0.8353   0.7933    Zn
O       0.6286   0.7571   0.8243     O
O       0.6286   0.8715   0.6757     O
C       0.6296   0.6952   0.1008     C
C       0.6296   0.9344   0.3992     C
H        0.631    0.262     0.25     H
H        0.631    0.369     0.25     H
O       0.6325   0.7471    0.685     O
O       0.6325   0.8854    0.815     O
Zn     0.63325  0.77493  0.76123    Zn
Zn     0.63325  0.85832  0.73877    Zn
O       0.6363    0.242   0.8114     O
O       0.6363   0.3943   0.6886     O
C       0.6379   0.7644   0.9022     C
C       0.6379   0.8735   0.5978     C
C       0.6387   0.7109   0.0578     C
C       0.6387   0.9278   0.4422     C
H       0.6416   0.1255   0.8402     H
H       0.6416   0.5161   0.6598     H
H       0.6419   0.6926   0.1881     H
H       0.6419   0.9493   0.3119     H
O       0.6433   0.7384   0.7269     O
O       0.6433   0.9049   0.7731     O
C       0.6453   0.7849   0.8577     C
C       0.6453   0.8604   0.6423     C
C       0.6454   0.2908     0.25     C
C       0.6454   0.3546     0.25     C
C       0.6537   0.1836   0.8258     C
C       0.6537   0.4701   0.6742     C
O       0.6571   0.2522   0.7731     O
O       0.6571   0.4049   0.7269     O
Zn     0.65801  0.28099  0.71812    Zn
Zn     0.65801  0.37702  0.78188    Zn
C       0.6583   0.7537   0.9745     C
C       0.6583   0.9046   0.5255     C
C       0.6586   0.1533   0.8475     C
C       0.6586   0.5053   0.6525     C
F       0.6594    0.237   0.9107     F
F       0.6594   0.4224   0.5893     F
C       0.6595   0.6878    0.126     C
C       0.6595   0.9717    0.374     C
C       0.6603   0.6876   0.1721     C
C       0.6603   0.9727   0.3279     C
H        0.663   0.7155   0.0442     H
H        0.663   0.9475   0.4558     H
O       0.6647  0.83235     0.75     O
F       0.6654    0.741   0.6014     F
F       0.6654   0.9244   0.8986     F
Zn     0.66667  0.33333   0.6936    Zn
O      0.66667  0.33333     0.75     O
Zn     0.66667  0.33333   0.8064    Zn
C       0.6688   0.7701    0.932     C
C       0.6688   0.8987    0.568     C
H       0.6702   0.1835   0.9336     H
H       0.6702   0.4867   0.5664     H
C       0.6702   0.7509   0.6924     C
C       0.6702   0.9193   0.8076     C
C       0.6718    0.219    0.882     C
C       0.6718   0.4528    0.618     C
C       0.6724    0.716   0.6701     C
C       0.6724   0.9564   0.8299     C
C       0.6726   0.7152    0.624     C
C       0.6726   0.9574    0.876     C
O       0.6731    0.288   0.8311     O
O       0.6731   0.3851   0.6689     O
H       0.6743    0.244    0.206     H
H       0.6743   0.4303    0.294     H
C       0.6759   0.1882   0.9035     C
C       0.6759   0.4877   0.5965     C
C        0.677   0.2586   0.8111     C
C        0.677   0.4184   0.6889     C
H       0.6777   0.0907   0.8502     H
H       0.6777    0.587   0.6498     H
O       0.6783   0.8239   0.8547     O
O       0.6783   0.8544   0.6453     O
H       0.6789   0.7575   0.9945     H
H       0.6789   0.9214   0.5055     H
C       0.6792   0.2252   0.8367     C
C       0.6792    0.454   0.6633     C
F       0.6799   0.6885   0.7376     F
F       0.6799   0.9914   0.7624     F
C         0.68   0.6886   0.6941     C
C         0.68   0.9914   0.8059     C
O       0.6802   0.7878   0.8402     O
O       0.6802   0.8924   0.6598     O
C       0.6803   0.6869    0.602     C
C       0.6803   0.9934    0.898     C
H       0.6804   0.6864   0.5711     H
H       0.6804    0.994   0.9289     H
H       0.6864    0.006   0.4289     H
H       0.6864   0.6804   0.0711     H
C       0.6869   0.0066    0.398     C
C       0.6869   0.6803    0.102     C
C       0.6876   0.0273   0.8279     C
C       0.6876   0.6603   0.6721     C
C       0.6878   0.0283    0.874     C
C       0.6878   0.6595    0.626     C
C       0.6882   0.0951   0.8789     C
C       0.6882   0.5931   0.6211     C
F       0.6885   0.0086   0.2624     F
F       0.6885   0.6799   0.2376     F
C       0.6886   0.0086   0.3059     C
C       0.6886     0.68   0.1941     C
C      0.68885  0.31115     0.25     C
C      0.68885   0.3777     0.25     C
C       0.6889   0.1646   0.8799     C
C       0.6889   0.5243   0.6201     C
H       0.6926   0.0507   0.8119     H
H       0.6926   0.6419   0.6881     H
C       0.6937   0.2027   0.8135     C
C       0.6937    0.491   0.6865     C
C       0.6952   0.0656   0.8992     C
C       0.6952   0.6296   0.6008     C
C       0.6969   0.1311   0.9014     C
C       0.6969   0.5658   0.5986     C
C        0.697   0.1713   0.8347     C
C        0.697   0.5257   0.6653     C
O       0.6971   0.7906   0.6804     O
O       0.6971   0.9065   0.8196     O
C      0.69782   0.2531   0.2235     C
C      0.69782  0.44472   0.2765     C
Zn      0.6979   0.8084   0.7786    Zn
Zn      0.6979   0.8895   0.7214    Zn
O       0.7018   0.7735   0.7207     O
O       0.7018   0.9283   0.7793     O
Zn     0.70235    0.842  0.69821    Zn
Zn     0.70235  0.86035  0.80179    Zn
F       0.7033   0.2077   0.7713     F
F       0.7033   0.4956   0.7287     F
H       0.7045   0.1547   0.8187     H
H       0.7045   0.5498   0.6813     H
F       0.7072   0.7915   0.9179     F
F       0.7072   0.9157   0.5821     F
F       0.7085   0.1986   0.1986     F
F       0.7085   0.5099   0.3014     F
C       0.7092   0.3546     0.25     C
C       0.7095   0.2365   0.8692     C
C       0.7095    0.473   0.6308     C
O       0.7096   0.2854   0.6956     O
O       0.7096   0.4242   0.8044     O
C       0.7109   0.0722   0.9422     C
H       0.7109   0.1527   0.0342     H
H       0.7109   0.5582   0.4658     H
C       0.7109   0.6387   0.5578     C
C      0.71157  0.28843     0.25     C
C      0.71157  0.42313     0.25     C
O        0.712   0.3269   0.6689     O
O        0.712   0.3851   0.8311     O
C       0.7126   0.1377   0.9444     C
C       0.7126   0.5749   0.5556     C
C       0.7143   0.2062   0.8908     C
C       0.7143   0.5081   0.6092     C
O       0.7146   0.2904   0.8044     O
O       0.7146   0.4242   0.6956     O
C       0.7152   0.0426    0.376     C
C       0.7152   0.6726    0.124     C
H       0.7155   0.0525   0.9558     H
H       0.7155    0.663   0.5442     H
C        0.716   0.0436   0.3299     C
C        0.716   0.6724   0.1701     C
H       0.7184   0.1618   0.9595     H
H       0.7184   0.5566   0.5405     H
Zn     0.71901  0.34199  0.78188    Zn
Zn     0.71901  0.37702  0.71812    Zn
C       0.7195   0.1082   0.9647     C
C       0.7195   0.6113   0.5353     C
C      0.71974   0.2315   0.2234     C
C      0.71974  0.48824   0.2766     C
F       0.7252   0.2652   0.6186     F
F       0.7252     0.46   0.8814     F
C       0.7258   0.1398   0.0427     C
C       0.7258    0.586   0.4573     C
C       0.7314   0.1146   0.0128     C
C       0.7314   0.6168   0.4872     C
H       0.7345   0.2137   0.9125     H
H       0.7345   0.5208   0.5875     H
F       0.7348   0.2748   0.8814     F
F       0.7348     0.46   0.6186     F
F       0.7367   0.1693   0.1134     F
F       0.7367   0.5674   0.3866     F
H        0.738    0.369     0.25     H
O       0.7384   0.0951   0.2731     O
O       0.7384   0.6433   0.2269     O
F        0.741   0.0756   0.3986     F
F        0.741   0.6654   0.1014     F
C       0.7414    0.323   0.6889     C
C       0.7414   0.4184   0.8111     C
C       0.7422   0.1457   0.0852     C
C       0.7422   0.5965   0.4148     C
C       0.7469  0.30218   0.2765     C
C       0.7469  0.44472   0.2235     C
O       0.7471   0.1146    0.315     O
O       0.7471   0.6325    0.185     O
O       0.7478   0.3429   0.7269     O
O       0.7478   0.4049   0.7731     O
C       0.7509   0.0807   0.3076     C
C       0.7509   0.6702   0.1924     C
O       0.7522   0.8429    0.756     O
O       0.7522   0.9093    0.744     O
C       0.7537   0.0954   0.0255     C
C       0.7537   0.6583   0.4745     C
C      0.75492  0.24509     0.25     C
C      0.75492  0.50983     0.25     C
H        0.756   0.3257    0.294     H
H        0.756   0.4303    0.206     H
O      0.75678  0.17998   0.2544     O
O      0.75678   0.5768   0.2456     O
O       0.7571   0.1285   0.1757     O
O       0.7571   0.6286   0.3243     O
H       0.7575   0.0786   0.0055     H
H       0.7575   0.6789   0.4945     H
O        0.758   0.3637   0.6886     O
O        0.758   0.3943   0.8114     O
O       0.7585   0.8725   0.7105     O
O       0.7585    0.886   0.7895     O
F        0.763   0.3406   0.5893     F
F        0.763   0.4224   0.9107     F
C       0.7635   0.2905   0.6308     C
C       0.7635    0.473   0.8692     C
C       0.7644   0.1265   0.0978     C
C       0.7644   0.6379   0.4022     C
C       0.7685  0.28026   0.2766     C
C       0.7685  0.48824   0.2234     C
C       0.7701   0.1013    0.068     C
C       0.7701   0.6688    0.432     C
O       0.7735   0.0717   0.2793     O
O       0.7735   0.7018   0.2207     O
C       0.7748   0.3208   0.6633     C
C       0.7748    0.454   0.8367     C
Zn     0.77493  0.14168  0.23877    Zn
Zn     0.77493  0.63325  0.26123    Zn
C        0.777   0.8885     0.75     C
C       0.7782   0.2218     0.25     C
C       0.7782   0.5564     0.25     C
C        0.781   0.3282    0.618     C
C        0.781   0.4528    0.882     C
C       0.7849   0.1396   0.1423     C
C       0.7849   0.6453   0.3577     C
H       0.7863   0.2655   0.5875     H
H       0.7863   0.5208   0.9125     H
O       0.7868   0.2129   0.2091     O
O       0.7868   0.5739   0.2909     O
O       0.7871   0.2132   0.2909     O
O       0.7871   0.5739   0.2091     O
O       0.7878   0.1076   0.1598     O
O       0.7878   0.6802   0.3402     O
O       0.7906   0.0935   0.3196     O
O       0.7906   0.6971   0.1804     O
F       0.7915   0.0843   0.0821     F
F       0.7915   0.7072   0.4179     F
F       0.7923   0.2967   0.7287     F
F       0.7923   0.4956   0.7713     F
Zn      0.7924   0.1647   0.2933    Zn
Zn      0.7924   0.6277   0.2067    Zn
C       0.7938   0.2857   0.6092     C
C       0.7938   0.5081   0.8908     C
C       0.7973   0.3063   0.6865     C
C       0.7973    0.491   0.8135     C
O       0.7994   0.1796   0.1544     O
O       0.7994   0.6198   0.3456     O
F       0.8014   0.2915   0.3014     F
F       0.8014   0.5099   0.1986     F
Zn      0.8084   0.1105   0.2214    Zn
Zn      0.8084   0.6979   0.2786    Zn
C       0.8118   0.3241   0.5965     C
C       0.8118   0.4877   0.9035     C
C       0.8164   0.3463   0.6742     C
C       0.8164   0.4701   0.8258     C
H       0.8165   0.3298   0.5664     H
H       0.8165   0.4867   0.9336     H
O      0.82002  0.24322   0.2456     O
O      0.82002   0.5768   0.2544     O
O       0.8204   0.2006   0.3456     O
O       0.8204   0.6198   0.1544     O
F       0.8214   0.8554   0.7175     F
F       0.8214    0.966   0.7825     F
C      0.82349  0.91175     0.75     C
O       0.8239   0.1456   0.1453     O
O       0.8239   0.6783   0.3547     O
C       0.8287    0.303   0.6653     C
C       0.8287   0.5257   0.8347     C
F       0.8307   0.2633   0.3866     F
F       0.8307   0.5674   0.1134     F
F       0.8319   0.3761   0.7037     F
F       0.8319   0.4558   0.7963     F
O      0.83235  0.16765     0.25     O
O      0.83235   0.6647     0.25     O
Zn      0.8353   0.2076   0.2067    Zn
Zn      0.8353   0.6277   0.2933    Zn
C       0.8354   0.3111   0.6201     C
C       0.8354   0.5243   0.8799     C
H       0.8382   0.2816   0.5405     H
H       0.8382   0.5566   0.9595     H
Zn       0.842  0.13965  0.30179    Zn
Zn       0.842  0.70235  0.19821    Zn
O       0.8429   0.0907    0.244     O
O       0.8429   0.7522    0.256     O
C      0.84509  0.89304   0.7329     C
C      0.84509  0.95205   0.7671     C
H       0.8453   0.2955   0.6813     H
H       0.8453   0.5498   0.8187     H
C       0.8467   0.3414   0.6525     C
C       0.8467   0.5053   0.8475     C
H       0.8473   0.2891   0.4658     H
H       0.8473   0.5582   0.0342     H
C       0.8543   0.2578   0.4148     C
C       0.8543   0.5965   0.0852     C
O       0.8544   0.1761   0.3547     O
O       0.8544   0.6783   0.1453     O
F       0.8554    0.034   0.2825     F
F       0.8554   0.8214   0.2175     F
Zn     0.85832  0.22507  0.26123    Zn
Zn     0.85832  0.63325  0.23877    Zn
C       0.8602   0.2742   0.4573     C
C       0.8602    0.586   0.0427     C
Zn     0.86035    0.158  0.19821    Zn
Zn     0.86035  0.70235  0.30179    Zn
C       0.8604   0.2151   0.3577     C
C       0.8604   0.6453   0.1423     C
C       0.8623   0.2874   0.5556     C
C       0.8623   0.5749   0.9444     C
C       0.8689   0.3031   0.5986     C
C       0.8689   0.5658   0.9014     C
O       0.8715   0.2429   0.3243     O
O       0.8715   0.6286   0.1757     O
O       0.8725    0.114   0.2895     O
O       0.8725   0.7585   0.2105     O
C       0.8735   0.2356   0.4022     C
C       0.8735   0.6379   0.0978     C
H       0.8745   0.3584   0.6598     H
H       0.8745   0.5161   0.8402     H
O       0.8854   0.2529    0.185     O
C       0.8854   0.2686   0.4872     C
C       0.8854   0.6168   0.0128     C
O       0.8854   0.6325    0.315     O
O        0.886   0.1275   0.2105     O
O        0.886   0.7585   0.2895     O
C       0.8885   0.1115     0.25     C
C       0.8885    0.777     0.25     C
C       0.8886  0.91481   0.7329     C
C       0.8886  0.97379   0.7671     C
Zn      0.8895   0.1916   0.2786    Zn
Zn      0.8895   0.6979   0.2214    Zn
C       0.8918   0.2805   0.5353     C
C       0.8918   0.6113   0.9647     C
O       0.8924   0.2122   0.3402     O
O       0.8924   0.6802   0.1598     O
C      0.89304  0.04795   0.2671     C
C      0.89304  0.84509   0.2329     C
C       0.8987   0.2299    0.432     C
C       0.8987   0.6688    0.068     C
H       0.9025   0.9031   0.2215     H
H       0.9025   0.9994   0.2785     H
H       0.9031   0.0006   0.7785     H
H       0.9031   0.9025   0.7215     H
C       0.9046   0.2463   0.4745     C
C       0.9046   0.6583   0.0255     C
O       0.9049   0.2616   0.2269     O
C       0.9049   0.3118   0.6211     C
C       0.9049   0.5931   0.8789     C
O       0.9049   0.6433   0.2731     O
O       0.9065   0.2094   0.1804     O
O       0.9065   0.6971   0.3196     O
O       0.9093   0.1571    0.256     O
H       0.9093   0.3223   0.6498     H
H       0.9093    0.587   0.8502     H
O       0.9093   0.7522    0.244     O
C       0.9102   0.9551     0.75     C
C      0.91175  0.08825     0.25     C
C      0.91175  0.82349     0.25     C
C      0.91481  0.02621   0.2671     C
C      0.91481   0.8886   0.2329     C
F       0.9157   0.2085   0.4179     F
F       0.9157   0.7072   0.0821     F
C       0.9193   0.2491   0.1924     C
C       0.9193   0.6702   0.3076     C
H       0.9214   0.2425   0.4945     H
H       0.9214   0.6789   0.0055     H
F       0.9244    0.259   0.1014     F
F       0.9244   0.6654   0.3986     F
C       0.9278   0.2891   0.5578     C
C       0.9278   0.6387   0.9422     C
O       0.9283   0.2265   0.2207     O
O       0.9283   0.7018   0.2793     O
H       0.9327  0.96635     0.25     H
C       0.9344   0.3048   0.6008     C
C       0.9344   0.6296   0.8992     C
H       0.9475   0.2845   0.5442     H
H       0.9475    0.663   0.9558     H
H       0.9493   0.3074   0.6881     H
H       0.9493   0.6419   0.8119     H
C      0.95205  0.10696   0.2329     C
C      0.95205  0.84509   0.2671     C
C       0.9528   0.9764     0.75     C
C       0.9551   0.0449     0.25     C
C       0.9551   0.9102     0.25     C
C       0.9564    0.284   0.1701     C
C       0.9564   0.6724   0.3299     C
C       0.9574   0.2848    0.124     C
C       0.9574   0.6726    0.376     C
C       0.9616   0.9808     0.25     C
F        0.966   0.1446   0.2175     F
F        0.966   0.8214   0.2825     F
H      0.96635  0.03365     0.75     H
H      0.96635   0.9327     0.75     H
C       0.9717   0.3122    0.626     C
C       0.9717   0.6595    0.874     C
C       0.9727   0.3124   0.6721     C
C       0.9727   0.6603   0.8279     C
C      0.97379  0.08519   0.2329     C
C      0.97379   0.8886   0.2671     C
C       0.9764   0.0236     0.25     C
C       0.9764   0.9528     0.25     C
C       0.9808   0.0192     0.75     C
C       0.9808   0.9616     0.75     C
C       0.9914   0.3114   0.1941     C
F       0.9914   0.3115   0.2376     F
F       0.9914   0.6799   0.2624     F
C       0.9914     0.68   0.3059     C
C       0.9934   0.3131    0.102     C
C       0.9934   0.6803    0.398     C
H        0.994   0.3136   0.0711     H
H        0.994   0.6804   0.4289     H
H       0.9994   0.0969   0.7215     H
H       0.9994   0.9025   0.7785     H
