data_I
_chemical_name_common  '/home/zhangsd/repos/MofS-CGCNN/ML/data/SSD/clean_cifs/SUSZIQ_clean'
_cell_length_a 14.79530
_cell_length_b 27.36340
_cell_length_c  8.34460
_cell_angle_alpha 90.00000
_cell_angle_beta  90.00000
_cell_angle_gamma 90.00000
_space_group_name_H-M_alt      'P 1'


loop_
_space_group_symop_operation_xyz
  'x, y, z' 

loop_
_atom_site_label
_atom_site_fract_x
_atom_site_fract_y
_atom_site_fract_z
_atom_site_type_symbol
O       0.0004   0.3477   0.2078     O
O       0.0004   0.6523   0.7078     O
O       0.0088  0.19697   0.2293     O
O       0.0088  0.80303   0.7293     O
O       0.0141  0.07165   0.2226     O
O       0.0141  0.92835   0.7226     O
O       0.0909  0.04875   0.9799     O
O       0.0909  0.95125   0.4799     O
Al      0.0931  0.05478   0.7777    Al
Al      0.0931  0.94522   0.2777    Al
Al      0.0933  0.22032   0.7878    Al
Al      0.0933  0.77968   0.2878    Al
P       0.0941  0.33002   0.6631     P
P       0.0941  0.66998   0.1631     P
P       0.0977  0.21676    0.167     P
P       0.0977  0.78324    0.667     P
Al      0.1001  0.32624   0.2838    Al
Al      0.1001  0.67376   0.7838    Al
O       0.1002   0.2193   0.9891     O
O       0.1002   0.7807   0.4891     O
P       0.1022  0.05229   0.1563     P
P       0.1022  0.94771   0.6563     P
O       0.1027  0.33299   0.4854     O
O       0.1027  0.66701   0.9854     O
O       0.1069  0.27865   0.7218     O
O       0.1069  0.72135   0.2218     O
O       0.1147  0.26638     0.24     O
O       0.1147  0.73362     0.74     O
O       0.1219  0.00091   0.2077     O
O       0.1219  0.99909   0.7077     O
O       0.1599   0.3651   0.7432     O
O       0.1599   0.6349   0.2432     O
O       0.1733   0.0972   0.7398     O
O       0.1733   0.9028   0.2398     O
O       0.1757  0.18464   0.2184     O
O       0.1757  0.81536   0.7184     O
O       0.1775  0.18709   0.7001     O
O       0.1775  0.81291   0.2001     O
O       0.1815  0.36265   0.2024     O
O       0.1815  0.63735   0.7024     O
O        0.183  0.08383   0.1929     O
O        0.183  0.91617   0.6929     O
O       0.2123   0.1282   0.4824     O
O       0.2123   0.8718   0.9824     O
P       0.2201  0.13889   0.6563     P
P       0.2201  0.86111   0.1563     P
Al      0.2292  0.13361   0.2838    Al
Al      0.2292  0.86639   0.7838    Al
Al      0.2708  0.36639   0.7838    Al
Al      0.2708  0.63361   0.2838    Al
P       0.2799  0.36111   0.1563     P
P       0.2799  0.63889   0.6563     P
O       0.2877   0.3718   0.9824     O
O       0.2877   0.6282   0.4824     O
O        0.317  0.41617   0.6929     O
O        0.317  0.58383   0.1929     O
O       0.3185  0.13735   0.7024     O
O       0.3185  0.86265   0.2024     O
O       0.3225  0.31291   0.2001     O
O       0.3225  0.68709   0.7001     O
O       0.3243  0.31536   0.7184     O
O       0.3243  0.68464   0.2184     O
O       0.3267   0.4028   0.2398     O
O       0.3267   0.5972   0.7398     O
O       0.3401   0.1349   0.2432     O
O       0.3401   0.8651   0.7432     O
O       0.3781  0.49909   0.7077     O
O       0.3781  0.50091   0.2077     O
O       0.3853  0.23362     0.74     O
O       0.3853  0.76638     0.24     O
O       0.3931  0.22135   0.2218     O
O       0.3931  0.77865   0.7218     O
O       0.3973  0.16701   0.9854     O
O       0.3973  0.83299   0.4854     O
P       0.3978  0.44771   0.6563     P
P       0.3978  0.55229   0.1563     P
O       0.3998   0.2807   0.4891     O
O       0.3998   0.7193   0.9891     O
Al      0.3999  0.17376   0.7838    Al
Al      0.3999  0.82624   0.2838    Al
P       0.4023  0.28324    0.667     P
P       0.4023  0.71676    0.167     P
P       0.4059  0.16998   0.1631     P
P       0.4059  0.83002   0.6631     P
Al      0.4067  0.27968   0.2878    Al
Al      0.4067  0.72032   0.7878    Al
Al      0.4069  0.44522   0.2777    Al
Al      0.4069  0.55478   0.7777    Al
O       0.4091  0.45125   0.4799     O
O       0.4091  0.54875   0.9799     O
O       0.4859  0.42835   0.7226     O
O       0.4859  0.57165   0.2226     O
O       0.4912  0.30303   0.7293     O
O       0.4912  0.69697   0.2293     O
O       0.4996   0.1523   0.7078     O
O       0.4996   0.8477   0.2078     O
O       0.5004   0.1523   0.2078     O
O       0.5004   0.8477   0.7078     O
O       0.5088  0.30303   0.2293     O
O       0.5088  0.69697   0.7293     O
O       0.5141  0.42835   0.2226     O
O       0.5141  0.57165   0.7226     O
O       0.5909  0.45125   0.9799     O
O       0.5909  0.54875   0.4799     O
Al      0.5931  0.44522   0.7777    Al
Al      0.5931  0.55478   0.2777    Al
Al      0.5933  0.27968   0.7878    Al
Al      0.5933  0.72032   0.2878    Al
P       0.5941  0.16998   0.6631     P
P       0.5941  0.83002   0.1631     P
P       0.5977  0.28324    0.167     P
P       0.5977  0.71676    0.667     P
Al      0.6001  0.17376   0.2838    Al
Al      0.6001  0.82624   0.7838    Al
O       0.6002   0.2807   0.9891     O
O       0.6002   0.7193   0.4891     O
P       0.6022  0.44771   0.1563     P
P       0.6022  0.55229   0.6563     P
O       0.6027  0.16701   0.4854     O
O       0.6027  0.83299   0.9854     O
O       0.6069  0.22135   0.7218     O
O       0.6069  0.77865   0.2218     O
O       0.6147  0.23362     0.24     O
O       0.6147  0.76638     0.74     O
O       0.6219  0.49909   0.2077     O
O       0.6219  0.50091   0.7077     O
O       0.6599   0.1349   0.7432     O
O       0.6599   0.8651   0.2432     O
O       0.6733   0.4028   0.7398     O
O       0.6733   0.5972   0.2398     O
O       0.6757  0.31536   0.2184     O
O       0.6757  0.68464   0.7184     O
O       0.6775  0.31291   0.7001     O
O       0.6775  0.68709   0.2001     O
O       0.6815  0.13735   0.2024     O
O       0.6815  0.86265   0.7024     O
O        0.683  0.41617   0.1929     O
O        0.683  0.58383   0.6929     O
O       0.7123   0.3718   0.4824     O
O       0.7123   0.6282   0.9824     O
P       0.7201  0.36111   0.6563     P
P       0.7201  0.63889   0.1563     P
Al      0.7292  0.36639   0.2838    Al
Al      0.7292  0.63361   0.7838    Al
Al      0.7708  0.13361   0.7838    Al
Al      0.7708  0.86639   0.2838    Al
P       0.7799  0.13889   0.1563     P
P       0.7799  0.86111   0.6563     P
O       0.7877   0.1282   0.9824     O
O       0.7877   0.8718   0.4824     O
O        0.817  0.08383   0.6929     O
O        0.817  0.91617   0.1929     O
O       0.8185  0.36265   0.7024     O
O       0.8185  0.63735   0.2024     O
O       0.8225  0.18709   0.2001     O
O       0.8225  0.81291   0.7001     O
O       0.8243  0.18464   0.7184     O
O       0.8243  0.81536   0.2184     O
O       0.8267   0.0972   0.2398     O
O       0.8267   0.9028   0.7398     O
O       0.8401   0.3651   0.2432     O
O       0.8401   0.6349   0.7432     O
O       0.8781  0.00091   0.7077     O
O       0.8781  0.99909   0.2077     O
O       0.8853  0.26638     0.74     O
O       0.8853  0.73362     0.24     O
O       0.8931  0.27865   0.2218     O
O       0.8931  0.72135   0.7218     O
O       0.8973  0.33299   0.9854     O
O       0.8973  0.66701   0.4854     O
P       0.8978  0.05229   0.6563     P
P       0.8978  0.94771   0.1563     P
O       0.8998   0.2193   0.4891     O
O       0.8998   0.7807   0.9891     O
Al      0.8999  0.32624   0.7838    Al
Al      0.8999  0.67376   0.2838    Al
P       0.9023  0.21676    0.667     P
P       0.9023  0.78324    0.167     P
P       0.9059  0.33002   0.1631     P
P       0.9059  0.66998   0.6631     P
Al      0.9067  0.22032   0.2878    Al
Al      0.9067  0.77968   0.7878    Al
Al      0.9069  0.05478   0.2777    Al
Al      0.9069  0.94522   0.7777    Al
O       0.9091  0.04875   0.4799     O
O       0.9091  0.95125   0.9799     O
O       0.9859  0.07165   0.7226     O
O       0.9859  0.92835   0.2226     O
O       0.9912  0.19697   0.7293     O
O       0.9912  0.80303   0.2293     O
O       0.9996   0.3477   0.7078     O
O       0.9996   0.6523   0.2078     O
