data_I
_chemical_name_common  '/home/zhangsd/repos/MofS-CGCNN/ML/data/SSD/clean_cifs/TACFIN_clean'
_cell_length_a 14.72360
_cell_length_b 14.72360
_cell_length_c  8.95440
_cell_angle_alpha 90.00000
_cell_angle_beta  90.00000
_cell_angle_gamma 90.00000
_space_group_name_H-M_alt      'P 1'


loop_
_space_group_symop_operation_xyz
  'x, y, z' 

loop_
_atom_site_label
_atom_site_fract_x
_atom_site_fract_y
_atom_site_fract_z
_atom_site_type_symbol
P      0.00019  0.64733   0.3055     P
Zn     0.00117  0.36854  0.66341    Zn
O       0.0035   0.2478   0.7534     O
O       0.0055   0.7475   0.2644     O
O        0.007   0.6363   0.4609     O
Co     0.01171  0.86852  0.34972    Co
P      0.01251  0.85337   0.7088     P
O       0.0538   0.8611   0.5537     O
O       0.0768    0.891   0.8278     O
O       0.0789   0.5982    0.244     O
O         0.08   0.0996   0.7158     O
O       0.0838   0.3904    0.234     O
O       0.0982   0.5789    0.744     O
O       0.0996     0.92   0.2158     O
O        0.109   0.0768   0.3278     O
O       0.1096   0.4162    0.734     O
Co     0.13146  0.49883  0.16341    Co
Zn     0.13148  0.01171  0.84972    Zn
O       0.1363    0.507   0.9609     O
O       0.1389   0.0538   0.0537     O
P      0.14663  0.01251   0.2088     P
P      0.14733  0.50019   0.8055     P
O       0.2475   0.5055   0.7644     O
O       0.2478   0.9965   0.2534     O
O       0.2522   0.4965   0.2534     O
O       0.2525   0.0055   0.7644     O
P      0.35267  0.00019   0.8055     P
P      0.35337  0.51251   0.2088     P
O       0.3611   0.5538   0.0537     O
O       0.3637    0.007   0.9609     O
Zn     0.36852  0.51171  0.84972    Zn
Zn     0.36854  0.99883  0.16341    Zn
O       0.3904   0.9162    0.734     O
O        0.391   0.5768   0.3278     O
O       0.4004     0.42   0.2158     O
O       0.4018   0.0789    0.744     O
O       0.4162   0.8904    0.234     O
O         0.42   0.5996   0.7158     O
O       0.4211   0.0982    0.244     O
O       0.4232    0.391   0.8278     O
O       0.4462   0.3611   0.5537     O
P      0.48749  0.35337   0.7088     P
Co     0.48829  0.36852  0.34972    Co
O        0.493   0.1363   0.4609     O
O       0.4945   0.2475   0.2644     O
O       0.4965   0.7478   0.7534     O
Co     0.49883  0.86854  0.66341    Co
P      0.49981  0.14733   0.3055     P
P      0.50019  0.85267   0.3055     P
Co     0.50117  0.13146  0.66341    Co
O       0.5035   0.2522   0.7534     O
O       0.5055   0.7525   0.2644     O
O        0.507   0.8637   0.4609     O
Co     0.51171  0.63148  0.34972    Co
P      0.51251  0.64663   0.7088     P
O       0.5538   0.6389   0.5537     O
O       0.5768    0.609   0.8278     O
O       0.5789   0.9018    0.244     O
O         0.58   0.4004   0.7158     O
O       0.5838   0.1096    0.234     O
O       0.5982   0.9211    0.744     O
O       0.5996     0.58   0.2158     O
O        0.609   0.4232   0.3278     O
O       0.6096   0.0838    0.734     O
Zn     0.63146  0.00117  0.16341    Zn
Zn     0.63148  0.48829  0.84972    Zn
O       0.6363    0.993   0.9609     O
O       0.6389   0.4462   0.0537     O
P      0.64663  0.48749   0.2088     P
P      0.64733  0.99981   0.8055     P
O       0.7475   0.9945   0.7644     O
O       0.7478   0.5035   0.2534     O
O       0.7522   0.0035   0.2534     O
O       0.7525   0.4945   0.7644     O
P      0.85267  0.49981   0.8055     P
P      0.85337  0.98749   0.2088     P
O       0.8611   0.9462   0.0537     O
O       0.8637    0.493   0.9609     O
Zn     0.86852  0.98829  0.84972    Zn
Co     0.86854  0.50117  0.16341    Co
O       0.8904   0.5838    0.734     O
O        0.891   0.9232   0.3278     O
O       0.9004     0.08   0.2158     O
O       0.9018   0.4211    0.744     O
O       0.9162   0.6096    0.234     O
O         0.92   0.9004   0.7158     O
O       0.9211   0.4018    0.244     O
O       0.9232    0.109   0.8278     O
O       0.9462   0.1389   0.5537     O
P      0.98749  0.14663   0.7088     P
Co     0.98829  0.13148  0.34972    Co
O        0.993   0.3637   0.4609     O
O       0.9945   0.2525   0.2644     O
O       0.9965   0.7522   0.7534     O
Zn     0.99883  0.63146  0.66341    Zn
P      0.99981  0.35267   0.3055     P
