data_I
_chemical_name_common  '/home/zhangsd/repos/MofS-CGCNN/ML/data/SSD/clean_cifs/TAGTIH_clean'
_cell_length_a 14.13810
_cell_length_b 14.13810
_cell_length_c 21.55800
_cell_angle_alpha 90.00000
_cell_angle_beta  90.00000
_cell_angle_gamma 120.00000
_space_group_name_H-M_alt      'P 1'


loop_
_space_group_symop_operation_xyz
  'x, y, z' 

loop_
_atom_site_label
_atom_site_fract_x
_atom_site_fract_y
_atom_site_fract_z
_atom_site_type_symbol
O          0.0      0.0      0.0     O
O          0.0  0.42055      0.5     O
Mg         0.0  0.85711      0.0    Mg
C        0.001   0.2718   0.1311     C
C       0.0032   0.1935   0.9152     C
C      0.03783  0.28977  0.52247     C
C      0.04357  0.41473  0.18913     C
C      0.06153  0.39587  0.79777     C
C      0.06253  0.39487  0.53557     C
H      0.06813  0.25187  0.54127     H
C       0.0814   0.3769   0.1442     C
H      0.08147  0.48293  0.20793     H
O       0.0838   0.2137    0.061     O
O      0.08722  0.33333  0.83333     O
O       0.0939   0.2023  0.92443     O
O       0.1084   0.9061  0.92443     O
O      0.11963  0.53677  0.72767     O
O       0.1299   0.9162    0.061     O
O      0.13103  0.55827   0.5911     O
C      0.13983  0.47637  0.58187     C
Mg     0.14289  0.14289      0.0    Mg
C      0.14303  0.47317  0.75147     C
H       0.1496   0.4148   0.1254     H
H      0.18373  0.93187  0.54127     H
C       0.1903   0.9968   0.9152     C
Mg     0.19044  0.66667  0.66667    Mg
C       0.1935   0.0032   0.0848     C
O       0.2023   0.0939  0.07557     O
O      0.20343  0.45297  0.60567     O
O       0.2137   0.0838    0.939     O
O      0.22493  0.46437  0.74224     O
O      0.23943  0.77507  0.74224     O
O      0.24612  0.91278  0.83333     O
O      0.24953  0.79657  0.60567     O
H      0.25187  0.06813  0.45873     H
C      0.25193  0.96217  0.52247     C
H       0.2652   0.8504   0.1254     H
C       0.2708    0.999   0.1311     C
C       0.2718    0.001   0.8689     C
C      0.28977  0.03783  0.47753     C
C       0.2955   0.9186   0.1442     C
C      0.33013  0.85697  0.75147     C
C      0.33233  0.93747  0.53557     C
O      0.33333  0.08722  0.16667     O
Mg     0.33333  0.52378  0.66667    Mg
O      0.33333  0.66667  0.66667     O
C      0.33433  0.93847  0.79777     C
C      0.33653  0.86017  0.58187     C
C      0.37117  0.95643  0.18913     C
C       0.3769   0.0814   0.8558     C
C      0.39487  0.06253  0.46443     C
C      0.39587  0.06153  0.20223     C
H      0.40147  0.91853  0.20793     H
C      0.41473  0.04357  0.81087     C
H       0.4148   0.1496   0.8746     H
O      0.41713  0.88037  0.72767     O
O      0.42055      0.0      0.5     O
O      0.42723  0.86897   0.5911     O
O      0.44173  0.57277   0.5911     O
O      0.45297  0.20343  0.39433     O
O      0.46323  0.58287  0.72767     O
O      0.46437  0.22493  0.25776     O
C      0.47317  0.14303  0.24853     C
Mg     0.47622  0.80956  0.66667    Mg
C      0.47637  0.13983  0.41813     C
H      0.48293  0.08147  0.79207     H
H      0.51707  0.59853  0.20793     H
C      0.52363  0.66347  0.58187     C
Mg     0.52378  0.33333  0.33333    Mg
C      0.52683  0.66987  0.75147     C
O      0.53563  0.76057  0.74224     O
O      0.53677  0.11963  0.27233     O
O      0.54703  0.75047  0.60567     O
O      0.55827  0.13103   0.4089     O
O      0.57277  0.44173   0.4089     O
O      0.57945  0.57945      0.5     O
O      0.58287  0.46323  0.27233     O
H       0.5852   0.7348   0.1254     H
C      0.58527  0.62883  0.18913     C
H      0.59853  0.51707  0.79207     H
C      0.60413  0.66567  0.79777     C
C      0.60513  0.66767  0.53557     C
C       0.6231   0.7045   0.1442     C
C      0.62883  0.58527  0.81087     C
C      0.66347  0.52363  0.41813     C
C      0.66567  0.60413  0.20223     C
Mg     0.66667  0.19044  0.33333    Mg
O      0.66667  0.33333  0.33333     O
O      0.66667  0.75388  0.83333     O
C      0.66767  0.60513  0.46443     C
C      0.66987  0.52683  0.24853     C
C       0.7045   0.6231   0.8558     C
C      0.71023  0.74807  0.52247     C
C       0.7282   0.7292   0.1311     C
C       0.7292   0.7282   0.8689     C
H       0.7348   0.5852   0.8746     H
C      0.74807  0.71023  0.47753     C
H      0.74813  0.81627  0.54127     H
O      0.75047  0.54703  0.39433     O
O      0.75388  0.66667  0.16667     O
O      0.76057  0.53563  0.25776     O
O      0.77507  0.23943  0.25776     O
O       0.7863   0.8701    0.061     O
O      0.79657  0.24953  0.39433     O
O       0.7977   0.8916  0.92443     O
C       0.8065   0.8097   0.9152     C
Mg     0.80956  0.47622  0.33333    Mg
C       0.8097   0.8065   0.0848     C
H      0.81627  0.74813  0.45873     H
H       0.8504   0.2652   0.8746     H
C      0.85697  0.33013  0.24853     C
Mg     0.85711      0.0      0.0    Mg
C      0.86017  0.33653  0.41813     C
O      0.86897  0.42723   0.4089     O
O       0.8701   0.7863    0.939     O
O      0.88037  0.41713  0.27233     O
O       0.8916   0.7977  0.07557     O
O       0.9061   0.1084  0.07557     O
O      0.91278  0.24612  0.16667     O
O       0.9162   0.1299    0.939     O
H      0.91853  0.40147  0.79207     H
C       0.9186   0.2955   0.8558     C
H      0.93187  0.18373  0.45873     H
C      0.93747  0.33233  0.46443     C
C      0.93847  0.33433  0.20223     C
C      0.95643  0.37117  0.81087     C
C      0.96217  0.25193  0.47753     C
C       0.9968   0.1903   0.0848     C
C        0.999   0.2708   0.8689     C
