data_I
_chemical_name_common  '/home/zhangsd/repos/MofS-CGCNN/ML/data/SSD/clean_cifs/TAGVAB_clean'
_cell_length_a 22.81040
_cell_length_b 22.81040
_cell_length_c 16.80990
_cell_angle_alpha 90.00000
_cell_angle_beta  90.00000
_cell_angle_gamma 120.00000
_space_group_name_H-M_alt      'P 1'


loop_
_space_group_symop_operation_xyz
  'x, y, z' 

loop_
_atom_site_label
_atom_site_fract_x
_atom_site_fract_y
_atom_site_fract_z
_atom_site_type_symbol
C       0.0065   0.4957   0.5019     C
C       0.0065   0.5108   0.0019     C
O        0.018    0.447   0.1395     O
O        0.018    0.571   0.6395     O
H       0.0363   0.4562   0.4108     H
H       0.0363   0.5801   0.9108     H
Mg     0.03828  0.26518   0.2067    Mg
Mg     0.03828   0.7731   0.7067    Mg
H       0.0496   0.5219   0.5232     H
H       0.0496   0.5277   0.0232     H
Mg     0.06833  0.43969  0.23232    Mg
Mg     0.06833  0.62864  0.73232    Mg
O       0.0756   0.3564   0.1553     O
O       0.0756   0.7192   0.6553     O
H       0.0821   0.3024    0.023     H
H       0.0821   0.7797    0.523     H
O       0.0918   0.3139   0.3085     O
O       0.0918   0.7779   0.8085     O
O       0.1172   0.4225   0.3179     O
O       0.1172   0.6947   0.8179     O
C       0.1205   0.3691   0.3405     C
C       0.1205   0.7514   0.8405     C
C       0.1248    0.406    0.124     C
C       0.1248   0.7188    0.624     C
C       0.1255   0.3364   0.0092     C
C       0.1255   0.7891   0.5092     C
H       0.1373   0.2863   0.9186     H
H       0.1373    0.851   0.4186     H
H        0.149   0.2863   0.4186     H
H        0.149   0.8627   0.9186     H
O       0.1497   0.4658   0.1493     O
O       0.1497   0.6839   0.6493     O
C       0.1572   0.3955   0.0532     C
C       0.1572   0.7617   0.5532     C
C        0.158   0.3278   0.9448     C
C        0.158   0.8302   0.4448     C
C       0.1585   0.3777   0.4182     C
C       0.1585   0.7808   0.9182     C
C       0.1698   0.3278   0.4448     C
C       0.1698    0.842   0.9448     C
H       0.1769   0.4719   0.4437     H
H       0.1769    0.705   0.9437     H
H       0.1785   0.0868   0.8736     H
H       0.1785   0.0917   0.3736     H
H       0.1839   0.0363   0.9915     H
H       0.1839   0.1476   0.4915     H
C       0.1846   0.4375   0.4605     C
C       0.1846   0.7471   0.9605     C
O       0.2027   0.0204   0.2813     O
O       0.2027   0.1823   0.7813     O
C       0.2109   0.3364   0.5092     C
C       0.2109   0.8745   0.0092     C
C       0.2185   0.1061   0.9029     C
C       0.2185   0.1124   0.4029     C
C       0.2192   0.3777   0.9182     C
C       0.2192   0.8415   0.4182     C
H       0.2203   0.3024    0.523     H
H       0.2203   0.9179    0.023     H
O       0.2221   0.3139   0.8085     O
O       0.2221   0.9082   0.3085     O
C       0.2224   0.0743   0.9722     C
C       0.2224   0.1481   0.4722     C
C       0.2225   0.4457   0.0297     C
C       0.2225   0.7768   0.5297     C
C       0.2232   0.4457   0.5297     C
C       0.2232   0.7775   0.0297     C
Mg      0.2269  0.26518   0.7067    Mg
Mg      0.2269  0.96172   0.2067    Mg
C       0.2383   0.3955   0.5532     C
C       0.2383   0.8428   0.0532     C
H       0.2387   0.4848   0.5602     H
H       0.2387   0.7539   0.0602     H
O       0.2397    0.021   0.1081     O
O       0.2397   0.2187   0.6081     O
H       0.2461   0.4848   0.0602     H
H       0.2461   0.7613   0.5602     H
C       0.2486   0.3691   0.8405     C
C       0.2486   0.8795   0.3405     C
C       0.2529   0.4375   0.9605     C
C       0.2529   0.8154   0.4605     C
C       0.2577   0.0585   0.3014     C
C       0.2577   0.1992   0.8014     C
C       0.2728   0.1077    0.378     C
C       0.2728   0.1651    0.878     C
O       0.2808   0.3564   0.6553     O
O       0.2808   0.9244   0.1553     O
C       0.2812    0.406    0.624     C
C       0.2812   0.8752    0.124     C
C       0.2815   0.0983   0.0112     C
C       0.2815   0.1832   0.5112     C
C       0.2931   0.0692   0.0824     C
C       0.2931   0.2239   0.5824     C
H        0.295   0.4719   0.9437     H
H        0.295   0.8231   0.4437     H
O       0.3053   0.4225   0.8179     O
O       0.3053   0.8828   0.3179     O
O       0.3107   0.0592   0.2719     O
O       0.3107   0.2515   0.7719     O
O       0.3161   0.4658   0.6493     O
O       0.3161   0.8503   0.1493     O
C       0.3319   0.1432   0.4141     C
C       0.3319   0.1887   0.9141     C
C       0.3388   0.1582   0.9833     C
C       0.3388   0.1806   0.4833     C
O        0.351   0.0983   0.1147     O
O        0.351   0.2527   0.6147     O
H       0.3698   0.1434   0.3933     H
H       0.3698   0.2264   0.8933     H
Mg     0.37136  0.43969  0.73232    Mg
Mg     0.37136  0.93167  0.23232    Mg
H       0.3799   0.1769   0.0102     H
H       0.3799    0.203   0.5102     H
Mg     0.40149  0.10765    0.212    Mg
Mg     0.40149  0.29384    0.712    Mg
O       0.4072   0.0206    0.291     O
O       0.4072   0.3866    0.791     O
H       0.4199   0.4562   0.9108     H
H       0.4199   0.9637   0.4108     H
O        0.429    0.447   0.6395     O
O        0.429    0.982   0.1395     O
C       0.4457   0.0715   0.3306     C
C       0.4457   0.3742   0.8306     C
C       0.4572   0.0005   0.4338     C
C       0.4572   0.4567   0.9338     C
O       0.4606   0.1285   0.3112     O
O       0.4606   0.3321   0.8112     O
C       0.4612   0.0409   0.1089     C
C       0.4612   0.4203   0.6089     C
O       0.4666   0.0915   0.1404     O
O       0.4666   0.3751   0.6404     O
H       0.4723   0.5219   0.0232     H
H       0.4723   0.9504   0.5232     H
H       0.4781   0.5277   0.5232     H
H       0.4781   0.9504   0.0232     H
C       0.4832   0.0623   0.4046     C
C       0.4832   0.4209   0.9046     C
C       0.4892   0.4957   0.0019     C
C       0.4892   0.9935   0.5019     C
C       0.5022   0.0488   0.0406     C
C       0.5022   0.4534   0.5406     C
C       0.5043   0.5108   0.5019     C
C       0.5043   0.9935   0.0019     C
H       0.5152   0.7539   0.5602     H
H       0.5152   0.7613   0.0602     H
H       0.5281    0.705   0.4437     H
H       0.5281   0.8231   0.9437     H
C       0.5319   0.1219   0.4425     C
C       0.5319     0.41   0.9425     C
O       0.5342   0.6839   0.1493     O
O       0.5342   0.8503   0.6493     O
H       0.5422   0.1644   0.4236     H
H       0.5422   0.3778   0.9236     H
C       0.5433   0.0005   0.9338     C
C       0.5433   0.5428   0.4338     C
H       0.5438   0.5801   0.4108     H
H       0.5438   0.9637   0.9108     H
C       0.5466   0.0488   0.5406     C
C       0.5466   0.4978   0.0406     C
C       0.5508   0.1153   0.0099     C
C       0.5508   0.4355   0.5099     C
O        0.553    0.571   0.1395     O
O        0.553    0.982   0.6395     O
C       0.5543   0.7768   0.0297     C
C       0.5543   0.7775   0.5297     C
H       0.5559   0.1538   0.0351     H
H       0.5559   0.4021   0.5351     H
Mg     0.56031  0.62864  0.23232    Mg
Mg     0.56031  0.93167  0.73232    Mg
C       0.5625   0.7471   0.4605     C
C       0.5625   0.8154   0.9605     C
C       0.5645   0.1153   0.5099     C
C       0.5645   0.4492   0.0099     C
O       0.5775   0.6947   0.3179     O
O       0.5775   0.8828   0.8179     O
C       0.5791   0.0623   0.9046     C
C       0.5791   0.5168   0.4046     C
C       0.5797   0.0409   0.6089     C
C       0.5797   0.5388   0.1089     C
C         0.59   0.1219   0.9425     C
C         0.59   0.4681   0.4425     C
C        0.594   0.7188    0.124     C
C        0.594   0.8752    0.624     C
H       0.5979   0.1538   0.5351     H
H       0.5979   0.4441   0.0351     H
C       0.6045   0.7617   0.0532     C
C       0.6045   0.8428   0.5532     C
O       0.6134   0.0206    0.791     O
O       0.6134   0.5928    0.291     O
H       0.6222   0.1644   0.9236     H
H       0.6222   0.4578   0.4236     H
C       0.6223   0.7808   0.4182     C
C       0.6223   0.8415   0.9182     C
O       0.6249   0.0915   0.6404     O
O       0.6249   0.5334   0.1404     O
C       0.6258   0.0715   0.8306     C
C       0.6258   0.5543   0.3306     C
C       0.6309   0.7514   0.3405     C
C       0.6309   0.8795   0.8405     C
O       0.6436   0.7192   0.1553     O
O       0.6436   0.9244   0.6553     O
C       0.6636   0.7891   0.0092     C
C       0.6636   0.8745   0.5092     C
O       0.6679   0.1285   0.8112     O
O       0.6679   0.5394   0.3112     O
C       0.6722   0.8302   0.9448     C
C       0.6722    0.842   0.4448     C
O       0.6861   0.7779   0.3085     O
O       0.6861   0.9082   0.8085     O
H       0.6976   0.7797    0.023     H
H       0.6976   0.9179    0.523     H
Mg     0.70616  0.10765    0.712    Mg
Mg     0.70616  0.59851    0.212    Mg
H       0.7137    0.851   0.9186     H
H       0.7137   0.8627   0.4186     H
Mg     0.73482   0.7731   0.2067    Mg
Mg     0.73482  0.96172   0.7067    Mg
O       0.7473   0.0983   0.6147     O
O       0.7473    0.649   0.1147     O
O       0.7485   0.0592   0.7719     O
O       0.7485   0.6893   0.2719     O
H       0.7736   0.1434   0.8933     H
H       0.7736   0.6302   0.3933     H
C       0.7761   0.0692   0.5824     C
C       0.7761   0.7069   0.0824     C
O       0.7813    0.021   0.6081     O
O       0.7813   0.7603   0.1081     O
H        0.797   0.1769   0.5102     H
H        0.797   0.6201   0.0102     H
C       0.8008   0.0585   0.8014     C
C       0.8008   0.7423   0.3014     C
C       0.8113   0.1432   0.9141     C
C       0.8113   0.6681   0.4141     C
C       0.8168   0.0983   0.5112     C
C       0.8168   0.7185   0.0112     C
O       0.8177   0.0204   0.7813     O
O       0.8177   0.7973   0.2813     O
C       0.8194   0.1582   0.4833     C
C       0.8194   0.6612   0.9833     C
H       0.8231    0.203   0.0102     H
H       0.8231   0.6201   0.5102     H
C       0.8349   0.1077    0.878     C
C       0.8349   0.7272    0.378     C
H       0.8356   0.3778   0.4236     H
H       0.8356   0.4578   0.9236     H
C       0.8418   0.1806   0.9833     C
C       0.8418   0.6612   0.4833     C
H       0.8462   0.4021   0.0351     H
H       0.8462   0.4441   0.5351     H
C       0.8519   0.0743   0.4722     C
C       0.8519   0.7776   0.9722     C
H       0.8524   0.0363   0.4915     H
H       0.8524   0.8161   0.9915     H
H       0.8566   0.2264   0.3933     H
H       0.8566   0.6302   0.8933     H
C       0.8568   0.1887   0.4141     C
C       0.8568   0.6681   0.9141     C
O       0.8715   0.3321   0.3112     O
O       0.8715   0.5394   0.8112     O
C       0.8781     0.41   0.4425     C
C       0.8781   0.4681   0.9425     C
C       0.8847   0.4355   0.0099     C
C       0.8847   0.4492   0.5099     C
C       0.8876   0.1061   0.4029     C
C       0.8876   0.7815   0.9029     C
C       0.8923   0.1651    0.378     C
C       0.8923   0.7272    0.878     C
Mg     0.89235  0.29384    0.212    Mg
Mg     0.89235  0.59851    0.712    Mg
C       0.8939   0.1124   0.9029     C
C       0.8939   0.7815   0.4029     C
C       0.9017   0.1832   0.0112     C
O       0.9017   0.2527   0.1147     O
O       0.9017    0.649   0.6147     O
C       0.9017   0.7185   0.5112     C
H       0.9083   0.0868   0.3736     H
H       0.9083   0.8215   0.8736     H
O       0.9085   0.3751   0.1404     O
O       0.9085   0.5334   0.6404     O
H       0.9132   0.0917   0.8736     H
H       0.9132   0.8215   0.3736     H
C       0.9257   0.1481   0.9722     C
C       0.9257   0.7776   0.4722     C
C       0.9285   0.3742   0.3306     C
C       0.9285   0.5543   0.8306     C
C       0.9308   0.2239   0.0824     C
C       0.9308   0.7069   0.5824     C
C       0.9377   0.4209   0.4046     C
C       0.9377   0.5168   0.9046     C
O       0.9408   0.2515   0.2719     O
O       0.9408   0.6893   0.7719     O
C       0.9415   0.1992   0.3014     C
C       0.9415   0.7423   0.8014     C
C       0.9512   0.4534   0.0406     C
C       0.9512   0.4978   0.5406     C
C       0.9591   0.4203   0.1089     C
C       0.9591   0.5388   0.6089     C
H       0.9637   0.1476   0.9915     H
H       0.9637   0.8161   0.4915     H
O        0.979   0.2187   0.1081     O
O        0.979   0.7603   0.6081     O
O       0.9794   0.3866    0.291     O
O       0.9794   0.5928    0.791     O
O       0.9796   0.1823   0.2813     O
O       0.9796   0.7973   0.7813     O
C       0.9995   0.4567   0.4338     C
C       0.9995   0.5428   0.9338     C
