data_I
_chemical_name_common  '/home/zhangsd/repos/MofS-CGCNN/ML/data/SSD/clean_cifs/TAVCIF_clean'
_cell_length_a 11.60250
_cell_length_b 16.39800
_cell_length_c 16.79600
_cell_angle_alpha 90.00000
_cell_angle_beta  109.30000
_cell_angle_gamma 90.00000
_space_group_name_H-M_alt      'P 1'


loop_
_space_group_symop_operation_xyz
  'x, y, z' 

loop_
_atom_site_label
_atom_site_fract_x
_atom_site_fract_y
_atom_site_fract_z
_atom_site_type_symbol
C        0.001   0.6304   0.9129     C
C        0.001   0.8696   0.4129     C
H       0.0023   0.1671   0.2246     H
H       0.0023   0.3329   0.7246     H
C       0.0087   0.1343   0.0355     C
C       0.0087   0.3657   0.5355     C
C       0.0115   0.6241   0.9969     C
C       0.0115   0.8759   0.4969     C
C       0.0206   0.6445   0.3299     C
C       0.0206   0.8555   0.8299     C
H       0.0278   0.1383   0.9252     H
H       0.0278   0.3617   0.4252     H
C       0.0443   0.1647   0.1177     C
C       0.0443   0.3353   0.6177     C
H       0.0605   0.6584   0.8969     H
H       0.0605   0.8416   0.3969     H
N       0.0622   0.1573   0.9759     N
N       0.0622   0.3427   0.4759     N
H       0.0772    0.076   0.4275     H
H       0.0772    0.424   0.9275     H
C       0.0808   0.0822   0.4839     C
C       0.0808   0.4178   0.9839     C
C        0.089   0.5794     0.49     C
C        0.089   0.9206     0.99     C
C       0.0971   0.0954   0.6472     C
C       0.0971   0.4046   0.1472     C
H       0.1019   0.0996   0.7041     H
H       0.1019   0.4004   0.2041     H
N       0.1068   0.6546   0.0634     N
N       0.1068   0.8454   0.5634     N
H       0.1074   0.6409   0.1135     H
H       0.1074   0.8591   0.6135     H
H       0.1121    0.557   0.5446     H
H       0.1121    0.943   0.0446     H
H       0.1128    0.199   0.1372     H
H       0.1128    0.301   0.6372     H
H        0.119   0.2083   0.8664     H
H        0.119   0.2917   0.3664     H
C         0.12   0.5911   0.3563     C
C         0.12   0.9089   0.8563     C
C       0.1521   0.5576   0.4367     C
C       0.1521   0.9424   0.9367     C
C       0.1631   0.2066   0.9872     C
C       0.1631   0.2934   0.4872     C
O        0.174  0.61398  0.23312     O
O        0.174  0.88602  0.73312     O
N       0.1743   0.2278   0.9109     N
N       0.1743   0.2722   0.4109     N
C       0.1765   0.0502   0.5479     C
C       0.1765   0.4498   0.0479     C
N       0.1867   0.0553   0.6293     N
N       0.1867   0.4447   0.1293     N
C       0.1896   0.5715   0.2973     C
C       0.1896   0.9285   0.7973     C
C       0.2015   0.7043   0.0602     C
C       0.2015   0.7957   0.5602     C
O       0.2146   0.7282   0.9945     O
O       0.2146   0.7718   0.4945     O
H       0.2153   0.2445   0.7732     H
H       0.2153   0.2555   0.2732     H
H       0.2169   0.5201   0.4547     H
H       0.2169   0.9799   0.9547     H
O       0.2327   0.2281  0.05592     O
O       0.2327   0.2719  0.55592     O
H       0.2384   0.0231   0.5338     H
H       0.2384   0.4769   0.0338     H
O       0.2622  0.51101   0.3166     O
O       0.2622  0.98899   0.8166     O
C       0.2642   0.2229   0.3961     C
C       0.2642   0.2771   0.8961     C
H       0.2673   0.6921   0.1803     H
H       0.2673   0.8079   0.6803     H
C        0.269   0.2221   0.3145     C
C        0.269   0.2779   0.8145     C
N       0.2786    0.721   0.1401     N
N       0.2786    0.779   0.6401     N
Zn      0.3327  0.00914  0.72535    Zn
Zn      0.3327  0.49086  0.22535    Zn
H        0.343   0.1735   0.5127     H
H        0.343   0.3265   0.0127     H
C        0.344   0.1735    0.457     C
C        0.344   0.3265    0.957     C
C        0.351   0.1734   0.2931     C
C        0.351   0.3266   0.7931     C
H        0.353   0.1741   0.2376     H
H        0.353   0.3259   0.7376     H
H        0.367   0.6774    0.548     H
H        0.367   0.8226    0.048     H
C       0.3717   0.7227    0.665     C
C       0.3717   0.7773    0.165     C
C       0.4056   0.6725   0.6066     C
C       0.4056   0.8275   0.1066     C
H       0.4218   0.7473   0.2873     H
H       0.4218   0.7527   0.7873     H
H       0.4253   0.1584   0.6651     H
H       0.4253   0.3416   0.1651     H
C        0.426   0.1236   0.4337     C
C        0.426   0.3764   0.9337     C
O       0.4262   0.5145   0.1178     O
O       0.4262   0.9855   0.6178     O
C       0.4304   0.1234   0.3529     C
C       0.4304   0.3766   0.8529     C
C       0.4384    0.717   0.7486     C
C       0.4384    0.783   0.2486     C
N       0.4435   0.1067   0.7731     N
N       0.4435   0.3933   0.2731     N
O       0.4579   0.5807   0.2368     O
O       0.4579   0.9193   0.7368     O
C       0.4705   0.1598    0.723     C
C       0.4705   0.3402    0.223     C
H       0.4769   0.0831   0.8964     H
H       0.4769   0.4169   0.3964     H
C       0.4781   0.5699   0.1687     C
C       0.4781   0.9301   0.6687     C
H       0.4794   0.0896   0.4745     H
H       0.4794   0.4104   0.9745     H
C       0.4984   0.6163   0.6406     C
C       0.4984   0.8837   0.1406     C
C       0.5016   0.1163   0.8594     C
C       0.5016   0.3837   0.3594     C
H       0.5206   0.5896   0.0255     H
H       0.5206   0.9104   0.5255     H
C       0.5219   0.0699   0.3313     C
C       0.5219   0.4301   0.8313     C
H       0.5231   0.5831   0.6036     H
H       0.5231   0.9169   0.1036     H
C       0.5295   0.6598    0.777     C
C       0.5295   0.8402    0.277     C
O       0.5421   0.0807   0.2632     O
O       0.5421   0.4193   0.7632     O
N       0.5565   0.6067   0.7269     N
N       0.5565   0.8933   0.2269     N
C       0.5616    0.217   0.7514     C
C       0.5616    0.283   0.2514     C
C       0.5696   0.6234   0.1471     C
C       0.5696   0.8766   0.6471     C
O       0.5738   0.0145   0.3822     O
O       0.5738   0.4855   0.8822     O
C        0.574   0.6236   0.0663     C
C        0.574   0.8764   0.5663     C
H       0.5747   0.6584   0.8349     H
H       0.5747   0.8416   0.3349     H
H       0.5782   0.2473   0.2127     H
H       0.5782   0.2527   0.7127     H
C       0.5944   0.1725   0.8934     C
C       0.5944   0.3275   0.3934     C
C       0.6283   0.2227    0.835     C
C       0.6283   0.2773    0.335     C
H        0.633   0.1774    0.952     H
H        0.633   0.3226    0.452     H
H        0.647   0.6741   0.2624     H
H        0.647   0.8259   0.7624     H
C        0.649   0.6734   0.2069     C
C        0.649   0.8266   0.7069     C
C        0.656   0.6735    0.043     C
C        0.656   0.8265    0.543     C
H        0.657   0.6735   0.9873     H
H        0.657   0.8265   0.4873     H
Zn      0.6673  0.50914  0.77465    Zn
Zn      0.6673  0.99086  0.27465    Zn
N       0.7214    0.221   0.3599     N
N       0.7214    0.279   0.8599     N
C        0.731   0.7221   0.1855     C
C        0.731   0.7779   0.6855     C
H       0.7327   0.1921   0.3197     H
H       0.7327   0.3079   0.8197     H
C       0.7358   0.7229   0.1039     C
C       0.7358   0.7771   0.6039     C
O       0.7378  0.01101   0.1834     O
O       0.7378  0.48899   0.6834     O
H       0.7616   0.5231   0.9662     H
H       0.7616   0.9769   0.4662     H
O       0.7673   0.7281  0.44408     O
O       0.7673   0.7719  0.94408     O
H       0.7831   0.0201   0.0453     H
H       0.7831   0.4799   0.5453     H
H       0.7847   0.7445   0.7268     H
H       0.7847   0.7555   0.2268     H
O       0.7854   0.2282   0.5055     O
O       0.7854   0.2718   0.0055     O
C       0.7985   0.2043   0.4398     C
C       0.7985   0.2957   0.9398     C
C       0.8104   0.0715   0.2027     C
C       0.8104   0.4285   0.7027     C
N       0.8133   0.5553   0.8707     N
N       0.8133   0.9447   0.3707     N
C       0.8235   0.5502   0.9521     C
C       0.8235   0.9498   0.4521     C
N       0.8257   0.7278   0.5891     N
N       0.8257   0.7722   0.0891     N
O        0.826  0.11398  0.26688     O
O        0.826  0.38602  0.76688     O
C       0.8369   0.7066   0.5128     C
C       0.8369   0.7934   0.0128     C
C       0.8479   0.0576   0.0633     C
C       0.8479   0.4424   0.5633     C
C         0.88   0.0911   0.1437     C
C         0.88   0.4089   0.6437     C
H        0.881   0.7083   0.6336     H
H        0.881   0.7917   0.1336     H
H       0.8872    0.699   0.3628     H
H       0.8872    0.801   0.8628     H
H       0.8879    0.057   0.9554     H
H       0.8879    0.443   0.4554     H
H       0.8926   0.1409   0.3865     H
H       0.8926   0.3591   0.8865     H
N       0.8932   0.1546   0.4366     N
N       0.8932   0.3454   0.9366     N
H       0.8981   0.5996   0.7959     H
H       0.8981   0.9004   0.2959     H
C       0.9029   0.5954   0.8528     C
C       0.9029   0.9046   0.3528     C
C        0.911   0.0794     0.01     C
C        0.911   0.4206     0.51     C
C       0.9192   0.5822   0.0161     C
C       0.9192   0.9178   0.5161     C
H       0.9228    0.576   0.0725     H
H       0.9228    0.924   0.5725     H
N       0.9378   0.6573   0.5241     N
N       0.9378   0.8427   0.0241     N
H       0.9395   0.1584   0.6031     H
H       0.9395   0.3416   0.1031     H
C       0.9557   0.6647   0.3823     C
C       0.9557   0.8353   0.8823     C
H       0.9722   0.6383   0.5748     H
H       0.9722   0.8617   0.0748     H
C       0.9794   0.1445   0.1701     C
C       0.9794   0.3555   0.6701     C
C       0.9885   0.1241   0.5031     C
C       0.9885   0.3759   0.0031     C
C       0.9913   0.6343   0.4645     C
C       0.9913   0.8657   0.9645     C
H       0.9977   0.6671   0.2754     H
H       0.9977   0.8329   0.7754     H
C        0.999   0.1304   0.5871     C
C        0.999   0.3696   0.0871     C
