data_I
_chemical_name_common  '/home/zhangsd/repos/MofS-CGCNN/ML/data/SSD/clean_cifs/TEYLIU_clean'
_cell_length_a  6.20350
_cell_length_b 12.04450
_cell_length_c 22.73730
_cell_angle_alpha 90.00000
_cell_angle_beta  90.00000
_cell_angle_gamma 91.66900
_space_group_name_H-M_alt      'P 1'


loop_
_space_group_symop_operation_xyz
  'x, y, z' 

loop_
_atom_site_label
_atom_site_fract_x
_atom_site_fract_y
_atom_site_fract_z
_atom_site_type_symbol
Co         0.0      0.5      0.0    Co
H       0.0283   0.9217   0.6804     H
C       0.0284   0.2074  0.74469     C
C       0.0368   0.9622   0.1867     C
C       0.0454   0.9647   0.6466     C
H       0.0548   0.6018   0.7859     H
O       0.0572   0.2379  0.48604     O
Ce     0.05934  0.56334  0.35339    Ce
C       0.0633   0.8981   0.4133     C
O       0.0639   0.9991  0.85697     O
C       0.0833   0.3738   0.2217     C
H       0.0838   0.2585   0.1572     H
N       0.0958   0.9579  0.36382     N
C       0.0988   0.1133  0.77264     C
C       0.1096   0.0856  0.54927     C
O       0.1111   0.6519  0.95844     O
N        0.147   0.2576  0.70191     N
C       0.1577   0.1514   0.4934     C
C       0.1634   0.2866   0.1888     C
C       0.1699   0.7303   0.2366     C
H       0.1877   0.6118    0.119     H
N       0.1999   0.4229  0.26389     N
O       0.2006   0.3884  0.95998     O
C       0.2181   0.9443   0.6099     C
O       0.2286    0.985  0.19961     O
O       0.2288   0.7252   0.3995     O
O       0.2355   0.6588  0.27175     O
C       0.2381   0.8165   0.4257     C
O        0.241   0.7515  0.18752     O
N       0.2493   0.0048  0.56137     N
N       0.2507   0.4952  0.06137     N
O        0.259   0.7485  0.68752     O
C       0.2619   0.6835   0.9257     C
O       0.2645   0.8412  0.77175     O
O       0.2712   0.7748   0.8995     O
O       0.2714    0.515  0.69961     O
C       0.2819   0.5557   0.1099     C
O       0.2994   0.1116  0.45998     O
N       0.3001   0.0771  0.76389     N
H       0.3123   0.8882    0.619     H
C       0.3301   0.7697   0.7366     C
C       0.3366   0.2134   0.6888     C
C       0.3423   0.3486   0.9934     C
N        0.353   0.2424  0.20191     N
O       0.3889   0.8481  0.45844     O
C       0.3904   0.4144  0.04927     C
C       0.4012   0.3867  0.27264     C
N       0.4042   0.5421  0.86382     N
H       0.4162   0.2415   0.6572     H
C       0.4167   0.1262   0.7217     C
O       0.4361   0.5009  0.35697     O
C       0.4367   0.6019   0.9133     C
Ce     0.44066  0.93666  0.85339    Ce
O       0.4428   0.2621  0.98604     O
H       0.4452   0.8982   0.2859     H
C       0.4546   0.5353   0.1466     C
C       0.4632   0.5378   0.6867     C
C       0.4716   0.2926  0.24469     C
H       0.4717   0.5783   0.1804     H
Co         0.5     -0.0      0.5    Co
H       0.5283   0.4217   0.8196     H
C       0.5284   0.7074  0.75531     C
C       0.5368   0.4622   0.3133     C
C       0.5454   0.4647   0.8534     C
H       0.5548   0.1018   0.7141     H
O       0.5572   0.7379  0.01396     O
Ce     0.55934  0.06334  0.14661    Ce
C       0.5633   0.3981   0.0867     C
O       0.5639   0.4991  0.64303     O
C       0.5833   0.8738   0.2783     C
H       0.5838   0.7585   0.3428     H
N       0.5958   0.4579  0.13618     N
C       0.5988   0.6133  0.72736     C
C       0.6096   0.5856  0.95073     C
O       0.6111   0.1519  0.54156     O
N        0.647   0.7576  0.79809     N
C       0.6577   0.6514   0.0066     C
C       0.6634   0.7866   0.3112     C
C       0.6699   0.2303   0.2634     C
H       0.6877   0.1118    0.381     H
N       0.6999   0.9229  0.23611     N
O       0.7006   0.8884  0.54002     O
C       0.7181   0.4443   0.8901     C
O       0.7286    0.485  0.30039     O
O       0.7288   0.2252   0.1005     O
O       0.7355   0.1588  0.22825     O
C       0.7381   0.3165   0.0743     C
O        0.741   0.2515  0.31248     O
N       0.7493   0.5048  0.93863     N
N       0.7507   0.9952  0.43863     N
O        0.759   0.2485  0.81248     O
C       0.7619   0.1835   0.5743     C
O       0.7645   0.3412  0.72825     O
O       0.7712   0.2748   0.6005     O
O       0.7714    0.015  0.80039     O
C       0.7819   0.0557   0.3901     C
O       0.7994   0.6116  0.04002     O
N       0.8001   0.5771  0.73611     N
H       0.8123   0.3882    0.881     H
C       0.8301   0.2697   0.7634     C
C       0.8366   0.7134   0.8112     C
C       0.8423   0.8486   0.5066     C
N        0.853   0.7424  0.29809     N
O       0.8889   0.3481  0.04156     O
C       0.8904   0.9144  0.45073     C
C       0.9012   0.8867  0.22736     C
N       0.9042   0.0421  0.63618     N
H       0.9162   0.7415   0.8428     H
C       0.9167   0.6262   0.7783     C
O       0.9361   0.0009  0.14303     O
C       0.9367   0.1019   0.5867     C
Ce     0.94066  0.43666  0.64661    Ce
O       0.9428   0.7621  0.51396     O
H       0.9452   0.3982   0.2141     H
C       0.9546   0.0353   0.3534     C
C       0.9632   0.0378   0.8133     C
C       0.9716   0.7926  0.25531     C
H       0.9717   0.0783   0.3196     H
