data_I
_chemical_name_common  '/home/zhangsd/repos/MofS-CGCNN/ML/data/SSD/clean_cifs/TIDMEA_clean'
_cell_length_a 11.01290
_cell_length_b 13.35540
_cell_length_c 15.84300
_cell_angle_alpha 114.92900
_cell_angle_beta  110.33800
_cell_angle_gamma 90.00000
_space_group_name_H-M_alt      'P 1'


loop_
_space_group_symop_operation_xyz
  'x, y, z' 

loop_
_atom_site_label
_atom_site_fract_x
_atom_site_fract_y
_atom_site_fract_z
_atom_site_type_symbol
C       0.0081   0.9406   0.7856     C
O       0.0106   0.6575   0.7134     O
P       0.0258   0.8859   0.1786     P
Pr      0.0429  0.93139   0.5576    Pr
O       0.0543   0.9141   0.7152     O
C       0.0568   0.1528   0.4764     C
C       0.0804   0.6764   0.5236     C
O       0.0851   0.0222   0.8676     O
O       0.1092   0.1984    0.438     O
O       0.1175    0.801   0.1504     O
O       0.1196   0.0772   0.4942     O
O       0.1254    0.583   0.5058     O
C       0.1276    0.024   0.2534     C
O       0.1552   0.3281   0.3816     O
O       0.1712   0.7604    0.562     O
O       0.2154   0.0256   0.3446     O
O       0.2175   0.9778   0.1324     O
O       0.2209   0.6202   0.7548     O
C       0.2225   0.0594   0.2144     C
O       0.2736   0.9465   0.6184     O
P       0.2854   0.3786    0.389     P
O       0.2972   0.3425   0.2866     O
O       0.3095   0.5076   0.4416     O
O        0.336   0.7972   0.9174     O
O       0.3391   0.0859   0.2848     O
O       0.3447   0.2351    0.458     O
P       0.3472   0.7073   0.8214     P
O       0.3679    0.066   0.5584     O
O       0.3708    0.681   0.6554     O
C       0.3742   0.7706   0.7466     C
O       0.3867   0.7771    0.542     O
P       0.3964   0.9896    0.611     P
C        0.413   0.3227   0.4572     C
O       0.4186   0.2028   0.0826     O
C       0.4558   0.8655   0.5428     C
O       0.4661   0.3798   0.2452     O
O       0.4671   0.6506   0.8496     O
Pr      0.4821      0.0      0.0    Pr
Pr      0.4853  0.06861   0.4424    Pr
C       0.5081    0.845   0.7856     C
O       0.5106   0.0559   0.7134     O
P       0.5258   0.2927   0.1786     P
Pr      0.5429  0.62621   0.5576    Pr
O       0.5543   0.8011   0.7152     O
C       0.5568   0.3236   0.4764     C
C       0.5804   0.8472   0.5236     C
O       0.5851   0.8454   0.8676     O
O       0.6092   0.2396    0.438     O
O       0.6175   0.3494   0.1504     O
O       0.6196    0.417   0.4942     O
O       0.6254   0.9228   0.5058     O
C       0.6276   0.2294   0.2534     C
O       0.6552   0.0535   0.3816     O
O       0.6712   0.8016    0.562     O
O       0.7154    0.319   0.3446     O
O       0.7175   0.1546   0.1324     O
O       0.7209   0.1346   0.7548     O
C       0.7225    0.155   0.2144     C
O       0.7736   0.6719   0.6184     O
P       0.7854   0.0104    0.389     P
O       0.7972   0.9441   0.2866     O
O       0.8095    0.934   0.4416     O
O        0.836   0.1202   0.9174     O
O       0.8391   0.1989   0.2848     O
O       0.8447   0.2229    0.458     O
P       0.8472   0.1141   0.8214     P
O       0.8679   0.4924   0.5584     O
O       0.8708   0.9744   0.6554     O
C       0.8742    0.976   0.7466     C
O       0.8867   0.7649    0.542     O
P       0.8964   0.6214    0.611     P
C        0.913   0.1345   0.4572     C
O       0.9186   0.8798   0.0826     O
C       0.9558   0.6773   0.5428     C
O       0.9661   0.8654   0.2452     O
O       0.9671    0.199   0.8496     O
Pr      0.9821      0.0      0.0    Pr
Pr      0.9853  0.37379   0.4424    Pr
