data_I
_chemical_name_common  '/home/zhangsd/repos/MofS-CGCNN/ML/data/SSD/clean_cifs/TIQHIL_clean'
_cell_length_a 12.21300
_cell_length_b 12.21300
_cell_length_c 12.34500
_cell_angle_alpha 90.00000
_cell_angle_beta  90.00000
_cell_angle_gamma 90.00000
_space_group_name_H-M_alt      'P 1'


loop_
_space_group_symop_operation_xyz
  'x, y, z' 

loop_
_atom_site_label
_atom_site_fract_x
_atom_site_fract_y
_atom_site_fract_z
_atom_site_type_symbol
Dy         0.0      0.0      0.0    Dy
Na         0.0      0.5   0.4879    Na
H       0.0208   0.6095   0.2661     H
C       0.0445   0.7642   0.2125     C
H       0.0582   0.2239   0.4012     H
O       0.0645   0.0963   0.8474     O
C       0.0651   0.1942   0.2401     C
C        0.073   0.6569   0.2377     C
O       0.0848   0.6695   0.4864     O
O       0.0949   0.1547   0.0583     O
O       0.0963   0.9355   0.1526     O
C       0.1036   0.2002   0.3455     C
H       0.1048   0.7206   0.8766     H
O       0.1169   0.4165   0.6176     O
H       0.1186   0.6496   0.7051     H
N       0.1219   0.8325     0.17     N
C       0.1304   0.7644   0.8204     C
N       0.1326   0.1604   0.1591     N
C       0.1367   0.7224   0.7179     C
O       0.1428   0.4588   0.3488     O
O       0.1547   0.9051   0.9417     O
H       0.1552   0.2748   0.8805     H
N       0.1604   0.8674   0.8409     N
N       0.1675   0.1219     0.83     N
C       0.1703    0.789   0.6336     C
O        0.173   0.1911   0.5724     O
C       0.1789   0.6206   0.2207     C
S      0.18292   0.7348  0.50002     S
O       0.1911    0.827   0.4276     O
O       0.1935   0.4174   0.1658     O
C       0.1942   0.9349   0.7599     C
C       0.2002   0.8964   0.6545     C
C       0.2026    0.224   0.8497     C
C        0.211   0.1703   0.3664     C
S      0.21337  0.48466  0.25906     S
H       0.2239   0.9418   0.5988     H
C        0.224   0.7974   0.1503     C
C       0.2356   0.1304   0.1796     C
C       0.2358   0.0445   0.7875     C
C       0.2542   0.6914   0.1752     C
S       0.2652  0.18292  0.49998     S
H       0.2748   0.8448   0.1195     H
C       0.2776   0.1367   0.2821     C
H       0.2794   0.1048   0.1234     H
Na      0.2795   0.4717   0.5046    Na
O       0.2823   0.6685   0.5026     O
C       0.3086   0.2542   0.8248     C
H       0.3252   0.6677   0.1614     H
O        0.327   0.4903   0.2915     O
O       0.3305   0.0848   0.5136     O
O       0.3315   0.2823   0.4974     O
H       0.3323   0.3252   0.8386     H
C       0.3431    0.073   0.7623     C
H       0.3504   0.1186   0.2949     H
C       0.3794   0.1789   0.7793     C
H       0.3905   0.0208   0.7339     H
O       0.4165   0.8831   0.3824     O
O       0.4174   0.8065   0.8342     O
O       0.4588   0.8572   0.6512     O
Na      0.4717   0.7205   0.4954    Na
S      0.48466  0.78663  0.74094     S
O       0.4903    0.673   0.7085     O
Na         0.5      0.0   0.5121    Na
Cl         0.5      0.5      0.5    Cl
O       0.5097    0.327   0.7085     O
S      0.51534  0.21337  0.74094     S
Na      0.5283   0.2795   0.4954    Na
O       0.5412   0.1428   0.6512     O
O       0.5826   0.1935   0.8342     O
O       0.5835   0.1169   0.3824     O
H       0.6095   0.9792   0.7339     H
C       0.6206   0.8211   0.7793     C
H       0.6496   0.8814   0.2949     H
C       0.6569    0.927   0.7623     C
H       0.6677   0.6748   0.8386     H
O       0.6685   0.7177   0.4974     O
O       0.6695   0.9152   0.5136     O
O        0.673   0.5097   0.2915     O
H       0.6748   0.3323   0.1614     H
C       0.6914   0.7458   0.8248     C
O       0.7177   0.3315   0.5026     O
Na      0.7205   0.5283   0.5046    Na
H       0.7206   0.8952   0.1234     H
C       0.7224   0.8633   0.2821     C
H       0.7252   0.1552   0.1195     H
S       0.7348  0.81708  0.49998     S
C       0.7458   0.3086   0.1752     C
C       0.7642   0.9555   0.7875     C
C       0.7644   0.8696   0.1796     C
C        0.776   0.2026   0.1503     C
H       0.7761   0.0582   0.5988     H
S      0.78663  0.51534  0.25906     S
C        0.789   0.8297   0.3664     C
C       0.7974    0.776   0.8497     C
C       0.7998   0.1036   0.6545     C
C       0.8058   0.0651   0.7599     C
O       0.8065   0.5826   0.1658     O
O       0.8089    0.173   0.4276     O
S      0.81708   0.2652  0.50002     S
C       0.8211   0.3794   0.2207     C
O        0.827   0.8089   0.5724     O
C       0.8297    0.211   0.6336     C
N       0.8325   0.8781     0.83     N
N       0.8396   0.1326   0.8409     N
H       0.8448   0.7252   0.8805     H
O       0.8453   0.0949   0.9417     O
O       0.8572   0.5412   0.3488     O
C       0.8633   0.2776   0.7179     C
N       0.8674   0.8396   0.1591     N
C       0.8696   0.2356   0.8204     C
N       0.8781   0.1675     0.17     N
H       0.8814   0.3504   0.7051     H
O       0.8831   0.5835   0.6176     O
H       0.8952   0.2794   0.8766     H
C       0.8964   0.7998   0.3455     C
O       0.9037   0.0645   0.1526     O
O       0.9051   0.8453   0.0583     O
O       0.9152   0.3305   0.4864     O
C        0.927   0.3431   0.2377     C
C       0.9349   0.8058   0.2401     C
O       0.9355   0.9037   0.8474     O
H       0.9418   0.7761   0.4012     H
C       0.9555   0.2358   0.2125     C
H       0.9792   0.3905   0.2661     H
