data_I
_chemical_name_common  '/home/zhangsd/repos/MofS-CGCNN/ML/data/SSD/clean_cifs/TIQHAD_clean'
_cell_length_a 12.23400
_cell_length_b 12.23400
_cell_length_c 12.37300
_cell_angle_alpha 90.00000
_cell_angle_beta  90.00000
_cell_angle_gamma 90.00000
_space_group_name_H-M_alt      'P 1'


loop_
_space_group_symop_operation_xyz
  'x, y, z' 

loop_
_atom_site_label
_atom_site_fract_x
_atom_site_fract_y
_atom_site_fract_z
_atom_site_type_symbol
Gd         0.0      0.0      0.0    Gd
Na         0.0      0.5    0.513    Na
H       0.0197   0.6107   0.7344     H
C       0.0452   0.7636   0.7859     C
H       0.0562   0.2202   0.5977     H
C       0.0653   0.1953   0.7591     C
O       0.0654   0.0968   0.1537     O
C       0.0727   0.6576   0.7618     C
O        0.086   0.6689   0.5125     O
O       0.0943    0.157   0.9409     O
O       0.0968   0.9346   0.8463     O
C       0.1027   0.1997   0.6536     C
H       0.1073   0.7199   0.1228     H
H       0.1157   0.6492   0.2947     H
O       0.1178   0.4172   0.3832     O
N       0.1225   0.8323   0.8292     N
C       0.1317   0.7636   0.1794     C
N       0.1318   0.1622   0.8408     N
C       0.1362   0.7212   0.2817     C
O       0.1437     0.46   0.6499     O
H       0.1555   0.2752   0.1234     H
O        0.157   0.9057   0.0591     O
N       0.1622   0.8682   0.1592     N
N       0.1677   0.1225   0.1708     N
C       0.1725   0.7886    0.367     C
O        0.174   0.1916   0.4278     O
C       0.1785   0.6192   0.7776     C
S      0.18359  0.73415   0.4998     S
O       0.1916    0.826   0.5722     O
O       0.1924   0.4173   0.8337     O
C       0.1953   0.9347   0.2409     C
C       0.1997   0.8973   0.3464     C
C       0.2034   0.2239   0.1523     C
C       0.2114   0.1725    0.633     C
S      0.21338  0.48424  0.74035     S
H       0.2202   0.9438   0.4023     H
C       0.2239   0.7966   0.8477     C
C       0.2364   0.0452   0.2141     C
C       0.2364   0.1317   0.8206     C
C       0.2543   0.6913    0.825     C
S      0.26585  0.18359   0.5002     S
H       0.2752   0.8445   0.8766     H
Na      0.2782   0.4713   0.4933    Na
C       0.2788   0.1362   0.7183     C
H       0.2801   0.1073   0.8772     H
O       0.2837   0.6674   0.4962     O
C       0.3087   0.2543    0.175     C
H       0.3247   0.6675   0.8408     H
O       0.3284   0.4882   0.7068     O
O       0.3311    0.086   0.4875     O
H       0.3325   0.3247   0.1592     H
O       0.3326   0.2837   0.5038     O
C       0.3424   0.0727   0.2382     C
H       0.3508   0.1157   0.7053     H
C       0.3808   0.1785   0.2224     C
H       0.3893   0.0197   0.2656     H
O       0.4172   0.8822   0.6168     O
O       0.4173   0.8076   0.1663     O
O         0.46   0.8563   0.3501     O
Na      0.4713   0.7218   0.5067    Na
S      0.48424  0.78662  0.25965     S
O       0.4882   0.6716   0.2932     O
Na         0.5      0.0    0.487    Na
Cl         0.5      0.5      0.5    Cl
O       0.5118   0.3284   0.2932     O
S      0.51576  0.21338  0.25965     S
Na      0.5287   0.2782   0.5067    Na
O         0.54   0.1437   0.3501     O
O       0.5827   0.1924   0.1663     O
O       0.5828   0.1178   0.6168     O
H       0.6107   0.9803   0.2656     H
C       0.6192   0.8215   0.2224     C
H       0.6492   0.8843   0.7053     H
C       0.6576   0.9273   0.2382     C
O       0.6674   0.7163   0.5038     O
H       0.6675   0.6753   0.1592     H
O       0.6689    0.914   0.4875     O
O       0.6716   0.5118   0.7068     O
H       0.6753   0.3325   0.8408     H
C       0.6913   0.7457    0.175     C
O       0.7163   0.3326   0.4962     O
H       0.7199   0.8927   0.8772     H
C       0.7212   0.8638   0.7183     C
Na      0.7218   0.5287   0.4933    Na
H       0.7248   0.1555   0.8766     H
S      0.73415  0.81641   0.5002     S
C       0.7457   0.3087    0.825     C
C       0.7636   0.8683   0.8206     C
C       0.7636   0.9548   0.2141     C
C       0.7761   0.2034   0.8477     C
H       0.7798   0.0562   0.4023     H
S      0.78662  0.51576  0.74035     S
C       0.7886   0.8275    0.633     C
C       0.7966   0.7761   0.1523     C
C       0.8003   0.1027   0.3464     C
C       0.8047   0.0653   0.2409     C
O       0.8076   0.5827   0.8337     O
O       0.8084    0.174   0.5722     O
S      0.81641  0.26585   0.4998     S
C       0.8215   0.3808   0.7776     C
O        0.826   0.8084   0.4278     O
C       0.8275   0.2114    0.367     C
N       0.8323   0.8775   0.1708     N
N       0.8378   0.1318   0.1592     N
O        0.843   0.0943   0.0591     O
H       0.8445   0.7248   0.1234     H
O       0.8563     0.54   0.6499     O
C       0.8638   0.2788   0.2817     C
N       0.8682   0.8378   0.8408     N
C       0.8683   0.2364   0.1794     C
N       0.8775   0.1677   0.8292     N
O       0.8822   0.5828   0.3832     O
H       0.8843   0.3508   0.2947     H
H       0.8927   0.2801   0.1228     H
C       0.8973   0.8003   0.6536     C
O       0.9032   0.0654   0.8463     O
O       0.9057    0.843   0.9409     O
O        0.914   0.3311   0.5125     O
C       0.9273   0.3424   0.7618     C
O       0.9346   0.9032   0.1537     O
C       0.9347   0.8047   0.7591     C
H       0.9438   0.7798   0.5977     H
C       0.9548   0.2364   0.7859     C
H       0.9803   0.3893   0.7344     H
