data_I
_chemical_name_common  '/home/zhangsd/repos/MofS-CGCNN/ML/data/SSD/clean_cifs/TIXCIO_clean'
_cell_length_a 17.54200
_cell_length_b 17.54200
_cell_length_c 17.54200
_cell_angle_alpha 90.00000
_cell_angle_beta  90.00000
_cell_angle_gamma 90.00000
_space_group_name_H-M_alt      'P 1'


loop_
_space_group_symop_operation_xyz
  'x, y, z' 

loop_
_atom_site_label
_atom_site_fract_x
_atom_site_fract_y
_atom_site_fract_z
_atom_site_type_symbol
Cd         0.0      0.0      0.0    Cd
Cd         0.0      0.5      0.5    Cd
C       0.0105   0.5915   0.3356     C
C       0.0105   0.9085   0.8356     C
H        0.028   0.6706   0.2556     H
H        0.028   0.8294   0.7556     H
H       0.0295   0.0614    0.185     H
H       0.0295   0.4386    0.685     H
N       0.0416   0.6522   0.3003     N
N       0.0416   0.8478   0.8003     N
N        0.042   0.5794   0.4016     N
N        0.042   0.9206   0.9016     N
H        0.049   0.6286   0.6403     H
H        0.049   0.8714   0.1403     H
H       0.0614    0.185   0.0295     H
H       0.0614    0.315   0.5295     H
N       0.0794   0.0984    0.958     N
N       0.0794   0.4016    0.458     N
H       0.0858   0.7201   0.7326     H
H       0.0858   0.7799   0.2326     H
C       0.0915   0.1644   0.9895     C
C       0.0915   0.3356   0.4895     C
C       0.0919   0.5961   0.6345     C
C       0.0919   0.9039   0.1345     C
C       0.0961   0.6345   0.4081     C
C       0.0961   0.8655   0.9081     C
C       0.0979   0.6801   0.3458     C
C       0.0979   0.8199   0.8458     C
N       0.0984    0.542   0.5794     N
N       0.0984    0.958   0.0794     N
C       0.1281   0.7078   0.7641     C
C       0.1281   0.7922   0.2641     C
H       0.1286   0.6403    0.451     H
H       0.1286   0.8597    0.951     H
C       0.1345   0.0919   0.9039     C
C       0.1345   0.4081   0.4039     C
H       0.1403    0.049   0.8714     H
H       0.1403    0.451   0.3714     H
C       0.1447   0.7467   0.3272     C
C       0.1447   0.7533   0.8272     C
N       0.1522   0.1997   0.9584     N
N       0.1522   0.3003   0.4584     N
C       0.1542   0.5979   0.6801     C
C       0.1542   0.9021   0.1801     C
C       0.1644   0.5105   0.5915     C
C       0.1644   0.9895   0.0915     C
H       0.1706   0.2444    0.972     H
H       0.1706   0.2556    0.472     H
C       0.1728   0.6447   0.7467     C
C       0.1728   0.8553   0.2467     C
C       0.1801   0.1542   0.9021     C
C       0.1801   0.3458   0.4021     C
H        0.185   0.0295   0.0614     H
H        0.185   0.4705   0.5614     H
N       0.1997   0.5416   0.6522     N
N       0.1997   0.9584   0.1522     N
C       0.2078   0.7359   0.8719     C
C       0.2078   0.7641   0.3719     C
H       0.2201   0.7326   0.4142     H
H       0.2201   0.7674   0.9142     H
H       0.2326   0.0858   0.7799     H
H       0.2326   0.4142   0.2799     H
C       0.2359   0.6281   0.7922     C
C       0.2359   0.8719   0.2922     C
H       0.2444    0.528   0.6706     H
H       0.2444    0.972   0.1706     H
C       0.2467   0.1728   0.8553     C
C       0.2467   0.3272   0.3553     C
C       0.2533   0.6728   0.8553     C
C       0.2533   0.8272   0.3553     C
H       0.2556    0.028   0.6706     H
H       0.2556    0.472   0.1706     H
C       0.2641   0.1281   0.7922     C
C       0.2641   0.3719   0.2922     C
H       0.2674   0.5858   0.7799     H
H       0.2674   0.9142   0.2799     H
H       0.2799   0.2326   0.4142     H
H       0.2799   0.2674   0.9142     H
C       0.2922   0.2359   0.8719     C
C       0.2922   0.2641   0.3719     C
N       0.3003   0.0416   0.6522     N
N       0.3003   0.4584   0.1522     N
H        0.315   0.5295   0.0614     H
H        0.315   0.9705   0.5614     H
C       0.3199   0.6542   0.9021     C
C       0.3199   0.8458   0.4021     C
C       0.3272   0.1447   0.7467     C
C       0.3272   0.3553   0.2467     C
H       0.3294   0.7444    0.972     H
H       0.3294   0.7556    0.472     H
C       0.3356   0.0105   0.5915     C
C       0.3356   0.4895   0.0915     C
C       0.3458   0.0979   0.6801     C
C       0.3458   0.4021   0.1801     C
N       0.3478   0.6997   0.9584     N
N       0.3478   0.8003   0.4584     N
C       0.3553   0.2467   0.3272     C
C       0.3553   0.2533   0.8272     C
H       0.3597    0.549   0.8714     H
H       0.3597    0.951   0.3714     H
C       0.3655   0.5919   0.9039     C
C       0.3655   0.9081   0.4039     C
H       0.3714   0.1403    0.451     H
H       0.3714   0.3597    0.951     H
C       0.3719   0.2078   0.7641     C
C       0.3719   0.2922   0.2641     C
N       0.4016    0.042   0.5794     N
N       0.4016    0.458   0.0794     N
C       0.4021   0.1801   0.3458     C
C       0.4021   0.3199   0.8458     C
C       0.4039   0.1345   0.4081     C
C       0.4039   0.3655   0.9081     C
C       0.4081   0.0961   0.6345     C
C       0.4081   0.4039   0.1345     C
C       0.4085   0.6644   0.9895     C
C       0.4085   0.8356   0.4895     C
H       0.4142   0.2201   0.7326     H
H       0.4142   0.2799   0.2326     H
N       0.4206   0.5984    0.958     N
N       0.4206   0.9016    0.458     N
H       0.4386    0.685   0.0295     H
H       0.4386    0.815   0.5295     H
H        0.451   0.1286   0.6403     H
H        0.451   0.3714   0.1403     H
N        0.458   0.0794   0.4016     N
N        0.458   0.4206   0.9016     N
N       0.4584   0.1522   0.3003     N
N       0.4584   0.3478   0.8003     N
H       0.4705   0.5614    0.185     H
H       0.4705   0.9386    0.685     H
H        0.472   0.1706   0.2556     H
H        0.472   0.3294   0.7556     H
C       0.4895   0.0915   0.3356     C
C       0.4895   0.4085   0.8356     C
Cd         0.5      0.0      0.5    Cd
Cd         0.5      0.5      0.0    Cd
C       0.5105   0.5915   0.1644     C
C       0.5105   0.9085   0.6644     C
H        0.528   0.6706   0.2444     H
H        0.528   0.8294   0.7444     H
H       0.5295   0.0614    0.315     H
H       0.5295   0.4386    0.815     H
N       0.5416   0.6522   0.1997     N
N       0.5416   0.8478   0.6997     N
N        0.542   0.5794   0.0984     N
N        0.542   0.9206   0.5984     N
H        0.549   0.6286   0.8597     H
H        0.549   0.8714   0.3597     H
H       0.5614    0.185   0.4705     H
H       0.5614    0.315   0.9705     H
N       0.5794   0.0984    0.542     N
N       0.5794   0.4016    0.042     N
H       0.5858   0.7201   0.7674     H
H       0.5858   0.7799   0.2674     H
C       0.5915   0.1644   0.5105     C
C       0.5915   0.3356   0.0105     C
C       0.5919   0.5961   0.8655     C
C       0.5919   0.9039   0.3655     C
C       0.5961   0.6345   0.0919     C
C       0.5961   0.8655   0.5919     C
C       0.5979   0.6801   0.1542     C
C       0.5979   0.8199   0.6542     C
N       0.5984    0.542   0.9206     N
N       0.5984    0.958   0.4206     N
C       0.6281   0.7078   0.7359     C
C       0.6281   0.7922   0.2359     C
H       0.6286   0.6403    0.049     H
H       0.6286   0.8597    0.549     H
C       0.6345   0.0919   0.5961     C
C       0.6345   0.4081   0.0961     C
H       0.6403    0.049   0.6286     H
H       0.6403    0.451   0.1286     H
C       0.6447   0.7467   0.1728     C
C       0.6447   0.7533   0.6728     C
N       0.6522   0.1997   0.5416     N
N       0.6522   0.3003   0.0416     N
C       0.6542   0.5979   0.8199     C
C       0.6542   0.9021   0.3199     C
C       0.6644   0.5105   0.9085     C
C       0.6644   0.9895   0.4085     C
H       0.6706   0.2444    0.528     H
H       0.6706   0.2556    0.028     H
C       0.6728   0.6447   0.7533     C
C       0.6728   0.8553   0.2533     C
C       0.6801   0.1542   0.5979     C
C       0.6801   0.3458   0.0979     C
H        0.685   0.0295   0.4386     H
H        0.685   0.4705   0.9386     H
N       0.6997   0.5416   0.8478     N
N       0.6997   0.9584   0.3478     N
C       0.7078   0.7359   0.6281     C
C       0.7078   0.7641   0.1281     C
H       0.7201   0.7326   0.0858     H
H       0.7201   0.7674   0.5858     H
H       0.7326   0.0858   0.7201     H
H       0.7326   0.4142   0.2201     H
C       0.7359   0.6281   0.7078     C
C       0.7359   0.8719   0.2078     C
H       0.7444    0.528   0.8294     H
H       0.7444    0.972   0.3294     H
C       0.7467   0.1728   0.6447     C
C       0.7467   0.3272   0.1447     C
C       0.7533   0.6728   0.6447     C
C       0.7533   0.8272   0.1447     C
H       0.7556    0.028   0.8294     H
H       0.7556    0.472   0.3294     H
C       0.7641   0.1281   0.7078     C
C       0.7641   0.3719   0.2078     C
H       0.7674   0.5858   0.7201     H
H       0.7674   0.9142   0.2201     H
H       0.7799   0.2326   0.0858     H
H       0.7799   0.2674   0.5858     H
C       0.7922   0.2359   0.6281     C
C       0.7922   0.2641   0.1281     C
N       0.8003   0.0416   0.8478     N
N       0.8003   0.4584   0.3478     N
H        0.815   0.5295   0.4386     H
H        0.815   0.9705   0.9386     H
C       0.8199   0.6542   0.5979     C
C       0.8199   0.8458   0.0979     C
C       0.8272   0.1447   0.7533     C
C       0.8272   0.3553   0.2533     C
H       0.8294   0.7444    0.528     H
H       0.8294   0.7556    0.028     H
C       0.8356   0.0105   0.9085     C
C       0.8356   0.4895   0.4085     C
C       0.8458   0.0979   0.8199     C
C       0.8458   0.4021   0.3199     C
N       0.8478   0.6997   0.5416     N
N       0.8478   0.8003   0.0416     N
C       0.8553   0.2467   0.1728     C
C       0.8553   0.2533   0.6728     C
H       0.8597    0.549   0.6286     H
H       0.8597    0.951   0.1286     H
C       0.8655   0.5919   0.5961     C
C       0.8655   0.9081   0.0961     C
H       0.8714   0.1403    0.049     H
H       0.8714   0.3597    0.549     H
C       0.8719   0.2078   0.7359     C
C       0.8719   0.2922   0.2359     C
N       0.9016    0.042   0.9206     N
N       0.9016    0.458   0.4206     N
C       0.9021   0.1801   0.1542     C
C       0.9021   0.3199   0.6542     C
C       0.9039   0.1345   0.0919     C
C       0.9039   0.3655   0.5919     C
C       0.9081   0.0961   0.8655     C
C       0.9081   0.4039   0.3655     C
C       0.9085   0.6644   0.5105     C
C       0.9085   0.8356   0.0105     C
H       0.9142   0.2201   0.7674     H
H       0.9142   0.2799   0.2674     H
N       0.9206   0.5984    0.542     N
N       0.9206   0.9016    0.042     N
H       0.9386    0.685   0.4705     H
H       0.9386    0.815   0.9705     H
H        0.951   0.1286   0.8597     H
H        0.951   0.3714   0.3597     H
N        0.958   0.0794   0.0984     N
N        0.958   0.4206   0.5984     N
N       0.9584   0.1522   0.1997     N
N       0.9584   0.3478   0.6997     N
H       0.9705   0.5614    0.315     H
H       0.9705   0.9386    0.815     H
H        0.972   0.1706   0.2444     H
H        0.972   0.3294   0.7444     H
C       0.9895   0.0915   0.1644     C
C       0.9895   0.4085   0.6644     C
