data_I
_chemical_name_common  '/home/zhangsd/repos/MofS-CGCNN/ML/data/SSD/clean_cifs/TOJLOT_clean'
_cell_length_a 18.24100
_cell_length_b 18.24100
_cell_length_c 18.24100
_cell_angle_alpha 90.00000
_cell_angle_beta  90.00000
_cell_angle_gamma 90.00000
_space_group_name_H-M_alt      'P 1'


loop_
_space_group_symop_operation_xyz
  'x, y, z' 

loop_
_atom_site_label
_atom_site_fract_x
_atom_site_fract_y
_atom_site_fract_z
_atom_site_type_symbol
C       0.0053   0.5812   0.5812     C
C       0.0053   0.9188   0.9188     C
N       0.0211   0.0211   0.1126     N
N       0.0211   0.1126   0.0211     N
N       0.0211   0.3874   0.4789     N
N       0.0211   0.4789   0.3874     N
H       0.0451   0.2018   0.9183     H
H       0.0451   0.2982   0.5817     H
H       0.0451   0.5817   0.2982     H
H       0.0451   0.9183   0.2018     H
C       0.0689    0.616    0.616     C
C       0.0689    0.884    0.884     C
C       0.0812   0.0812   0.9947     C
C       0.0812   0.4188   0.5053     C
C       0.0812   0.5053   0.4188     C
C       0.0812   0.9947   0.0812     C
H       0.0817   0.5451   0.7018     H
H       0.0817   0.7018   0.5451     H
H       0.0817   0.7982   0.9549     H
H       0.0817   0.9549   0.7982     H
C       0.0889   0.1805   0.8999     C
C       0.0889   0.3195   0.6001     C
C       0.0889   0.6001   0.3195     C
C       0.0889   0.8999   0.1805     C
C       0.1001   0.5889   0.6805     C
C       0.1001   0.6805   0.5889     C
C       0.1001   0.8195   0.9111     C
C       0.1001   0.9111   0.8195     C
H        0.104   0.2445   0.6771     H
H        0.104   0.2555   0.8229     H
H        0.104   0.6771   0.2445     H
H        0.104   0.8229   0.2555     H
N       0.1126   0.0211   0.0211     N
N       0.1126   0.4789   0.4789     N
C        0.116    0.116   0.9311     C
C        0.116    0.384   0.5689     C
C        0.116   0.5689    0.384     C
C        0.116   0.9311    0.116     C
C       0.1247   0.2126   0.8439     C
C       0.1247   0.2874   0.6561     C
C       0.1247   0.6561   0.2874     C
C       0.1247   0.8439   0.2126     C
C       0.1561   0.6247   0.7126     C
C       0.1561   0.7126   0.6247     C
C       0.1561   0.7874   0.8753     C
C       0.1561   0.8753   0.7874     C
H       0.1771    0.604   0.7555     H
H       0.1771   0.7445    0.896     H
H       0.1771   0.7555    0.604     H
H       0.1771    0.896   0.7445     H
C       0.1805   0.0889   0.8999     C
C       0.1805   0.4111   0.6001     C
C       0.1805   0.6001   0.4111     C
C       0.1805   0.8999   0.0889     C
N       0.1839   0.6875   0.6875     N
N       0.1839   0.8125   0.8125     N
N       0.1875   0.1875   0.8161     N
N       0.1875   0.3125   0.6839     N
N       0.1875   0.6839   0.3125     N
N       0.1875   0.8161   0.1875     N
H       0.2018   0.0451   0.9183     H
H       0.2018   0.4549   0.5817     H
H       0.2018   0.5817   0.4549     H
H       0.2018   0.9183   0.0451     H
C       0.2126   0.1247   0.8439     C
C       0.2126   0.3753   0.6561     C
C       0.2126   0.6561   0.3753     C
C       0.2126   0.8439   0.1247     C
H       0.2445    0.104   0.6771     H
H       0.2445    0.396   0.8229     H
H       0.2445   0.6771    0.104     H
H       0.2445   0.8229    0.396     H
Cu        0.25     0.25     0.75    Cu
Cu        0.25     0.75     0.25    Cu
Cu        0.25     0.75     0.75    Cu
H       0.2555    0.104   0.8229     H
H       0.2555    0.396   0.6771     H
H       0.2555   0.6771    0.396     H
H       0.2555   0.8229    0.104     H
C       0.2874   0.1247   0.6561     C
C       0.2874   0.3753   0.8439     C
C       0.2874   0.6561   0.1247     C
C       0.2874   0.8439   0.3753     C
H       0.2982   0.0451   0.5817     H
H       0.2982   0.4549   0.9183     H
H       0.2982   0.5817   0.0451     H
H       0.2982   0.9183   0.4549     H
N       0.3125   0.1875   0.6839     N
N       0.3125   0.3125   0.8161     N
N       0.3125   0.6839   0.1875     N
N       0.3125   0.8161   0.3125     N
N       0.3161   0.6875   0.8125     N
N       0.3161   0.8125   0.6875     N
C       0.3195   0.0889   0.6001     C
C       0.3195   0.4111   0.8999     C
C       0.3195   0.6001   0.0889     C
C       0.3195   0.8999   0.4111     C
H       0.3229    0.604   0.7445     H
H       0.3229   0.7445    0.604     H
H       0.3229   0.7555    0.896     H
H       0.3229    0.896   0.7555     H
C       0.3439   0.6247   0.7874     C
C       0.3439   0.7126   0.8753     C
C       0.3439   0.7874   0.6247     C
C       0.3439   0.8753   0.7126     C
C       0.3753   0.2126   0.6561     C
C       0.3753   0.2874   0.8439     C
C       0.3753   0.6561   0.2126     C
C       0.3753   0.8439   0.2874     C
C        0.384    0.116   0.5689     C
C        0.384    0.384   0.9311     C
C        0.384   0.5689    0.116     C
C        0.384   0.9311    0.384     C
N       0.3874   0.0211   0.4789     N
N       0.3874   0.4789   0.0211     N
H        0.396   0.2445   0.8229     H
H        0.396   0.2555   0.6771     H
H        0.396   0.6771   0.2555     H
H        0.396   0.8229   0.2445     H
C       0.3999   0.5889   0.8195     C
C       0.3999   0.6805   0.9111     C
C       0.3999   0.8195   0.5889     C
C       0.3999   0.9111   0.6805     C
C       0.4111   0.1805   0.6001     C
C       0.4111   0.3195   0.8999     C
C       0.4111   0.6001   0.1805     C
C       0.4111   0.8999   0.3195     C
H       0.4183   0.5451   0.7982     H
H       0.4183   0.7018   0.9549     H
H       0.4183   0.7982   0.5451     H
H       0.4183   0.9549   0.7018     H
C       0.4188   0.0812   0.5053     C
C       0.4188   0.4188   0.9947     C
C       0.4188   0.5053   0.0812     C
C       0.4188   0.9947   0.4188     C
C       0.4311    0.616    0.884     C
C       0.4311    0.884    0.616     C
H       0.4549   0.2018   0.5817     H
H       0.4549   0.2982   0.9183     H
H       0.4549   0.5817   0.2018     H
H       0.4549   0.9183   0.2982     H
N       0.4789   0.0211   0.3874     N
N       0.4789   0.1126   0.4789     N
N       0.4789   0.3874   0.0211     N
N       0.4789   0.4789   0.1126     N
C       0.4947   0.5812   0.9188     C
C       0.4947   0.9188   0.5812     C
C       0.5053   0.0812   0.4188     C
C       0.5053   0.4188   0.0812     C
N       0.5211   0.5211   0.8874     N
N       0.5211   0.6126   0.9789     N
N       0.5211   0.8874   0.5211     N
N       0.5211   0.9789   0.6126     N
H       0.5451   0.0817   0.7018     H
H       0.5451   0.4183   0.7982     H
H       0.5451   0.7018   0.0817     H
H       0.5451   0.7982   0.4183     H
C       0.5689    0.116    0.384     C
C       0.5689    0.384    0.116     C
C       0.5812   0.0053   0.5812     C
C       0.5812   0.4947   0.9188     C
C       0.5812   0.5812   0.0053     C
C       0.5812   0.9188   0.4947     C
H       0.5817   0.0451   0.2982     H
H       0.5817   0.2018   0.4549     H
H       0.5817   0.2982   0.0451     H
H       0.5817   0.4549   0.2018     H
C       0.5889   0.1001   0.6805     C
C       0.5889   0.3999   0.8195     C
C       0.5889   0.6805   0.1001     C
C       0.5889   0.8195   0.3999     C
C       0.6001   0.0889   0.3195     C
C       0.6001   0.1805   0.4111     C
C       0.6001   0.3195   0.0889     C
C       0.6001   0.4111   0.1805     C
H        0.604   0.1771   0.7555     H
H        0.604   0.3229   0.7445     H
H        0.604   0.7445   0.3229     H
H        0.604   0.7555   0.1771     H
N       0.6126   0.5211   0.9789     N
N       0.6126   0.9789   0.5211     N
C        0.616   0.0689    0.616     C
C        0.616   0.4311    0.884     C
C        0.616    0.616   0.0689     C
C        0.616    0.884   0.4311     C
C       0.6247   0.1561   0.7126     C
C       0.6247   0.3439   0.7874     C
C       0.6247   0.7126   0.1561     C
C       0.6247   0.7874   0.3439     C
C       0.6561   0.1247   0.2874     C
C       0.6561   0.2126   0.3753     C
C       0.6561   0.2874   0.1247     C
C       0.6561   0.3753   0.2126     C
H       0.6771    0.104   0.2445     H
H       0.6771   0.2445    0.104     H
H       0.6771   0.2555    0.396     H
H       0.6771    0.396   0.2555     H
C       0.6805   0.1001   0.5889     C
C       0.6805   0.3999   0.9111     C
C       0.6805   0.5889   0.1001     C
C       0.6805   0.9111   0.3999     C
N       0.6839   0.1875   0.3125     N
N       0.6839   0.3125   0.1875     N
N       0.6875   0.1839   0.6875     N
N       0.6875   0.3161   0.8125     N
N       0.6875   0.6875   0.1839     N
N       0.6875   0.8125   0.3161     N
H       0.7018   0.0817   0.5451     H
H       0.7018   0.4183   0.9549     H
H       0.7018   0.5451   0.0817     H
H       0.7018   0.9549   0.4183     H
C       0.7126   0.1561   0.6247     C
C       0.7126   0.3439   0.8753     C
C       0.7126   0.6247   0.1561     C
C       0.7126   0.8753   0.3439     C
H       0.7445   0.1771    0.896     H
H       0.7445   0.3229    0.604     H
H       0.7445    0.604   0.3229     H
H       0.7445    0.896   0.1771     H
Cu        0.75     0.25     0.25    Cu
Cu        0.75     0.25     0.75    Cu
Cu        0.75     0.75     0.25    Cu
H       0.7555   0.1771    0.604     H
H       0.7555   0.3229    0.896     H
H       0.7555    0.604   0.1771     H
H       0.7555    0.896   0.3229     H
C       0.7874   0.1561   0.8753     C
C       0.7874   0.3439   0.6247     C
C       0.7874   0.6247   0.3439     C
C       0.7874   0.8753   0.1561     C
H       0.7982   0.0817   0.9549     H
H       0.7982   0.4183   0.5451     H
H       0.7982   0.5451   0.4183     H
H       0.7982   0.9549   0.0817     H
N       0.8125   0.1839   0.8125     N
N       0.8125   0.3161   0.6875     N
N       0.8125   0.6875   0.3161     N
N       0.8125   0.8125   0.1839     N
N       0.8161   0.1875   0.1875     N
N       0.8161   0.3125   0.3125     N
C       0.8195   0.1001   0.9111     C
C       0.8195   0.3999   0.5889     C
C       0.8195   0.5889   0.3999     C
C       0.8195   0.9111   0.1001     C
H       0.8229    0.104   0.2555     H
H       0.8229   0.2445    0.396     H
H       0.8229   0.2555    0.104     H
H       0.8229    0.396   0.2445     H
C       0.8439   0.1247   0.2126     C
C       0.8439   0.2126   0.1247     C
C       0.8439   0.2874   0.3753     C
C       0.8439   0.3753   0.2874     C
C       0.8753   0.1561   0.7874     C
C       0.8753   0.3439   0.7126     C
C       0.8753   0.7126   0.3439     C
C       0.8753   0.7874   0.1561     C
C        0.884   0.0689    0.884     C
C        0.884   0.4311    0.616     C
C        0.884    0.616   0.4311     C
C        0.884    0.884   0.0689     C
N       0.8874   0.5211   0.5211     N
N       0.8874   0.9789   0.9789     N
H        0.896   0.1771   0.7445     H
H        0.896   0.3229   0.7555     H
H        0.896   0.7445   0.1771     H
H        0.896   0.7555   0.3229     H
C       0.8999   0.0889   0.1805     C
C       0.8999   0.1805   0.0889     C
C       0.8999   0.3195   0.4111     C
C       0.8999   0.4111   0.3195     C
C       0.9111   0.1001   0.8195     C
C       0.9111   0.3999   0.6805     C
C       0.9111   0.6805   0.3999     C
C       0.9111   0.8195   0.1001     C
H       0.9183   0.0451   0.2018     H
H       0.9183   0.2018   0.0451     H
H       0.9183   0.2982   0.4549     H
H       0.9183   0.4549   0.2982     H
C       0.9188   0.0053   0.9188     C
C       0.9188   0.4947   0.5812     C
C       0.9188   0.5812   0.4947     C
C       0.9188   0.9188   0.0053     C
C       0.9311    0.116    0.116     C
C       0.9311    0.384    0.384     C
H       0.9549   0.0817   0.7982     H
H       0.9549   0.4183   0.7018     H
H       0.9549   0.7018   0.4183     H
H       0.9549   0.7982   0.0817     H
N       0.9789   0.5211   0.6126     N
N       0.9789   0.6126   0.5211     N
N       0.9789   0.8874   0.9789     N
N       0.9789   0.9789   0.8874     N
C       0.9947   0.0812   0.0812     C
C       0.9947   0.4188   0.4188     C
