data_I
_chemical_name_common  '/home/zhangsd/repos/MofS-CGCNN/ML/data/SSD/clean_cifs/TONLOY_clean'
_cell_length_a 12.07360
_cell_length_b 16.17150
_cell_length_c 16.17150
_cell_angle_alpha 65.97730
_cell_angle_beta  75.58960
_cell_angle_gamma 104.41000
_space_group_name_H-M_alt      'P 1'


loop_
_space_group_symop_operation_xyz
  'x, y, z' 

loop_
_atom_site_label
_atom_site_fract_x
_atom_site_fract_y
_atom_site_fract_z
_atom_site_type_symbol
Cd       0.007    0.514    0.743    Cd
H       0.0073   0.9522   0.3636     H
C        0.008   0.6451   0.9341     C
H       0.0091   0.1405   0.4693     H
C       0.0136   0.1593   0.2602     C
H       0.0216   0.3902   0.4693     H
O       0.0326   0.2183   0.2883     O
O       0.0448   0.3671   0.8513     O
N       0.0459   0.4487   0.1297     N
C       0.0495   0.6036    0.883     C
C       0.0541   0.6036   0.5134     C
H       0.0551   0.6842   0.9522     H
C       0.0579   0.0659   0.5792     C
C       0.0675    0.117   0.4866     C
H       0.0857   0.2459   0.6091     H
H       0.0866   0.3673   0.6414     H
N       0.0972   0.5513   0.5784     N
O       0.1039   0.1487   0.2184     O
N       0.1165    0.381   0.0452     N
H       0.1278   0.2932   0.7119     H
H       0.1291   0.6842   0.3636     H
H       0.1314   0.6098   0.8595     H
C       0.1363   0.8847   0.6995     C
C       0.1371   0.6451   0.4208     C
C       0.1457   0.4195   0.8407     C
C       0.1462   0.4385   0.0853     C
C        0.153    0.344   0.6442     C
H       0.1602    0.855   0.7541     H
H       0.1603   0.2881   0.0051     H
N       0.1617   0.0452   0.5738     N
C       0.1642   0.3005   0.5842     C
H       0.1654   0.0051   0.7068     H
H       0.1687   0.8665   0.6513     H
N       0.1756   0.1297   0.4216     N
O       0.1777   0.6329   0.2184     O
O       0.1791   0.4934   0.2883     O
H         0.18   0.3487   0.5178     H
O       0.1857   0.5066   0.7817     O
C        0.191   0.9882    0.656     C
H       0.1948    0.855   0.3909     H
H       0.1978   0.8665   0.4822     H
C       0.2028   0.3558   0.9882     C
C       0.2077   0.5615   0.5238     C
H       0.2193   0.6327   0.0087     H
C       0.2262   0.5805   0.2602     C
H        0.228   0.0087   0.3586     H
C       0.2315   0.0853   0.4762     C
N       0.2355    0.619   0.4262     N
C       0.2484   0.8847   0.4158     C
Cd        0.25    0.257    0.257    Cd
C       0.2516   0.4158   0.8847     C
N       0.2645   0.4262    0.619     N
C       0.2685   0.4762   0.0853     C
H        0.272   0.3586   0.0087     H
C       0.2738   0.2602   0.5805     C
H       0.2807   0.0087   0.6327     H
C       0.2923   0.5238   0.5615     C
C       0.2972   0.9882   0.3558     C
H       0.3022   0.4822   0.8665     H
H       0.3052   0.3909    0.855     H
C        0.309    0.656   0.9882     C
O       0.3143   0.7817   0.5066     O
H         0.32   0.5178   0.3487     H
O       0.3209   0.2883   0.4934     O
O       0.3223   0.2184   0.6329     O
N       0.3244   0.4216   0.1297     N
H       0.3313   0.6513   0.8665     H
H       0.3346   0.7068   0.0051     H
C       0.3358   0.5842   0.3005     C
N       0.3383   0.5738   0.0452     N
H       0.3397   0.0051   0.2881     H
H       0.3398   0.7541    0.855     H
C        0.347   0.6442    0.344     C
C       0.3538   0.0853   0.4385     C
C       0.3543   0.8407   0.4195     C
C       0.3629   0.4208   0.6451     C
C       0.3637   0.6995   0.8847     C
H       0.3686   0.8595   0.6098     H
H       0.3709   0.3636   0.6842     H
H       0.3722   0.7119   0.2932     H
N       0.3835   0.0452    0.381     N
O       0.3961   0.2184   0.1487     O
N       0.4028   0.5784   0.5513     N
H       0.4134   0.6414   0.3673     H
H       0.4143   0.6091   0.2459     H
C       0.4325   0.4866    0.117     C
C       0.4421   0.5792   0.0659     C
H       0.4449   0.9522   0.6842     H
C       0.4459   0.5134   0.6036     C
C       0.4505    0.883   0.6036     C
N       0.4541   0.1297   0.4487     N
O       0.4552   0.8513   0.3671     O
O       0.4674   0.2883   0.2183     O
H       0.4784   0.4693   0.3902     H
C       0.4864   0.2602   0.1593     C
H       0.4909   0.4693   0.1405     H
C        0.492   0.9341   0.6451     C
H       0.4927   0.3636   0.9522     H
Cd       0.493    0.743    0.514    Cd
Cd       0.507    0.257    0.486    Cd
H       0.5073   0.6364   0.0478     H
C        0.508   0.0659   0.3549     C
H       0.5091   0.5307   0.8595     H
C       0.5136   0.7398   0.8407     C
H       0.5216   0.5307   0.6098     H
O       0.5326   0.7117   0.7817     O
O       0.5448   0.1487   0.6329     O
N       0.5459   0.8703   0.5513     N
C       0.5495    0.117   0.3964     C
C       0.5541   0.4866   0.3964     C
H       0.5551   0.0478   0.3158     H
C       0.5579   0.4208   0.9341     C
C       0.5675   0.5134    0.883     C
H       0.5857   0.3909   0.7541     H
H       0.5866   0.3586   0.6327     H
N       0.5972   0.4216   0.4487     N
O       0.6039   0.7816   0.8513     O
N       0.6165   0.9548    0.619     N
H       0.6278   0.2881   0.7068     H
H       0.6291   0.6364   0.3158     H
H       0.6314   0.1405   0.3902     H
C       0.6363   0.3005   0.1153     C
C       0.6371   0.5792   0.3549     C
C       0.6457   0.1593   0.5805     C
C       0.6462   0.9147   0.5615     C
C        0.653   0.3558    0.656     C
H       0.6602   0.2459    0.145     H
H       0.6603   0.9949   0.7119     H
N       0.6617   0.4262   0.9548     N
C       0.6642   0.4158   0.6995     C
H       0.6654   0.2932   0.9949     H
H       0.6687   0.3487   0.1335     H
N       0.6756   0.5784   0.8703     N
O       0.6777   0.7816   0.3671     O
O       0.6791   0.7117   0.5066     O
H         0.68   0.4822   0.6513     H
O       0.6857   0.2183   0.4934     O
C        0.691    0.344   0.0118     C
H       0.6948   0.6091    0.145     H
H       0.6978   0.5178   0.1335     H
C       0.7028   0.0118   0.6442     C
C       0.7077   0.4762   0.4385     C
H       0.7193   0.9913   0.3673     H
C       0.7262   0.7398   0.4195     C
H        0.728   0.6414   0.9913     H
C       0.7315   0.5238   0.9147     C
N       0.7355   0.5738    0.381     N
C       0.7484   0.5842   0.1153     C
Cd        0.75    0.743    0.743    Cd
C       0.7516   0.1153   0.5842     C
N       0.7645    0.381   0.5738     N
C       0.7685   0.9147   0.5238     C
H        0.772   0.9913   0.6414     H
C       0.7738   0.4195   0.7398     C
H       0.7807   0.3673   0.9913     H
C       0.7923   0.4385   0.4762     C
C       0.7972   0.6442   0.0118     C
H       0.8022   0.1335   0.5178     H
H       0.8052    0.145   0.6091     H
C        0.809   0.0118    0.344     C
O       0.8143   0.4934   0.2183     O
H         0.82   0.6513   0.4822     H
O       0.8209   0.5066   0.7117     O
O       0.8223   0.3671   0.7816     O
N       0.8244   0.8703   0.5784     N
H       0.8313   0.1335   0.3487     H
H       0.8346   0.9949   0.2932     H
C       0.8358   0.6995   0.4158     C
N       0.8383   0.9548   0.4262     N
H       0.8397   0.7119   0.9949     H
H       0.8398    0.145   0.2459     H
C        0.847    0.656   0.3558     C
C       0.8538   0.5615   0.9147     C
C       0.8543   0.5805   0.1593     C
C       0.8629   0.3549   0.5792     C
C       0.8637   0.1153   0.3005     C
H       0.8686   0.3902   0.1405     H
H       0.8709   0.3158   0.6364     H
H       0.8722   0.7068   0.2881     H
N       0.8835    0.619   0.9548     N
O       0.8961   0.8513   0.7816     O
N       0.9028   0.4487   0.4216     N
H       0.9134   0.6327   0.3586     H
H       0.9143   0.7541   0.3909     H
C       0.9325    0.883   0.5134     C
C       0.9421   0.9341   0.4208     C
H       0.9449   0.3158   0.0478     H
C       0.9459   0.3964   0.4866     C
C       0.9505   0.3964    0.117     C
N       0.9541   0.5513   0.8703     N
O       0.9552   0.6329   0.1487     O
O       0.9674   0.7817   0.7117     O
H       0.9784   0.6098   0.5307     H
C       0.9864   0.8407   0.7398     C
H       0.9909   0.8595   0.5307     H
C        0.992   0.3549   0.0659     C
H       0.9927   0.0478   0.6364     H
Cd       0.993    0.486    0.257    Cd
