data_I
_chemical_name_common  '/home/zhangsd/repos/MofS-CGCNN/ML/data/SSD/clean_cifs/TOPKIT_clean'
_cell_length_a 18.55900
_cell_length_b 18.55900
_cell_length_c 10.98000
_cell_angle_alpha 90.00000
_cell_angle_beta  90.00000
_cell_angle_gamma 120.00000
_space_group_name_H-M_alt      'P 1'


loop_
_space_group_symop_operation_xyz
  'x, y, z' 

loop_
_atom_site_label
_atom_site_fract_x
_atom_site_fract_y
_atom_site_fract_z
_atom_site_type_symbol
O      0.02919   0.4402   0.3438     O
O      0.02919  0.58899   0.3438     O
Cu     0.04766  0.52383   0.5981    Cu
S       0.0586   0.2277   0.0489     S
S       0.0586   0.8309   0.0489     S
H       0.0751   0.3668   0.1993     H
H       0.0751   0.7083   0.1993     H
C      0.08215   0.1643   0.1671     C
C      0.08215  0.91785   0.1671     C
C       0.0912   0.4504   0.4059     C
C       0.0912   0.6408   0.4059     C
O      0.10983  0.48137   0.5098     O
O      0.10983  0.62846   0.5098     O
C       0.1267   0.3814    0.237     C
C       0.1267   0.7453    0.237     C
C       0.1468   0.4232   0.3476     C
C       0.1468   0.7236   0.3476     C
C       0.1588   0.3176   0.0549     C
C       0.1588   0.8412   0.0549     C
C       0.1643  0.08215   0.8329     C
S       0.1691   0.2277   0.0489     S
S       0.1691   0.9414   0.0489     S
C      0.18045   0.3609   0.1808     C
C      0.18045  0.81955   0.1808     C
C       0.2217   0.4434   0.4035     C
C       0.2217   0.7783   0.4035     C
S       0.2277   0.0586   0.9511     S
S       0.2277   0.1691   0.9511     S
H       0.2355    0.471     0.48     H
H       0.2355   0.7645     0.48     H
C       0.2547   0.3814    0.237     C
C       0.2547   0.8733    0.237     C
C       0.2764   0.4232   0.3476     C
C       0.2764   0.8532   0.3476     C
H       0.2917   0.3668   0.1993     H
H       0.2917   0.9249   0.1993     H
C       0.3176   0.1588   0.9451     C
C       0.3592   0.4504   0.4059     C
C       0.3592   0.9088   0.4059     C
C       0.3609  0.18045   0.8192     C
H       0.3668   0.0751   0.8007     H
H       0.3668   0.2917   0.8007     H
O      0.37154  0.48137   0.5098     O
O      0.37154  0.89017   0.5098     O
C       0.3814   0.1267    0.763     C
C       0.3814   0.2547    0.763     C
O      0.41101   0.4402   0.3438     O
O      0.41101  0.97081   0.3438     O
C       0.4232   0.1468   0.6524     C
C       0.4232   0.2764   0.6524     C
O       0.4402  0.02919   0.6562     O
O       0.4402  0.41101   0.6562     O
C       0.4434   0.2217   0.5965     C
C       0.4504   0.0912   0.5941     C
C       0.4504   0.3592   0.5941     C
H        0.471   0.2355     0.52     H
Cu     0.47617  0.52383   0.5981    Cu
Cu     0.47617  0.95234   0.5981    Cu
O      0.48137  0.10983   0.4902     O
O      0.48137  0.37154   0.4902     O
O      0.51863  0.62846   0.5098     O
O      0.51863  0.89017   0.5098     O
Cu     0.52383  0.04766   0.4019    Cu
Cu     0.52383  0.47617   0.4019    Cu
H        0.529   0.7645     0.48     H
C       0.5496   0.6408   0.4059     C
C       0.5496   0.9088   0.4059     C
C       0.5566   0.7783   0.4035     C
O       0.5598  0.58899   0.3438     O
O       0.5598  0.97081   0.3438     O
C       0.5768   0.7236   0.3476     C
C       0.5768   0.8532   0.3476     C
O      0.58899  0.02919   0.6562     O
O      0.58899   0.5598   0.6562     O
C       0.6186   0.7453    0.237     C
C       0.6186   0.8733    0.237     C
O      0.62846  0.10983   0.4902     O
O      0.62846  0.51863   0.4902     O
H       0.6332   0.7083   0.1993     H
H       0.6332   0.9249   0.1993     H
C       0.6391  0.81955   0.1808     C
C       0.6408   0.0912   0.5941     C
C       0.6408   0.5496   0.5941     C
C       0.6824   0.8412   0.0549     C
H       0.7083   0.0751   0.8007     H
H       0.7083   0.6332   0.8007     H
C       0.7236   0.1468   0.6524     C
C       0.7236   0.5768   0.6524     C
C       0.7453   0.1267    0.763     C
C       0.7453   0.6186    0.763     C
H       0.7645   0.2355     0.52     H
H       0.7645    0.529     0.52     H
S       0.7723   0.8309   0.0489     S
S       0.7723   0.9414   0.0489     S
C       0.7783   0.2217   0.5965     C
C       0.7783   0.5566   0.5965     C
C      0.81955  0.18045   0.8192     C
C      0.81955   0.6391   0.8192     C
S       0.8309   0.0586   0.9511     S
S       0.8309   0.7723   0.9511     S
C       0.8357  0.91785   0.1671     C
C       0.8412   0.1588   0.9451     C
C       0.8412   0.6824   0.9451     C
C       0.8532   0.2764   0.6524     C
C       0.8532   0.5768   0.6524     C
C       0.8733   0.2547    0.763     C
C       0.8733   0.6186    0.763     C
O      0.89017  0.37154   0.4902     O
O      0.89017  0.51863   0.4902     O
C       0.9088   0.3592   0.5941     C
C       0.9088   0.5496   0.5941     C
C      0.91785  0.08215   0.8329     C
C      0.91785   0.8357   0.8329     C
H       0.9249   0.2917   0.8007     H
H       0.9249   0.6332   0.8007     H
S       0.9414   0.1691   0.9511     S
S       0.9414   0.7723   0.9511     S
Cu     0.95234  0.47617   0.4019    Cu
O      0.97081  0.41101   0.6562     O
O      0.97081   0.5598   0.6562     O
