data_I
_chemical_name_common  '/home/zhangsd/repos/MofS-CGCNN/ML/data/SSD/clean_cifs/TORJAN_clean'
_cell_length_a 10.91300
_cell_length_b 16.54200
_cell_length_c 19.79300
_cell_angle_alpha 90.00000
_cell_angle_beta  90.00000
_cell_angle_gamma 90.00000
_space_group_name_H-M_alt      'P 1'


loop_
_space_group_symop_operation_xyz
  'x, y, z' 

loop_
_atom_site_label
_atom_site_fract_x
_atom_site_fract_y
_atom_site_fract_z
_atom_site_type_symbol
O       0.0069     0.75   0.1679     O
H       0.0137     0.25   0.0698     H
C       0.0158   0.6761   0.5045     C
C       0.0158   0.8239   0.5045     C
C       0.0181   0.5754   0.6009     C
C       0.0181   0.9246   0.6009     C
H       0.0242   0.0099   0.6729     H
H       0.0242   0.4901   0.6729     H
H       0.0257   0.6709    0.456     H
H       0.0257   0.8291    0.456     H
H       0.0396     0.75   0.0427     H
H       0.0416   0.1065    0.378     H
H       0.0416   0.3935    0.378     H
C       0.0425     0.25   0.9697     C
C       0.0576   0.5053   0.6316     C
C       0.0576   0.9947   0.6316     C
C        0.065   0.6006   0.5392     C
C        0.065   0.8994   0.5392     C
H        0.071   0.1816   0.4859     H
H        0.071   0.3184   0.4859     H
C        0.075     0.25   0.0371     C
N       0.0823     0.75   0.5287     N
C       0.1027     0.25   0.8466     C
C       0.1337     0.25   0.9207     C
O       0.1357   0.1455   0.6869     O
O       0.1357   0.3545   0.6869     O
O       0.1431     0.25   0.1732     O
C       0.1469   0.0432   0.6015     C
C       0.1469   0.4568   0.6015     C
H       0.1537     0.75   0.6914     H
C       0.1556   0.5529   0.5094     C
C       0.1556   0.9471   0.5094     C
O       0.1593     0.75   0.6501     O
H       0.1825     0.75   0.4058     H
C       0.1886   0.1185   0.6341     C
O       0.1886     0.25   0.8056     O
C       0.1886   0.3815   0.6341     C
H       0.1897   0.5685   0.4684     H
H       0.1897   0.9315   0.4684     H
C        0.195   0.0171   0.5402     C
C        0.195   0.4829   0.5402     C
C       0.1975     0.25   0.0576     C
Tb     0.20671     0.75  0.20436    Tb
C       0.2105     0.75    0.509     C
O       0.2193   0.6549   0.1112     O
O       0.2193   0.8451   0.1112     O
C       0.2229     0.25   0.1325     C
C       0.2431     0.75   0.4388     C
H       0.2445   0.5479   0.0194     H
H       0.2445   0.9521   0.0194     H
H       0.2555   0.0479   0.5194     H
H       0.2555   0.4521   0.5194     H
C       0.2569     0.25   0.9388     C
C       0.2771     0.75   0.6325     C
O       0.2807   0.1549   0.6112     O
O       0.2807   0.3451   0.6112     O
C       0.2895     0.25    0.009     C
Tb     0.29329     0.25  0.70436    Tb
C       0.3025     0.75   0.5576     C
C        0.305   0.5171   0.0402     C
C        0.305   0.9829   0.0402     C
H       0.3103   0.0685   0.9684     H
H       0.3103   0.4315   0.9684     H
C       0.3114   0.6185   0.1341     C
O       0.3114     0.75   0.3056     O
C       0.3114   0.8815   0.1341     C
H       0.3175     0.25   0.9058     H
O       0.3407     0.25   0.1501     O
C       0.3444   0.0529   0.0094     C
C       0.3444   0.4471   0.0094     C
H       0.3463     0.25   0.1914     H
C       0.3531   0.5432   0.1015     C
C       0.3531   0.9568   0.1015     C
O       0.3569     0.75   0.6732     O
O       0.3643   0.6455   0.1869     O
O       0.3643   0.8545   0.1869     O
C       0.3663     0.75   0.4207     C
C       0.3973     0.75   0.3466     C
N       0.4177     0.25   0.0287     N
C        0.425     0.75   0.5371     C
H        0.429   0.6816   0.9859     H
H        0.429   0.8184   0.9859     H
C        0.435   0.1006   0.0392     C
C        0.435   0.3994   0.0392     C
C       0.4424   0.0053   0.1316     C
C       0.4424   0.4947   0.1316     C
C       0.4575     0.75   0.4697     C
H       0.4584   0.6065    0.878     H
H       0.4584   0.8935    0.878     H
H       0.4604     0.25   0.5427     H
H       0.4743   0.1709    0.956     H
H       0.4743   0.3291    0.956     H
H       0.4758   0.5099   0.1729     H
H       0.4758   0.9901   0.1729     H
C       0.4819   0.0754   0.1009     C
C       0.4819   0.4246   0.1009     C
C       0.4842   0.1761   0.0045     C
C       0.4842   0.3239   0.0045     C
H       0.4863     0.75   0.5698     H
O       0.4931     0.25   0.6679     O
O       0.5069     0.75   0.3321     O
H       0.5137     0.25   0.4302     H
C       0.5158   0.6761   0.9955     C
C       0.5158   0.8239   0.9955     C
C       0.5181   0.5754   0.8991     C
C       0.5181   0.9246   0.8991     C
H       0.5242   0.0099   0.8271     H
H       0.5242   0.4901   0.8271     H
H       0.5257   0.6709    0.044     H
H       0.5257   0.8291    0.044     H
H       0.5396     0.75   0.4573     H
H       0.5416   0.1065    0.122     H
H       0.5416   0.3935    0.122     H
C       0.5425     0.25   0.5303     C
C       0.5576   0.5053   0.8684     C
C       0.5576   0.9947   0.8684     C
C        0.565   0.6006   0.9608     C
C        0.565   0.8994   0.9608     C
H        0.571   0.1816   0.0141     H
H        0.571   0.3184   0.0141     H
C        0.575     0.25   0.4629     C
N       0.5823     0.75   0.9713     N
C       0.6027     0.25   0.6534     C
C       0.6337     0.25   0.5793     C
O       0.6357   0.1455   0.8131     O
O       0.6357   0.3545   0.8131     O
O       0.6431     0.25   0.3268     O
C       0.6469   0.0432   0.8985     C
C       0.6469   0.4568   0.8985     C
H       0.6537     0.75   0.8086     H
C       0.6556   0.5529   0.9906     C
C       0.6556   0.9471   0.9906     C
O       0.6593     0.75   0.8499     O
H       0.6825     0.75   0.0942     H
C       0.6886   0.1185   0.8659     C
O       0.6886     0.25   0.6944     O
C       0.6886   0.3815   0.8659     C
H       0.6897   0.5685   0.0316     H
H       0.6897   0.9315   0.0316     H
C        0.695   0.0171   0.9598     C
C        0.695   0.4829   0.9598     C
C       0.6975     0.25   0.4424     C
Tb     0.70671     0.75  0.29564    Tb
C       0.7105     0.75    0.991     C
O       0.7193   0.6549   0.3888     O
O       0.7193   0.8451   0.3888     O
C       0.7229     0.25   0.3675     C
C       0.7431     0.75   0.0612     C
H       0.7445   0.5479   0.4806     H
H       0.7445   0.9521   0.4806     H
H       0.7555   0.0479   0.9806     H
H       0.7555   0.4521   0.9806     H
C       0.7569     0.25   0.5612     C
C       0.7771     0.75   0.8675     C
O       0.7807   0.1549   0.8888     O
O       0.7807   0.3451   0.8888     O
C       0.7895     0.25    0.491     C
Tb     0.79329     0.25  0.79564    Tb
C       0.8025     0.75   0.9424     C
C        0.805   0.5171   0.4598     C
C        0.805   0.9829   0.4598     C
H       0.8103   0.0685   0.5316     H
H       0.8103   0.4315   0.5316     H
C       0.8114   0.6185   0.3659     C
O       0.8114     0.75   0.1944     O
C       0.8114   0.8815   0.3659     C
H       0.8175     0.25   0.5942     H
O       0.8407     0.25   0.3499     O
C       0.8444   0.0529   0.4906     C
C       0.8444   0.4471   0.4906     C
H       0.8463     0.25   0.3086     H
C       0.8531   0.5432   0.3985     C
C       0.8531   0.9568   0.3985     C
O       0.8569     0.75   0.8268     O
O       0.8643   0.6455   0.3131     O
O       0.8643   0.8545   0.3131     O
C       0.8663     0.75   0.0793     C
C       0.8973     0.75   0.1534     C
N       0.9177     0.25   0.4713     N
C        0.925     0.75   0.9629     C
H        0.929   0.6816   0.5141     H
H        0.929   0.8184   0.5141     H
C        0.935   0.1006   0.4608     C
C        0.935   0.3994   0.4608     C
C       0.9424   0.0053   0.3684     C
C       0.9424   0.4947   0.3684     C
C       0.9575     0.75   0.0303     C
H       0.9584   0.6065    0.622     H
H       0.9584   0.8935    0.622     H
H       0.9604     0.25   0.9573     H
H       0.9743   0.1709    0.544     H
H       0.9743   0.3291    0.544     H
H       0.9758   0.5099   0.3271     H
H       0.9758   0.9901   0.3271     H
C       0.9819   0.0754   0.3991     C
C       0.9819   0.4246   0.3991     C
C       0.9842   0.1761   0.4955     C
C       0.9842   0.3239   0.4955     C
H       0.9863     0.75   0.9302     H
O       0.9931     0.25   0.8321     O
