data_I
_chemical_name_common  '/home/zhangsd/repos/MofS-CGCNN/ML/data/SSD/clean_cifs/TORJOB_clean'
_cell_length_a 10.95900
_cell_length_b 16.56500
_cell_length_c 19.75000
_cell_angle_alpha 90.00000
_cell_angle_beta  90.00000
_cell_angle_gamma 90.00000
_space_group_name_H-M_alt      'P 1'


loop_
_space_group_symop_operation_xyz
  'x, y, z' 

loop_
_atom_site_label
_atom_site_fract_x
_atom_site_fract_y
_atom_site_fract_z
_atom_site_type_symbol
O       0.0076     0.75   0.1672     O
H       0.0169     0.25   0.0716     H
C       0.0173   0.6761   0.5043     C
C       0.0173   0.8239   0.5043     C
C       0.0177   0.5764   0.6001     C
C       0.0177   0.9236   0.6001     C
H        0.024   0.0081   0.6728     H
H        0.024   0.4919   0.6728     H
H       0.0279    0.671   0.4557     H
H       0.0279    0.829   0.4557     H
H       0.0359     0.75   0.0417     H
H       0.0417   0.1079    0.379     H
H       0.0417   0.3921    0.379     H
C       0.0459     0.25   0.9708     C
C        0.057   0.5068   0.6312     C
C        0.057   0.9932   0.6312     C
C       0.0648   0.6006   0.5385     C
C       0.0648   0.8994   0.5385     C
H       0.0693   0.1814   0.4866     H
H       0.0693   0.3186   0.4866     H
C       0.0777     0.25   0.0388     C
N       0.0818     0.75   0.5284     N
C       0.1024     0.25   0.8471     C
C       0.1346     0.25   0.9221     C
O       0.1358   0.1439   0.6863     O
O       0.1358   0.3561   0.6863     O
C       0.1462   0.0421   0.6009     C
C       0.1462   0.4579   0.6009     C
O       0.1476     0.25   0.1741     O
H       0.1507     0.75    0.691     H
C       0.1539   0.5536   0.5084     C
C       0.1539   0.9464   0.5084     C
O       0.1572     0.75   0.6497     O
H       0.1847     0.75   0.4065     H
O       0.1861     0.25   0.8054     O
H       0.1873   0.5694   0.4672     H
H       0.1873   0.9306   0.4672     H
C       0.1874   0.1177   0.6336     C
C       0.1874   0.3823   0.6336     C
C       0.1942   0.0173   0.5391     C
C       0.1942   0.4827   0.5391     C
C       0.1997     0.25   0.0584     C
Eu     0.20744     0.75  0.20399    Eu
C       0.2092     0.75   0.5089     C
O       0.2228   0.6547   0.1096     O
O       0.2228   0.8453   0.1096     O
C       0.2269     0.25    0.133     C
C       0.2443     0.75   0.4401     C
H       0.2461   0.5484   0.0181     H
H       0.2461   0.9516   0.0181     H
H       0.2539   0.0484   0.5181     H
H       0.2539   0.4516   0.5181     H
C       0.2557     0.25   0.9401     C
C       0.2731     0.75    0.633     C
O       0.2772   0.1547   0.6096     O
O       0.2772   0.3453   0.6096     O
C       0.2908     0.25   0.0089     C
Eu     0.29256     0.25  0.70399    Eu
C       0.3003     0.75   0.5584     C
C       0.3058   0.5173   0.0391     C
C       0.3058   0.9827   0.0391     C
C       0.3126   0.6177   0.1336     C
C       0.3126   0.8823   0.1336     C
H       0.3127   0.0694   0.9672     H
H       0.3127   0.4306   0.9672     H
O       0.3139     0.75   0.3054     O
H       0.3153     0.25   0.9065     H
O       0.3428     0.25   0.1497     O
C       0.3461   0.0536   0.0084     C
C       0.3461   0.4464   0.0084     C
H       0.3493     0.25    0.191     H
O       0.3524     0.75   0.6741     O
C       0.3538   0.5421   0.1009     C
C       0.3538   0.9579   0.1009     C
O       0.3642   0.6439   0.1863     O
O       0.3642   0.8561   0.1863     O
C       0.3654     0.75   0.4221     C
C       0.3976     0.75   0.3471     C
N       0.4182     0.25   0.0284     N
C       0.4223     0.75   0.5388     C
H       0.4307   0.6814   0.9866     H
H       0.4307   0.8186   0.9866     H
C       0.4352   0.1006   0.0385     C
C       0.4352   0.3994   0.0385     C
C        0.443   0.0068   0.1312     C
C        0.443   0.4932   0.1312     C
C       0.4541     0.75   0.4708     C
H       0.4583   0.6079    0.879     H
H       0.4583   0.8921    0.879     H
H       0.4641     0.25   0.5417     H
H       0.4721    0.171   0.9557     H
H       0.4721    0.329   0.9557     H
H        0.476   0.5081   0.1728     H
H        0.476   0.9919   0.1728     H
C       0.4823   0.0764   0.1001     C
C       0.4823   0.4236   0.1001     C
C       0.4827   0.1761   0.0043     C
C       0.4827   0.3239   0.0043     C
H       0.4831     0.75   0.5716     H
O       0.4924     0.25   0.6672     O
O       0.5076     0.75   0.3328     O
H       0.5169     0.25   0.4284     H
C       0.5173   0.6761   0.9957     C
C       0.5173   0.8239   0.9957     C
C       0.5177   0.5764   0.8999     C
C       0.5177   0.9236   0.8999     C
H        0.524   0.0081   0.8272     H
H        0.524   0.4919   0.8272     H
H       0.5279    0.671   0.0443     H
H       0.5279    0.829   0.0443     H
H       0.5359     0.75   0.4583     H
H       0.5417   0.1079    0.121     H
H       0.5417   0.3921    0.121     H
C       0.5459     0.25   0.5292     C
C        0.557   0.5068   0.8688     C
C        0.557   0.9932   0.8688     C
C       0.5648   0.6006   0.9615     C
C       0.5648   0.8994   0.9615     C
H       0.5693   0.1814   0.0134     H
H       0.5693   0.3186   0.0134     H
C       0.5777     0.25   0.4612     C
N       0.5818     0.75   0.9716     N
C       0.6024     0.25   0.6529     C
C       0.6346     0.25   0.5779     C
O       0.6358   0.1439   0.8137     O
O       0.6358   0.3561   0.8137     O
C       0.6462   0.0421   0.8991     C
C       0.6462   0.4579   0.8991     C
O       0.6476     0.25   0.3259     O
H       0.6507     0.75    0.809     H
C       0.6539   0.5536   0.9916     C
C       0.6539   0.9464   0.9916     C
O       0.6572     0.75   0.8503     O
H       0.6847     0.75   0.0935     H
O       0.6861     0.25   0.6946     O
H       0.6873   0.5694   0.0328     H
H       0.6873   0.9306   0.0328     H
C       0.6874   0.1177   0.8664     C
C       0.6874   0.3823   0.8664     C
C       0.6942   0.0173   0.9609     C
C       0.6942   0.4827   0.9609     C
C       0.6997     0.25   0.4416     C
Eu     0.70744     0.75  0.29601    Eu
C       0.7092     0.75   0.9911     C
O       0.7228   0.6547   0.3904     O
O       0.7228   0.8453   0.3904     O
C       0.7269     0.25    0.367     C
C       0.7443     0.75   0.0599     C
H       0.7461   0.5484   0.4819     H
H       0.7461   0.9516   0.4819     H
H       0.7539   0.0484   0.9819     H
H       0.7539   0.4516   0.9819     H
C       0.7557     0.25   0.5599     C
C       0.7731     0.75    0.867     C
O       0.7772   0.1547   0.8904     O
O       0.7772   0.3453   0.8904     O
C       0.7908     0.25   0.4911     C
Eu     0.79256     0.25  0.79601    Eu
C       0.8003     0.75   0.9416     C
C       0.8058   0.5173   0.4609     C
C       0.8058   0.9827   0.4609     C
C       0.8126   0.6177   0.3664     C
C       0.8126   0.8823   0.3664     C
H       0.8127   0.0694   0.5328     H
H       0.8127   0.4306   0.5328     H
O       0.8139     0.75   0.1946     O
H       0.8153     0.25   0.5935     H
O       0.8428     0.25   0.3503     O
C       0.8461   0.0536   0.4916     C
C       0.8461   0.4464   0.4916     C
H       0.8493     0.25    0.309     H
O       0.8524     0.75   0.8259     O
C       0.8538   0.5421   0.3991     C
C       0.8538   0.9579   0.3991     C
O       0.8642   0.6439   0.3137     O
O       0.8642   0.8561   0.3137     O
C       0.8654     0.75   0.0779     C
C       0.8976     0.75   0.1529     C
N       0.9182     0.25   0.4716     N
C       0.9223     0.75   0.9612     C
H       0.9307   0.6814   0.5134     H
H       0.9307   0.8186   0.5134     H
C       0.9352   0.1006   0.4615     C
C       0.9352   0.3994   0.4615     C
C        0.943   0.0068   0.3688     C
C        0.943   0.4932   0.3688     C
C       0.9541     0.75   0.0292     C
H       0.9583   0.6079    0.621     H
H       0.9583   0.8921    0.621     H
H       0.9641     0.25   0.9583     H
H       0.9721    0.171   0.5443     H
H       0.9721    0.329   0.5443     H
H        0.976   0.5081   0.3272     H
H        0.976   0.9919   0.3272     H
C       0.9823   0.0764   0.3999     C
C       0.9823   0.4236   0.3999     C
C       0.9827   0.1761   0.4957     C
C       0.9827   0.3239   0.4957     C
H       0.9831     0.75   0.9284     H
O       0.9924     0.25   0.8328     O
