data_I
_chemical_name_common  '/home/zhangsd/repos/MofS-CGCNN/ML/data/SSD/clean_cifs/TORJER_clean'
_cell_length_a 10.93200
_cell_length_b 16.71300
_cell_length_c 18.89300
_cell_angle_alpha 90.00000
_cell_angle_beta  90.00000
_cell_angle_gamma 90.00000
_space_group_name_H-M_alt      'P 1'


loop_
_space_group_symop_operation_xyz
  'x, y, z' 

loop_
_atom_site_label
_atom_site_fract_x
_atom_site_fract_y
_atom_site_fract_z
_atom_site_type_symbol
O       0.0111     0.75   0.1638     O
C       0.0117   0.6754   0.5092     C
C       0.0117   0.8246   0.5092     C
H       0.0195   0.6721   0.4582     H
H       0.0195   0.8279   0.4582     H
C       0.0256   0.5752   0.6093     C
C       0.0256   0.9248   0.6093     C
H       0.0257     0.25   0.0865     H
H       0.0286   0.1066   0.3648     H
H       0.0286   0.3934   0.3648     H
H       0.0356     0.75   0.0304     H
H       0.0385   0.0104    0.681     H
H       0.0385   0.4896    0.681     H
C       0.0471     0.25   0.9811     C
C       0.0635   0.6005   0.5421     C
C       0.0635   0.8995   0.5421     C
C       0.0669   0.5057   0.6368     C
C       0.0669   0.9943   0.6368     C
H       0.0747   0.1791   0.4795     H
H       0.0747   0.3209   0.4795     H
N       0.0756     0.75    0.535     N
C       0.0848     0.25   0.0511     C
C       0.1004     0.25    0.853     C
H        0.136     0.75   0.7069     H
C       0.1368     0.25    0.928     C
O       0.1371   0.1498   0.6838     O
O       0.1371   0.3502   0.6838     O
O        0.144     0.75   0.6638     O
C       0.1492   0.5543   0.5066     C
C       0.1492   0.9457   0.5066     C
C       0.1496   0.0421   0.6018     C
C       0.1496   0.4579   0.6018     C
O       0.1592     0.25   0.1926     O
H       0.1782   0.5706   0.4626     H
H       0.1782   0.9294   0.4626     H
H       0.1835     0.75   0.4092     H
O       0.1853     0.25    0.807     O
C       0.1919   0.0164   0.5366     C
C       0.1919   0.4836   0.5366     C
C       0.1922   0.1185   0.6317     C
C       0.1922   0.3815   0.6317     C
C       0.2055     0.25   0.0703     C
Tb     0.20577     0.75  0.20461    Tb
C       0.2067     0.75   0.5184     C
O       0.2147   0.6533   0.1081     O
O       0.2147   0.8467   0.1081     O
C        0.241     0.25   0.1479     C
C       0.2424     0.75   0.4447     C
H       0.2498   0.0468   0.5126     H
H       0.2498   0.4532   0.5126     H
H       0.2502   0.5468   0.0126     H
H       0.2502   0.9532   0.0126     H
C       0.2576     0.25   0.9447     C
C        0.259     0.75   0.6479     C
O       0.2853   0.1533   0.6081     O
O       0.2853   0.3467   0.6081     O
C       0.2933     0.25   0.0184     C
Tb     0.29423     0.25  0.70461    Tb
C       0.2945     0.75   0.5703     C
C       0.3078   0.6185   0.1317     C
C       0.3078   0.8815   0.1317     C
C       0.3081   0.5164   0.0366     C
C       0.3081   0.9836   0.0366     C
O       0.3147     0.75    0.307     O
H       0.3165     0.25   0.9092     H
H       0.3218   0.0706   0.9626     H
H       0.3218   0.4294   0.9626     H
O       0.3408     0.75   0.6926     O
C       0.3504   0.5421   0.1018     C
C       0.3504   0.9579   0.1018     C
C       0.3508   0.0543   0.0066     C
C       0.3508   0.4457   0.0066     C
O        0.356     0.25   0.1638     O
O       0.3629   0.6498   0.1838     O
O       0.3629   0.8502   0.1838     O
C       0.3632     0.75    0.428     C
H        0.364     0.25   0.2069     H
C       0.3996     0.75    0.353     C
C       0.4152     0.75   0.5511     C
N       0.4244     0.25    0.035     N
H       0.4253   0.6791   0.9795     H
H       0.4253   0.8209   0.9795     H
C       0.4331   0.0057   0.1368     C
C       0.4331   0.4943   0.1368     C
C       0.4365   0.1005   0.0421     C
C       0.4365   0.3995   0.0421     C
C       0.4529     0.75   0.4811     C
H       0.4615   0.5104    0.181     H
H       0.4615   0.9896    0.181     H
H       0.4644     0.25   0.5304     H
H       0.4714   0.6066   0.8648     H
H       0.4714   0.8934   0.8648     H
H       0.4743     0.75   0.5865     H
C       0.4744   0.0752   0.1093     C
C       0.4744   0.4248   0.1093     C
H       0.4805   0.1721   0.9582     H
H       0.4805   0.3279   0.9582     H
C       0.4883   0.1754   0.0092     C
C       0.4883   0.3246   0.0092     C
O       0.4889     0.25   0.6638     O
O       0.5111     0.75   0.3362     O
C       0.5117   0.6754   0.9908     C
C       0.5117   0.8246   0.9908     C
H       0.5195   0.6721   0.0418     H
H       0.5195   0.8279   0.0418     H
C       0.5256   0.5752   0.8907     C
C       0.5256   0.9248   0.8907     C
H       0.5257     0.25   0.4135     H
H       0.5286   0.1066   0.1352     H
H       0.5286   0.3934   0.1352     H
H       0.5356     0.75   0.4696     H
H       0.5385   0.0104    0.819     H
H       0.5385   0.4896    0.819     H
C       0.5471     0.25   0.5189     C
C       0.5635   0.6005   0.9579     C
C       0.5635   0.8995   0.9579     C
C       0.5669   0.5057   0.8632     C
C       0.5669   0.9943   0.8632     C
H       0.5747   0.1791   0.0205     H
H       0.5747   0.3209   0.0205     H
N       0.5756     0.75    0.965     N
C       0.5848     0.25   0.4489     C
C       0.6004     0.25    0.647     C
H        0.636     0.75   0.7931     H
C       0.6368     0.25    0.572     C
O       0.6371   0.1498   0.8162     O
O       0.6371   0.3502   0.8162     O
O        0.644     0.75   0.8362     O
C       0.6492   0.5543   0.9934     C
C       0.6492   0.9457   0.9934     C
C       0.6496   0.0421   0.8982     C
C       0.6496   0.4579   0.8982     C
O       0.6592     0.25   0.3074     O
H       0.6782   0.5706   0.0374     H
H       0.6782   0.9294   0.0374     H
H       0.6835     0.75   0.0908     H
O       0.6853     0.25    0.693     O
C       0.6919   0.0164   0.9634     C
C       0.6919   0.4836   0.9634     C
C       0.6922   0.1185   0.8683     C
C       0.6922   0.3815   0.8683     C
C       0.7055     0.25   0.4297     C
Tb     0.70577     0.75  0.29539    Tb
C       0.7067     0.75   0.9816     C
O       0.7147   0.6533   0.3919     O
O       0.7147   0.8467   0.3919     O
C        0.741     0.25   0.3521     C
C       0.7424     0.75   0.0553     C
H       0.7498   0.0468   0.9874     H
H       0.7498   0.4532   0.9874     H
H       0.7502   0.5468   0.4874     H
H       0.7502   0.9532   0.4874     H
C       0.7576     0.25   0.5553     C
C        0.759     0.75   0.8521     C
O       0.7853   0.1533   0.8919     O
O       0.7853   0.3467   0.8919     O
C       0.7933     0.25   0.4816     C
Tb     0.79423     0.25  0.79539    Tb
C       0.7945     0.75   0.9297     C
C       0.8078   0.6185   0.3683     C
C       0.8078   0.8815   0.3683     C
C       0.8081   0.5164   0.4634     C
C       0.8081   0.9836   0.4634     C
O       0.8147     0.75    0.193     O
H       0.8165     0.25   0.5908     H
H       0.8218   0.0706   0.5374     H
H       0.8218   0.4294   0.5374     H
O       0.8408     0.75   0.8074     O
C       0.8504   0.5421   0.3982     C
C       0.8504   0.9579   0.3982     C
C       0.8508   0.0543   0.4934     C
C       0.8508   0.4457   0.4934     C
O        0.856     0.25   0.3362     O
O       0.8629   0.6498   0.3162     O
O       0.8629   0.8502   0.3162     O
C       0.8632     0.75    0.072     C
H        0.864     0.25   0.2931     H
C       0.8996     0.75    0.147     C
C       0.9152     0.75   0.9489     C
N       0.9244     0.25    0.465     N
H       0.9253   0.6791   0.5205     H
H       0.9253   0.8209   0.5205     H
C       0.9331   0.0057   0.3632     C
C       0.9331   0.4943   0.3632     C
C       0.9365   0.1005   0.4579     C
C       0.9365   0.3995   0.4579     C
C       0.9529     0.75   0.0189     C
H       0.9615   0.5104    0.319     H
H       0.9615   0.9896    0.319     H
H       0.9644     0.25   0.9696     H
H       0.9714   0.6066   0.6352     H
H       0.9714   0.8934   0.6352     H
H       0.9743     0.75   0.9135     H
C       0.9744   0.0752   0.3907     C
C       0.9744   0.4248   0.3907     C
H       0.9805   0.1721   0.5418     H
H       0.9805   0.3279   0.5418     H
C       0.9883   0.1754   0.4908     C
C       0.9883   0.3246   0.4908     C
O       0.9889     0.25   0.8362     O
