data_I
_chemical_name_common  '/home/zhangsd/repos/MofS-CGCNN/ML/data/SSD/clean_cifs/TORKES_clean'
_cell_length_a 10.92900
_cell_length_b 16.58600
_cell_length_c 19.39600
_cell_angle_alpha 90.00000
_cell_angle_beta  90.00000
_cell_angle_gamma 90.00000
_space_group_name_H-M_alt      'P 1'


loop_
_space_group_symop_operation_xyz
  'x, y, z' 

loop_
_atom_site_label
_atom_site_fract_x
_atom_site_fract_y
_atom_site_fract_z
_atom_site_type_symbol
O       0.0143     0.75   0.1673     O
H       0.0169     0.25   0.0765     H
C       0.0181   0.5754   0.5995     C
C       0.0181   0.9246   0.5995     C
C       0.0188   0.6759   0.5024     C
C       0.0188   0.8241   0.5024     C
H       0.0199    0.012   0.6708     H
H       0.0199    0.488   0.6708     H
H       0.0308   0.6715    0.453     H
H       0.0308   0.8285    0.453     H
H       0.0408   0.1069   0.3788     H
H       0.0408   0.3931   0.3788     H
H       0.0409     0.75   0.0383     H
C       0.0415     0.25   0.9735     C
C       0.0559   0.5048   0.6298     C
C       0.0559   0.9952   0.6298     C
C       0.0665   0.6002   0.5373     C
C       0.0665   0.8998   0.5373     C
H       0.0684   0.1807    0.489     H
H       0.0684   0.3193    0.489     H
C       0.0765     0.25   0.0423     C
N       0.0821     0.75   0.5282     N
C       0.0956     0.25   0.8475     C
C       0.1301     0.25   0.9226     C
O       0.1315   0.1464  0.68462     O
O       0.1315   0.3536  0.68462     O
H       0.1452     0.75   0.6946     H
C       0.1461   0.0412   0.6003     C
C       0.1461   0.4588   0.6003     C
O       0.1496     0.25   0.1801     O
O       0.1533     0.75   0.6526     O
C       0.1569   0.5534   0.5067     C
C       0.1569   0.9466   0.5067     C
O       0.1804     0.25   0.8046     O
C        0.187   0.1187   0.6329     C
C        0.187   0.3813   0.6329     C
H       0.1879     0.75   0.4059     H
H       0.1907   0.5693   0.4649     H
H       0.1907   0.9307   0.4649     H
C       0.1969   0.0165   0.5381     C
C       0.1969   0.4835   0.5381     C
C       0.1999     0.25   0.0607     C
Tb      0.2118     0.75  0.20407    Tb
C       0.2131     0.75   0.5095     C
O       0.2223   0.6557   0.1086     O
O       0.2223   0.8443   0.1086     O
C       0.2289     0.25    0.137     C
H        0.242   0.5472   0.0175     H
H        0.242   0.9528   0.0175     H
C       0.2473     0.75   0.4401     C
C       0.2527     0.25   0.9401     C
H        0.258   0.0472   0.5175     H
H        0.258   0.4528   0.5175     H
C       0.2711     0.75    0.637     C
O       0.2777   0.1557   0.6086     O
O       0.2777   0.3443   0.6086     O
C       0.2869     0.25   0.0095     C
Tb      0.2882     0.25  0.70407    Tb
C       0.3001     0.75   0.5607     C
C       0.3031   0.5165   0.0381     C
C       0.3031   0.9835   0.0381     C
H       0.3093   0.0693   0.9649     H
H       0.3093   0.4307   0.9649     H
H       0.3121     0.25   0.9059     H
C        0.313   0.6187   0.1329     C
C        0.313   0.8813   0.1329     C
O       0.3196     0.75   0.3046     O
C       0.3431   0.0534   0.0067     C
C       0.3431   0.4466   0.0067     C
O       0.3467     0.25   0.1526     O
O       0.3504     0.75   0.6801     O
C       0.3539   0.5412   0.1003     C
C       0.3539   0.9588   0.1003     C
H       0.3548     0.25   0.1946     H
O       0.3685   0.6464  0.18462     O
O       0.3685   0.8536  0.18462     O
C       0.3699     0.75   0.4226     C
C       0.4044     0.75   0.3475     C
N       0.4179     0.25   0.0282     N
C       0.4235     0.75   0.5423     C
H       0.4316   0.6807    0.989     H
H       0.4316   0.8193    0.989     H
C       0.4335   0.1002   0.0373     C
C       0.4335   0.3998   0.0373     C
C       0.4441   0.0048   0.1298     C
C       0.4441   0.4952   0.1298     C
C       0.4585     0.75   0.4735     C
H       0.4591     0.25   0.5383     H
H       0.4592   0.6069   0.8788     H
H       0.4592   0.8931   0.8788     H
H       0.4692   0.1715    0.953     H
H       0.4692   0.3285    0.953     H
H       0.4801    0.512   0.1708     H
H       0.4801    0.988   0.1708     H
C       0.4812   0.1759   0.0024     C
C       0.4812   0.3241   0.0024     C
C       0.4819   0.0754   0.0995     C
C       0.4819   0.4246   0.0995     C
H       0.4831     0.75   0.5765     H
O       0.4857     0.25   0.6673     O
O       0.5143     0.75   0.3327     O
H       0.5169     0.25   0.4235     H
C       0.5181   0.5754   0.9005     C
C       0.5181   0.9246   0.9005     C
C       0.5188   0.6759   0.9976     C
C       0.5188   0.8241   0.9976     C
H       0.5199    0.012   0.8292     H
H       0.5199    0.488   0.8292     H
H       0.5308   0.6715    0.047     H
H       0.5308   0.8285    0.047     H
H       0.5408   0.1069   0.1212     H
H       0.5408   0.3931   0.1212     H
H       0.5409     0.75   0.4617     H
C       0.5415     0.25   0.5265     C
C       0.5559   0.5048   0.8702     C
C       0.5559   0.9952   0.8702     C
C       0.5665   0.6002   0.9627     C
C       0.5665   0.8998   0.9627     C
H       0.5684   0.1807    0.011     H
H       0.5684   0.3193    0.011     H
C       0.5765     0.25   0.4577     C
N       0.5821     0.75   0.9718     N
C       0.5956     0.25   0.6525     C
C       0.6301     0.25   0.5774     C
O       0.6315   0.1464  0.81538     O
O       0.6315   0.3536  0.81538     O
H       0.6452     0.75   0.8054     H
C       0.6461   0.0412   0.8997     C
C       0.6461   0.4588   0.8997     C
O       0.6496     0.25   0.3199     O
O       0.6533     0.75   0.8474     O
C       0.6569   0.5534   0.9933     C
C       0.6569   0.9466   0.9933     C
O       0.6804     0.25   0.6954     O
C        0.687   0.1187   0.8671     C
C        0.687   0.3813   0.8671     C
H       0.6879     0.75   0.0941     H
H       0.6907   0.5693   0.0351     H
H       0.6907   0.9307   0.0351     H
C       0.6969   0.0165   0.9619     C
C       0.6969   0.4835   0.9619     C
C       0.6999     0.25   0.4393     C
Tb      0.7118     0.75  0.29593    Tb
C       0.7131     0.75   0.9905     C
O       0.7223   0.6557   0.3914     O
O       0.7223   0.8443   0.3914     O
C       0.7289     0.25    0.363     C
H        0.742   0.5472   0.4825     H
H        0.742   0.9528   0.4825     H
C       0.7473     0.75   0.0599     C
C       0.7527     0.25   0.5599     C
H        0.758   0.0472   0.9825     H
H        0.758   0.4528   0.9825     H
C       0.7711     0.75    0.863     C
O       0.7777   0.1557   0.8914     O
O       0.7777   0.3443   0.8914     O
C       0.7869     0.25   0.4905     C
Tb      0.7882     0.25  0.79593    Tb
C       0.8001     0.75   0.9393     C
C       0.8031   0.5165   0.4619     C
C       0.8031   0.9835   0.4619     C
H       0.8093   0.0693   0.5351     H
H       0.8093   0.4307   0.5351     H
H       0.8121     0.25   0.5941     H
C        0.813   0.6187   0.3671     C
C        0.813   0.8813   0.3671     C
O       0.8196     0.75   0.1954     O
C       0.8431   0.0534   0.4933     C
C       0.8431   0.4466   0.4933     C
O       0.8467     0.25   0.3474     O
O       0.8504     0.75   0.8199     O
C       0.8539   0.5412   0.3997     C
C       0.8539   0.9588   0.3997     C
H       0.8548     0.25   0.3054     H
O       0.8685   0.6464  0.31538     O
O       0.8685   0.8536  0.31538     O
C       0.8699     0.75   0.0774     C
C       0.9044     0.75   0.1525     C
N       0.9179     0.25   0.4718     N
C       0.9235     0.75   0.9577     C
H       0.9316   0.6807    0.511     H
H       0.9316   0.8193    0.511     H
C       0.9335   0.1002   0.4627     C
C       0.9335   0.3998   0.4627     C
C       0.9441   0.0048   0.3702     C
C       0.9441   0.4952   0.3702     C
C       0.9585     0.75   0.0265     C
H       0.9591     0.25   0.9617     H
H       0.9592   0.6069   0.6212     H
H       0.9592   0.8931   0.6212     H
H       0.9692   0.1715    0.547     H
H       0.9692   0.3285    0.547     H
H       0.9801    0.512   0.3292     H
H       0.9801    0.988   0.3292     H
C       0.9812   0.1759   0.4976     C
C       0.9812   0.3241   0.4976     C
C       0.9819   0.0754   0.4005     C
C       0.9819   0.4246   0.4005     C
H       0.9831     0.75   0.9235     H
O       0.9857     0.25   0.8327     O
