data_I
_chemical_name_common  '/home/zhangsd/repos/MofS-CGCNN/ML/data/SSD/clean_cifs/TORKAO_clean'
_cell_length_a 11.04800
_cell_length_b 16.70200
_cell_length_c 18.73900
_cell_angle_alpha 90.00000
_cell_angle_beta  90.00000
_cell_angle_gamma 90.00000
_space_group_name_H-M_alt      'P 1'


loop_
_space_group_symop_operation_xyz
  'x, y, z' 

loop_
_atom_site_label
_atom_site_fract_x
_atom_site_fract_y
_atom_site_fract_z
_atom_site_type_symbol
O       0.0091     0.75   0.1616     O
C       0.0117   0.6754   0.5075     C
C       0.0117   0.8246   0.5075     C
H       0.0206   0.6724   0.4561     H
H       0.0206   0.8276   0.4561     H
H       0.0251   0.1069   0.3644     H
H       0.0251   0.3931   0.3644     H
C       0.0282   0.5758    0.609     C
C       0.0282   0.9242    0.609     C
H       0.0294     0.25   0.0881     H
H       0.0294     0.75   0.0257     H
H       0.0447   0.0101    0.681     H
H       0.0447   0.4899    0.681     H
C       0.0527     0.25   0.9851     C
C       0.0633   0.6007   0.5411     C
C       0.0633   0.8993   0.5411     C
C       0.0716   0.5064   0.6364     C
C       0.0716   0.9936   0.6364     C
H        0.074    0.179   0.4817     H
H        0.074    0.321   0.4817     H
N       0.0758     0.75    0.535     N
C       0.0879     0.25   0.0525     C
C       0.1007     0.25   0.8527     C
H       0.1271     0.75   0.7072     H
O        0.139     0.75   0.6641     O
C       0.1391     0.25   0.9291     C
O       0.1396   0.1495   0.6818     O
O       0.1396   0.3505   0.6818     O
C       0.1482   0.5548   0.5037     C
C       0.1482   0.9452   0.5037     C
C       0.1536   0.0404   0.6008     C
C       0.1536   0.4596   0.6008     C
O        0.169     0.25   0.1959     O
H       0.1743   0.5703   0.4586     H
H       0.1743   0.9297   0.4586     H
H       0.1826     0.75   0.4093     H
O       0.1839     0.25   0.8073     O
C       0.1937   0.0158   0.5358     C
C       0.1937   0.4842   0.5358     C
C       0.1958   0.1176    0.631     C
C       0.1958   0.3824    0.631     C
Eu     0.20288     0.75  0.20476    Eu
C       0.2048     0.75   0.5185     C
C       0.2114     0.25   0.0722     C
O       0.2118   0.6521   0.1066     O
O       0.2118   0.8479   0.1066     O
C       0.2405     0.75   0.4454     C
C       0.2468     0.25   0.1519     C
H        0.248   0.5458    0.012     H
H        0.248   0.9542    0.012     H
H        0.252   0.0458    0.512     H
H        0.252   0.4542    0.512     H
C       0.2532     0.75   0.6519     C
C       0.2595     0.25   0.9454     C
O       0.2882   0.1521   0.6066     O
O       0.2882   0.3479   0.6066     O
C       0.2886     0.75   0.5722     C
C       0.2952     0.25   0.0185     C
Eu     0.29712     0.25  0.70476    Eu
C       0.3042   0.6176    0.131     C
C       0.3042   0.8824    0.131     C
C       0.3063   0.5158   0.0358     C
C       0.3063   0.9842   0.0358     C
O       0.3161     0.75   0.3073     O
H       0.3174     0.25   0.9093     H
H       0.3257   0.0703   0.9586     H
H       0.3257   0.4297   0.9586     H
O        0.331     0.75   0.6959     O
C       0.3464   0.5404   0.1008     C
C       0.3464   0.9596   0.1008     C
C       0.3518   0.0548   0.0037     C
C       0.3518   0.4452   0.0037     C
O       0.3604   0.6495   0.1818     O
O       0.3604   0.8505   0.1818     O
C       0.3609     0.75   0.4291     C
O        0.361     0.25   0.1641     O
H       0.3729     0.25   0.2072     H
C       0.3993     0.75   0.3527     C
C       0.4121     0.75   0.5525     C
N       0.4242     0.25    0.035     N
H        0.426    0.679   0.9817     H
H        0.426    0.821   0.9817     H
C       0.4284   0.0064   0.1364     C
C       0.4284   0.4936   0.1364     C
C       0.4367   0.1007   0.0411     C
C       0.4367   0.3993   0.0411     C
C       0.4473     0.75   0.4851     C
H       0.4553   0.5101    0.181     H
H       0.4553   0.9899    0.181     H
H       0.4706     0.25   0.5257     H
H       0.4706     0.75   0.5881     H
C       0.4718   0.0758    0.109     C
C       0.4718   0.4242    0.109     C
H       0.4749   0.6069   0.8644     H
H       0.4749   0.8931   0.8644     H
H       0.4794   0.1724   0.9561     H
H       0.4794   0.3276   0.9561     H
C       0.4883   0.1754   0.0075     C
C       0.4883   0.3246   0.0075     C
O       0.4909     0.25   0.6616     O
O       0.5091     0.75   0.3384     O
C       0.5117   0.6754   0.9925     C
C       0.5117   0.8246   0.9925     C
H       0.5206   0.6724   0.0439     H
H       0.5206   0.8276   0.0439     H
H       0.5251   0.1069   0.1356     H
H       0.5251   0.3931   0.1356     H
C       0.5282   0.5758    0.891     C
C       0.5282   0.9242    0.891     C
H       0.5294     0.25   0.4119     H
H       0.5294     0.75   0.4743     H
H       0.5447   0.0101    0.819     H
H       0.5447   0.4899    0.819     H
C       0.5527     0.25   0.5149     C
C       0.5633   0.6007   0.9589     C
C       0.5633   0.8993   0.9589     C
C       0.5716   0.5064   0.8636     C
C       0.5716   0.9936   0.8636     C
H        0.574    0.179   0.0183     H
H        0.574    0.321   0.0183     H
N       0.5758     0.75    0.965     N
C       0.5879     0.25   0.4475     C
C       0.6007     0.25   0.6473     C
H       0.6271     0.75   0.7928     H
O        0.639     0.75   0.8359     O
C       0.6391     0.25   0.5709     C
O       0.6396   0.1495   0.8182     O
O       0.6396   0.3505   0.8182     O
C       0.6482   0.5548   0.9963     C
C       0.6482   0.9452   0.9963     C
C       0.6536   0.0404   0.8992     C
C       0.6536   0.4596   0.8992     C
O        0.669     0.25   0.3041     O
H       0.6743   0.5703   0.0414     H
H       0.6743   0.9297   0.0414     H
H       0.6826     0.75   0.0907     H
O       0.6839     0.25   0.6927     O
C       0.6937   0.0158   0.9642     C
C       0.6937   0.4842   0.9642     C
C       0.6958   0.1176    0.869     C
C       0.6958   0.3824    0.869     C
Eu     0.70288     0.75  0.29524    Eu
C       0.7048     0.75   0.9815     C
C       0.7114     0.25   0.4278     C
O       0.7118   0.6521   0.3934     O
O       0.7118   0.8479   0.3934     O
C       0.7405     0.75   0.0546     C
C       0.7468     0.25   0.3481     C
H        0.748   0.5458    0.488     H
H        0.748   0.9542    0.488     H
H        0.752   0.0458    0.988     H
H        0.752   0.4542    0.988     H
C       0.7532     0.75   0.8481     C
C       0.7595     0.25   0.5546     C
O       0.7882   0.1521   0.8934     O
O       0.7882   0.3479   0.8934     O
C       0.7886     0.75   0.9278     C
C       0.7952     0.25   0.4815     C
Eu     0.79712     0.25  0.79524    Eu
C       0.8042   0.6176    0.369     C
C       0.8042   0.8824    0.369     C
C       0.8063   0.5158   0.4642     C
C       0.8063   0.9842   0.4642     C
O       0.8161     0.75   0.1927     O
H       0.8174     0.25   0.5907     H
H       0.8257   0.0703   0.5414     H
H       0.8257   0.4297   0.5414     H
O        0.831     0.75   0.8041     O
C       0.8464   0.5404   0.3992     C
C       0.8464   0.9596   0.3992     C
C       0.8518   0.0548   0.4963     C
C       0.8518   0.4452   0.4963     C
O       0.8604   0.6495   0.3182     O
O       0.8604   0.8505   0.3182     O
C       0.8609     0.75   0.0709     C
O        0.861     0.25   0.3359     O
H       0.8729     0.25   0.2928     H
C       0.8993     0.75   0.1473     C
C       0.9121     0.75   0.9475     C
N       0.9242     0.25    0.465     N
H        0.926    0.679   0.5183     H
H        0.926    0.821   0.5183     H
C       0.9284   0.0064   0.3636     C
C       0.9284   0.4936   0.3636     C
C       0.9367   0.1007   0.4589     C
C       0.9367   0.3993   0.4589     C
C       0.9473     0.75   0.0149     C
H       0.9553   0.5101    0.319     H
H       0.9553   0.9899    0.319     H
H       0.9706     0.25   0.9743     H
H       0.9706     0.75   0.9119     H
C       0.9718   0.0758    0.391     C
C       0.9718   0.4242    0.391     C
H       0.9749   0.6069   0.6356     H
H       0.9749   0.8931   0.6356     H
H       0.9794   0.1724   0.5439     H
H       0.9794   0.3276   0.5439     H
C       0.9883   0.1754   0.4925     C
C       0.9883   0.3246   0.4925     C
O       0.9909     0.25   0.8384     O
