data_I
_chemical_name_common  '/home/zhangsd/repos/MofS-CGCNN/ML/data/SSD/clean_cifs/TOVJIZ_clean'
_cell_length_a 18.37500
_cell_length_b 24.68800
_cell_length_c 35.25700
_cell_angle_alpha 90.34500
_cell_angle_beta  90.00000
_cell_angle_gamma 90.00000
_space_group_name_H-M_alt      'P 1'


loop_
_space_group_symop_operation_xyz
  'x, y, z' 

loop_
_atom_site_label
_atom_site_fract_x
_atom_site_fract_y
_atom_site_fract_z
_atom_site_type_symbol
C      0.00072   0.8106  0.37141     C
C      0.00451  0.48088   0.3708     C
C      0.00736  0.57121  0.34592     C
O       0.0079  0.57968  0.56187     O
O      0.00943  0.76543  0.35707     O
H       0.0142   0.4012    0.669     H
C      0.01691  0.17031  0.14148     C
C      0.02214  0.11369  0.14237     C
H       0.0268   0.5497   0.5562     H
C      0.02701  0.47884  0.65096     C
C       0.0331  0.57292   0.6283     C
H       0.0368   0.9553   0.8647     H
C      0.03935  0.91693  0.86565     C
C       0.0422    0.601  0.59429     C
H       0.0437   0.0888   0.6123     H
H       0.0464   0.0299   0.1888     H
C      0.04874   0.8042  0.86745     C
O      0.04916  0.83851   0.3879     O
H        0.052   0.7658   0.8677     H
H       0.0586   0.1917    0.147     H
H       0.0592   0.5752   0.6837     H
H       0.0637   0.7507   0.5678     H
C       0.0648  0.59388  0.66045     C
H        0.065   0.6439   0.7328     H
C      0.06934  0.49052  0.38891     C
H       0.0718   0.4853   0.6637     H
C      0.07277  0.58129   0.3644     C
C      0.07354  0.16324  0.63035     C
O       0.0793  0.66796  0.33869     O
H        0.081    0.863   0.2427     H
C      0.08252  0.64792  0.59275     C
C      0.08279  0.10939  0.62257     C
C      0.08678  0.72911  0.54891     C
H       0.0886   0.9278   0.1945     H
H       0.0912   0.4627   0.4035     H
C      0.09128  0.04499  0.18067     C
C      0.09168  0.08876  0.15555     C
Fe     0.09545  0.74566  0.32539    Fe
O      0.09803  0.82153  0.30484     O
C       0.0982  0.67397  0.55499     C
H       0.1014   0.7898   0.5112     H
C      0.10333   0.5405  0.38609     C
C        0.105  0.89186  0.87505     C
C      0.10515  0.64181  0.66002     C
C      0.10802  0.63581  0.36258     C
C      0.10874  0.89502  0.24654     C
C      0.10886  0.83578  0.87597     C
C       0.1092  0.75223  0.51524     C
C      0.11335  0.93345   0.2178     C
C      0.11357  0.66841   0.6254     C
C      0.11372  0.65609  0.73017     C
H       0.1241   0.2317   0.6505     H
C      0.13072  0.19424  0.64513     C
C      0.13151  0.64335  0.52731     C
H       0.1317   0.6644   0.7864     H
C      0.13674  0.86188  0.31135     C
H       0.1393   0.6058   0.5314     H
H        0.141    0.701   0.6244     H
C      0.14261  0.72169  0.48755     C
C       0.1435  0.66077  0.69413     C
C       0.1445  0.90333  0.28084     C
O      0.14478  0.79152  0.44217     O
H       0.1467   0.9131   0.8808     H
H       0.1478   0.5468   0.3991     H
C      0.14971  0.08453  0.62977     C
C       0.1532  0.66869  0.76206     C
C      0.15401  0.66652  0.49344     C
C      0.15439  0.98019  0.22346     C
H        0.156    0.047   0.6245     H
C      0.15717  0.02345  0.19381     C
C       0.1581   0.1105   0.1439     C
H       0.1586   0.1403   0.1269     H
Fe     0.15951  0.82819  0.39128    Fe
O      0.16316  0.64471   0.3815     O
O      0.16408  0.76182  0.36529     O
O       0.1688  0.87181  0.34205     O
C      0.16972   0.7467  0.45182     C
O      0.17247  0.72507  0.28831     O
H       0.1769    0.645   0.4745     H
C        0.179  0.80864  0.88483     C
O      0.18165  0.75825  0.87783     O
C      0.18543  0.94937  0.28625     C
C      0.19028  0.98826   0.2573     C
H       0.1964   0.7066   0.2212     H
C      0.19724  0.16956   0.6518     C
C       0.2069   0.1145  0.64454     C
H       0.2104   0.9549   0.3095     H
O      0.21068  0.02642  0.69393     O
C      0.21492  0.67989  0.69143     C
H       0.2159   0.9954   0.7032     H
O      0.21668  0.71906  0.43349     O
H       0.2184   0.0201   0.2611     H
C      0.22245  0.04575  0.18191     C
C      0.22329  0.08919  0.15677     C
C       0.2238  0.68758  0.75927     C
O       0.2317  0.83611  0.89602     O
C       0.2335  0.70073  0.29333     C
Fe     0.23408  0.70696  0.37863    Fe
H       0.2365   0.6837   0.6671     H
H       0.2367   0.1904   0.6614     H
O      0.24143  0.68748  0.82542     O
C      0.24481  0.69345  0.22356     C
C      0.25519  0.69345  0.72356     C
O      0.25857  0.68748  0.32542     O
H       0.2633   0.1904   0.1614     H
H       0.2635   0.6837   0.1671     H
Fe     0.26592  0.70696  0.87863    Fe
C       0.2665  0.70073  0.79333     C
O       0.2683  0.83611  0.39602     O
C       0.2762  0.68758  0.25927     C
C      0.27671  0.08919  0.65677     C
C      0.27755  0.04575  0.68191     C
H       0.2816   0.0201   0.7611     H
O      0.28332  0.71906  0.93349     O
H       0.2841   0.9954   0.2032     H
C      0.28508  0.67989  0.19143     C
O      0.28932  0.02642  0.19393     O
H       0.2896   0.9549   0.8095     H
C       0.2931   0.1145  0.14454     C
C      0.30276  0.16956   0.1518     C
H       0.3036   0.7066   0.7212     H
C      0.30972  0.98826   0.7573     C
C      0.31457  0.94937  0.78625     C
O      0.31835  0.75825  0.37783     O
C        0.321  0.80864  0.38483     C
H       0.3231    0.645   0.9745     H
O      0.32753  0.72507  0.78831     O
C      0.33028   0.7467  0.95182     C
O       0.3312  0.87181  0.84205     O
O      0.33592  0.76182  0.86529     O
O      0.33684  0.64471   0.8815     O
Fe     0.34049  0.82819  0.89128    Fe
H       0.3414   0.1403   0.6269     H
C       0.3419   0.1105   0.6439     C
C      0.34283  0.02345  0.69381     C
H        0.344    0.047   0.1245     H
C      0.34561  0.98019  0.72346     C
C      0.34599  0.66652  0.99344     C
C       0.3468  0.66869  0.26206     C
C      0.35029  0.08453  0.12977     C
H       0.3522   0.5468   0.8991     H
H       0.3533   0.9131   0.3808     H
O      0.35522  0.79152  0.94217     O
C       0.3555  0.90333  0.78084     C
C       0.3565  0.66077  0.19413     C
C      0.35739  0.72169  0.98755     C
H        0.359    0.701   0.1244     H
H       0.3607   0.6058   0.0314     H
C      0.36326  0.86188  0.81135     C
H       0.3683   0.6644   0.2864     H
C      0.36849  0.64335  0.02731     C
C      0.36928  0.19424  0.14513     C
H       0.3759   0.2317   0.1505     H
C      0.38628  0.65609  0.23017     C
C      0.38643  0.66841   0.1254     C
C      0.38665  0.93345   0.7178     C
C       0.3908  0.75223  0.01524     C
C      0.39114  0.83578  0.37597     C
C      0.39126  0.89502  0.74654     C
C      0.39198  0.63581  0.86258     C
C      0.39485  0.64181  0.16002     C
C        0.395  0.89186  0.37505     C
C      0.39667   0.5405  0.88609     C
H       0.3986   0.7898   0.0112     H
C       0.4018  0.67397  0.05499     C
O      0.40197  0.82153  0.80484     O
Fe     0.40455  0.74566  0.82539    Fe
C      0.40832  0.08876  0.65555     C
C      0.40872  0.04499  0.68067     C
H       0.4088   0.4627   0.9035     H
H       0.4114   0.9278   0.6945     H
C      0.41322  0.72911  0.04891     C
C      0.41721  0.10939  0.12257     C
C      0.41748  0.64792  0.09275     C
H        0.419    0.863   0.7427     H
O       0.4207  0.66796  0.83869     O
C      0.42646  0.16324  0.13035     C
C      0.42723  0.58129   0.8644     C
H       0.4282   0.4853   0.1637     H
C      0.43066  0.49052  0.88891     C
H        0.435   0.6439   0.2328     H
C       0.4352  0.59388  0.16045     C
H       0.4363   0.7507   0.0678     H
H       0.4408   0.5752   0.1837     H
H       0.4414   0.1917    0.647     H
H        0.448   0.7658   0.3677     H
O      0.45084  0.83851   0.8879     O
C      0.45126   0.8042  0.36745     C
H       0.4536   0.0299   0.6888     H
H       0.4563   0.0888   0.1123     H
C       0.4578    0.601  0.09429     C
C      0.46065  0.91693  0.36565     C
H       0.4632   0.9553   0.3647     H
C       0.4669  0.57292   0.1283     C
C      0.47299  0.47884  0.15096     C
H       0.4732   0.5497   0.0562     H
C      0.47786  0.11369  0.64237     C
C      0.48309  0.17031  0.64148     C
H       0.4858   0.4012    0.169     H
O      0.49057  0.76543  0.85707     O
O       0.4921  0.57968  0.06187     O
C      0.49264  0.57121  0.84592     C
C      0.49549  0.48088   0.8708     C
C      0.49928   0.8106  0.87141     C
C      0.50072   0.1894  0.12859     C
C      0.50451  0.51912   0.1292     C
C      0.50736  0.42879  0.15408     C
O       0.5079  0.42032  0.93813     O
O      0.50943  0.23457  0.14293     O
H       0.5142   0.5988    0.831     H
C      0.51691  0.82969  0.35852     C
C      0.52214  0.88631  0.35763     C
H       0.5268   0.4503   0.9438     H
C      0.52701  0.52116  0.84904     C
C       0.5331  0.42708   0.8717     C
H       0.5368   0.0447   0.6353     H
C      0.53935  0.08307  0.63435     C
C       0.5422    0.399  0.90571     C
H       0.5437   0.9112   0.8877     H
H       0.5464   0.9701   0.3112     H
C      0.54874   0.1958  0.63255     C
O      0.54916  0.16149   0.1121     O
H        0.552   0.2342   0.6323     H
H       0.5586   0.8083    0.353     H
H       0.5592   0.4248   0.8163     H
H       0.5637   0.2493   0.9322     H
C       0.5648  0.40612  0.83955     C
H        0.565   0.3561   0.7672     H
C      0.56934  0.50948  0.11109     C
H       0.5718   0.5147   0.8363     H
C      0.57277  0.41871   0.1356     C
C      0.57354  0.83676  0.86965     C
O       0.5793  0.33204  0.16131     O
H        0.581    0.137   0.2573     H
C      0.58252  0.35208  0.90725     C
C      0.58279  0.89061  0.87743     C
C      0.58678  0.27089  0.95109     C
H       0.5886   0.0722   0.3055     H
H       0.5912   0.5373   0.0965     H
C      0.59128  0.95501  0.31933     C
C      0.59168  0.91124  0.34445     C
Fe     0.59545  0.25434  0.17461    Fe
O      0.59803  0.17847  0.19516     O
C       0.5982  0.32603  0.94501     C
H       0.6014   0.2102   0.9888     H
C      0.60333   0.4595  0.11391     C
C        0.605  0.10814  0.62495     C
C      0.60515  0.35819  0.83998     C
C      0.60802  0.36419  0.13742     C
C      0.60874  0.10498  0.25346     C
C      0.60886  0.16422  0.62403     C
C       0.6092  0.24777  0.98476     C
C      0.61335  0.06655   0.2822     C
C      0.61357  0.33159   0.8746     C
C      0.61372  0.34391  0.76983     C
H       0.6241   0.7683   0.8495     H
C      0.63072  0.80576  0.85487     C
C      0.63151  0.35665  0.97269     C
H       0.6317   0.3356   0.7136     H
C      0.63674  0.13812  0.18865     C
H       0.6393   0.3942   0.9686     H
H        0.641    0.299   0.8756     H
C      0.64261  0.27831  0.01245     C
C       0.6435  0.33923  0.80587     C
C       0.6445  0.09667  0.21916     C
O      0.64478  0.20848  0.05783     O
H       0.6467   0.0869   0.6192     H
H       0.6478   0.4532   0.1009     H
C      0.64971  0.91547  0.87023     C
C       0.6532  0.33131  0.73794     C
C      0.65401  0.33348  0.00656     C
C      0.65439  0.01981  0.27654     C
H        0.656    0.953   0.8755     H
C      0.65717  0.97655  0.30619     C
C       0.6581   0.8895   0.3561     C
H       0.6586   0.8597   0.3731     H
Fe     0.65951  0.17181  0.10872    Fe
O      0.66316  0.35529   0.1185     O
O      0.66408  0.23818  0.13471     O
O       0.6688  0.12819  0.15795     O
C      0.66972   0.2533  0.04818     C
O      0.67247  0.27493  0.21169     O
H       0.6769    0.355   0.0255     H
C        0.679  0.19136  0.61517     C
O      0.68165  0.24175  0.62217     O
C      0.68543  0.05063  0.21375     C
C      0.69028  0.01174   0.2427     C
H       0.6964   0.2934   0.2788     H
C      0.69724  0.83044   0.8482     C
C       0.7069   0.8855  0.85546     C
H       0.7104   0.0451   0.1905     H
O      0.71068  0.97358  0.80607     O
C      0.71492  0.32011  0.80857     C
H       0.7159   0.0046   0.7968     H
O      0.71668  0.28094  0.06651     O
H       0.7184   0.9799   0.2389     H
C      0.72245  0.95425  0.31809     C
C      0.72329  0.91081  0.34323     C
C       0.7238  0.31242  0.74073     C
O       0.7317  0.16389  0.60398     O
C       0.7335  0.29927  0.20667     C
Fe     0.73408  0.29304  0.12137    Fe
H       0.7365   0.3163   0.8329     H
H       0.7367   0.8096   0.8386     H
O      0.74143  0.31252  0.67458     O
C      0.74481  0.30655  0.27644     C
C      0.75519  0.30655  0.77644     C
O      0.75857  0.31252  0.17458     O
H       0.7633   0.8096   0.3386     H
H       0.7635   0.3163   0.3329     H
Fe     0.76592  0.29304  0.62137    Fe
C       0.7665  0.29927  0.70667     C
O       0.7683  0.16389  0.10398     O
C       0.7762  0.31242  0.24073     C
C      0.77671  0.91081  0.84323     C
C      0.77755  0.95425  0.81809     C
H       0.7816   0.9799   0.7389     H
O      0.78332  0.28094  0.56651     O
H       0.7841   0.0046   0.2968     H
C      0.78508  0.32011  0.30857     C
O      0.78932  0.97358  0.30607     O
H       0.7896   0.0451   0.6905     H
C       0.7931   0.8855  0.35546     C
C      0.80276  0.83044   0.3482     C
H       0.8036   0.2934   0.7788     H
C      0.80972  0.01174   0.7427     C
C      0.81457  0.05063  0.71375     C
O      0.81835  0.24175  0.12217     O
C        0.821  0.19136  0.11517     C
H       0.8231    0.355   0.5255     H
O      0.82753  0.27493  0.71169     O
C      0.83028   0.2533  0.54818     C
O       0.8312  0.12819  0.65795     O
O      0.83592  0.23818  0.63471     O
O      0.83684  0.35529   0.6185     O
Fe     0.84049  0.17181  0.60872    Fe
H       0.8414   0.8597   0.8731     H
C       0.8419   0.8895   0.8561     C
C      0.84283  0.97655  0.80619     C
H        0.844    0.953   0.3755     H
C      0.84561  0.01981  0.77654     C
C      0.84599  0.33348  0.50656     C
C       0.8468  0.33131  0.23794     C
C      0.85029  0.91547  0.37023     C
H       0.8522   0.4532   0.6009     H
H       0.8533   0.0869   0.1192     H
O      0.85522  0.20848  0.55783     O
C       0.8555  0.09667  0.71916     C
C       0.8565  0.33923  0.30587     C
C      0.85739  0.27831  0.51245     C
H        0.859    0.299   0.3756     H
H       0.8607   0.3942   0.4686     H
C      0.86326  0.13812  0.68865     C
H       0.8683   0.3356   0.2136     H
C      0.86849  0.35665  0.47269     C
C      0.86928  0.80576  0.35487     C
H       0.8759   0.7683   0.3495     H
C      0.88628  0.34391  0.26983     C
C      0.88643  0.33159   0.3746     C
C      0.88665  0.06655   0.7822     C
C       0.8908  0.24777  0.48476     C
C      0.89114  0.16422  0.12403     C
C      0.89126  0.10498  0.75346     C
C      0.89198  0.36419  0.63742     C
C      0.89485  0.35819  0.33998     C
C        0.895  0.10814  0.12495     C
C      0.89667   0.4595  0.61391     C
H       0.8986   0.2102   0.4888     H
C       0.9018  0.32603  0.44501     C
O      0.90197  0.17847  0.69516     O
Fe     0.90455  0.25434  0.67461    Fe
C      0.90832  0.91124  0.84445     C
C      0.90872  0.95501  0.81933     C
H       0.9088   0.5373   0.5965     H
H       0.9114   0.0722   0.8055     H
C      0.91322  0.27089  0.45109     C
C      0.91721  0.89061  0.37743     C
C      0.91748  0.35208  0.40725     C
H        0.919    0.137   0.7573     H
O       0.9207  0.33204  0.66131     O
C      0.92646  0.83676  0.36965     C
C      0.92723  0.41871   0.6356     C
H       0.9282   0.5147   0.3363     H
C      0.93066  0.50948  0.61109     C
H        0.935   0.3561   0.2672     H
C       0.9352  0.40612  0.33955     C
H       0.9363   0.2493   0.4322     H
H       0.9408   0.4248   0.3163     H
H       0.9414   0.8083    0.853     H
H        0.948   0.2342   0.1323     H
O      0.95084  0.16149   0.6121     O
C      0.95126   0.1958  0.13255     C
H       0.9536   0.9701   0.8112     H
H       0.9563   0.9112   0.3877     H
C       0.9578    0.399  0.40571     C
C      0.96065  0.08307  0.13435     C
H       0.9632   0.0447   0.1353     H
C       0.9669  0.42708   0.3717     C
C      0.97299  0.52116  0.34904     C
H       0.9732   0.4503   0.4438     H
C      0.97786  0.88631  0.85763     C
C      0.98309  0.82969  0.85852     C
H       0.9858   0.5988    0.331     H
O      0.99057  0.23457  0.64293     O
O       0.9921  0.42032  0.43813     O
C      0.99264  0.42879  0.65408     C
C      0.99549  0.51912   0.6292     C
C      0.99928   0.1894  0.62859     C
