data_I
_chemical_name_common  '/home/zhangsd/repos/MofS-CGCNN/ML/data/SSD/clean_cifs/TOVJOF_clean'
_cell_length_a 18.54900
_cell_length_b 25.08500
_cell_length_c 35.49400
_cell_angle_alpha 91.60700
_cell_angle_beta  90.00000
_cell_angle_gamma 90.00000
_space_group_name_H-M_alt      'P 1'


loop_
_space_group_symop_operation_xyz
  'x, y, z' 

loop_
_atom_site_label
_atom_site_fract_x
_atom_site_fract_y
_atom_site_fract_z
_atom_site_type_symbol
C       0.0003  0.43079  0.84079     C
O      0.00043  0.23787  0.84835     O
C       0.0021     0.48   0.1324     C
C        0.004   0.8244  0.64425     C
C       0.0082   0.8058  0.13566     C
C      0.01191  0.87921  0.64118     C
H       0.0203   0.5961   0.1753     H
H       0.0249   0.4154   0.0725     H
C       0.0321  0.51932  0.15589     C
H       0.0353   0.9635   0.6857     H
C       0.0394   0.4268  0.12909     C
O      0.04017  0.16743   0.8812     O
H       0.0407   0.0525   0.3721     H
H       0.0437   0.8033   0.6519     H
C      0.04601   0.4006  0.09423     C
C       0.0461  0.08996  0.36999     C
H       0.0546   0.9053    0.118     H
C       0.0603  0.50943  0.88778     C
H       0.0608   0.2363   0.1486     H
H       0.0617   0.1296   0.7393     H
C        0.062  0.19958  0.36385     C
C       0.0626  0.42022  0.86097     C
H       0.0632   0.2521   0.0636     H
H       0.0657    0.423   0.1847     H
H       0.0674    0.237   0.3617     H
H       0.0683   0.0613   0.6931     H
O      0.06905  0.33334  0.83435     O
C       0.0703  0.40508  0.16088     C
H       0.0705   0.3542   0.2305     H
H       0.0747   0.5121   0.1697     H
C      0.08022  0.94844  0.67816     C
H       0.0808   0.5363   0.9038     H
C        0.082   0.9038  0.65408     C
C      0.08284  0.83195  0.13629     C
C       0.0835  0.35269  0.09116     C
C      0.08538  0.27351  0.04527     C
Fe     0.08854  0.25669  0.81937    Fe
C      0.09253   0.0999   0.7428     C
C      0.09263  0.45954  0.88447     C
H       0.0929   0.1769   0.1011     H
O      0.09309  0.18161  0.79657     O
C      0.09347  0.88499  0.12741     C
H       0.0949   0.2146   0.0049     H
C       0.0964  0.05934  0.71538     C
C       0.0974   0.3676  0.85723     C
C        0.099  0.32712   0.0533     C
H       0.1012   0.1498   0.1412     H
C      0.10425   0.2512  0.01036     C
C      0.10775  0.35718  0.15781     C
C      0.11211  0.11394  0.37809     C
C       0.1127     0.23   0.1438     C
C      0.11436  0.33098  0.12295     C
C      0.11896  0.34264  0.22765     C
C      0.12002  0.16875  0.37502     C
C       0.1211   0.1775   0.1248     C
C       0.1286   0.1401  0.80521     C
C       0.1315  0.35842  0.02643     C
H       0.1324   0.7659   0.1562     H
C      0.13372    0.097   0.7754     C
H       0.1353   0.4523   0.8983     H
O      0.13579  0.21534   0.9361     O
C      0.13675  0.28251  0.98348     C
H       0.1372   0.2293   0.1686     H
H        0.138   0.3322   0.2835     H
C       0.1397  0.80216  0.15013     C
H       0.1408   0.3951   0.0319     H
O       0.1413   0.2742  0.12284     O
C      0.14146  0.01588  0.72055     C
C       0.1442  0.97107  0.69127     C
C      0.14776  0.88177  0.64312     C
Fe     0.14851  0.17759  0.88485    Fe
C       0.1498  0.33877  0.19199     C
C      0.15037  0.33612  0.99152     C
O       0.1505  0.83905  0.61286     O
H       0.1518   0.0929   0.3857     H
O      0.15399  0.35869  0.87488     O
O      0.15437  0.24357  0.85901     O
O       0.1575  0.13303  0.83602     O
C       0.1591  0.32951  0.25915     C
C       0.1608   0.2612  0.94689     C
C       0.1609  0.90824  0.13237     C
H       0.1633   0.0614   0.5955     H
O      0.16617  0.27826  0.78277     O
H       0.1682   0.9445   0.1263     H
H       0.1726   0.3575   0.9731     H
H       0.1728    0.033    0.635     H
C      0.17878  0.05353  0.78057     C
C      0.18265  0.01298  0.75315     C
H       0.1906    0.297   0.7165     H
C       0.1922   0.1982  0.38074     C
C       0.1945   0.0382   0.6102     C
O      0.19458  0.24665  0.37419     O
C       0.1974   0.1643   0.1159     C
H       0.1977   0.1109   0.1584     H
H       0.1997   0.0036   0.5969     H
H       0.2016   0.1577   0.0883     H
H       0.2019    0.038   0.1281     H
O      0.20344  0.28774  0.92836     O
H       0.2069   0.0515   0.8028     H
C      0.20716  0.82542  0.15509     C
C      0.20995  0.94905  0.68031     C
C      0.21173   0.9044  0.65623     C
H       0.2125   0.0679   0.0895     H
H       0.2134   0.9833   0.7567     H
C      0.21779  0.87846  0.14621     C
C       0.2208  0.32178  0.18783     C
Fe     0.22265  0.29576  0.87349    Fe
H       0.2234   0.1259   0.6447     H
C       0.2266   0.3013  0.78857     C
C       0.2276   0.1163   0.1357     C
H       0.2276   0.1957   0.1225     H
C         0.23  0.31252  0.25498     C
C       0.2332   0.0635    0.115     C
C      0.23913  0.30866  0.71932     C
H       0.2418   0.3191   0.1635     H
O      0.24389  0.16812  0.39106     O
H        0.246   0.8051   0.1646     H
H       0.2463   0.9645   0.1893     H
O      0.24874  0.31344  0.32132     O
O      0.25126  0.31344  0.82132     O
H       0.2537   0.9645   0.6893     H
H        0.254   0.8051   0.6646     H
O      0.25611  0.16812  0.89106     O
H       0.2582   0.3191   0.6635     H
C      0.26087  0.30866  0.21932     C
C       0.2668   0.0635    0.615     C
C         0.27  0.31252  0.75498     C
C       0.2724   0.1163   0.6357     C
H       0.2724   0.1957   0.6225     H
C       0.2734   0.3013  0.28857     C
H       0.2766   0.1259   0.1447     H
Fe     0.27735  0.29576  0.37349    Fe
C       0.2792  0.32178  0.68783     C
C      0.28221  0.87846  0.64621     C
H       0.2866   0.9833   0.2567     H
H       0.2875   0.0679   0.5895     H
C      0.28827   0.9044  0.15623     C
C      0.29005  0.94905  0.18031     C
C      0.29284  0.82542  0.65509     C
H       0.2931   0.0515   0.3028     H
O      0.29656  0.28774  0.42836     O
H       0.2981    0.038   0.6281     H
H       0.2984   0.1577   0.5883     H
H       0.3003   0.0036   0.0969     H
H       0.3023   0.1109   0.6584     H
C       0.3026   0.1643   0.6159     C
O      0.30542  0.24665  0.87419     O
C       0.3055   0.0382   0.1102     C
C       0.3078   0.1982  0.88074     C
H       0.3094    0.297   0.2165     H
C      0.31735  0.01298  0.25315     C
C      0.32122  0.05353  0.28057     C
H       0.3272    0.033    0.135     H
H       0.3274   0.3575   0.4731     H
H       0.3318   0.9445   0.6263     H
O      0.33383  0.27826  0.28277     O
H       0.3367   0.0614   0.0955     H
C       0.3391  0.90824  0.63237     C
C       0.3392   0.2612  0.44689     C
C       0.3409  0.32951  0.75915     C
O       0.3425  0.13303  0.33602     O
O      0.34563  0.24357  0.35901     O
O      0.34601  0.35869  0.37488     O
H       0.3482   0.0929   0.8857     H
O       0.3495  0.83905  0.11286     O
C      0.34963  0.33612  0.49152     C
C       0.3502  0.33877  0.69199     C
Fe     0.35149  0.17759  0.38485    Fe
C      0.35224  0.88177  0.14312     C
C       0.3558  0.97107  0.19127     C
C      0.35854  0.01588  0.22055     C
O       0.3587   0.2742  0.62284     O
H       0.3592   0.3951   0.5319     H
C       0.3603  0.80216  0.65013     C
H        0.362   0.3322   0.7835     H
H       0.3628   0.2293   0.6686     H
C      0.36325  0.28251  0.48348     C
O      0.36421  0.21534   0.4361     O
H       0.3647   0.4523   0.3983     H
C      0.36628    0.097   0.2754     C
H       0.3676   0.7659   0.6562     H
C       0.3685  0.35842  0.52643     C
C       0.3714   0.1401  0.30521     C
C       0.3789   0.1775   0.6248     C
C      0.37998  0.16875  0.87502     C
C      0.38104  0.34264  0.72765     C
C      0.38564  0.33098  0.62295     C
C       0.3873     0.23   0.6438     C
C      0.38789  0.11394  0.87809     C
C      0.39225  0.35718  0.65781     C
C      0.39575   0.2512  0.51036     C
H       0.3988   0.1498   0.6412     H
C        0.401  0.32712   0.5533     C
C       0.4026   0.3676  0.35723     C
C       0.4036  0.05934  0.21538     C
H       0.4051   0.2146   0.5049     H
C      0.40653  0.88499  0.62741     C
O      0.40691  0.18161  0.29657     O
H       0.4071   0.1769   0.6011     H
C      0.40737  0.45954  0.38447     C
C      0.40747   0.0999   0.2428     C
Fe     0.41146  0.25669  0.31937    Fe
C      0.41462  0.27351  0.54527     C
C       0.4165  0.35269  0.59116     C
C      0.41716  0.83195  0.63629     C
C        0.418   0.9038  0.15408     C
H       0.4192   0.5363   0.4038     H
C      0.41978  0.94844  0.17816     C
H       0.4253   0.5121   0.6697     H
H       0.4295   0.3542   0.7305     H
C       0.4297  0.40508  0.66088     C
O      0.43095  0.33334  0.33435     O
H       0.4317   0.0613   0.1931     H
H       0.4326    0.237   0.8617     H
H       0.4343    0.423   0.6847     H
H       0.4368   0.2521   0.5636     H
C       0.4374  0.42022  0.36097     C
C        0.438  0.19958  0.86385     C
H       0.4383   0.1296   0.2393     H
H       0.4392   0.2363   0.6486     H
C       0.4397  0.50943  0.38778     C
H       0.4454   0.9053    0.618     H
C       0.4539  0.08996  0.86999     C
C      0.45399   0.4006  0.59423     C
H       0.4563   0.8033   0.1519     H
H       0.4593   0.0525   0.8721     H
O      0.45983  0.16743   0.3812     O
C       0.4606   0.4268  0.62909     C
H       0.4647   0.9635   0.1857     H
C       0.4679  0.51932  0.65589     C
H       0.4751   0.4154   0.5725     H
H       0.4797   0.5961   0.6753     H
C      0.48809  0.87921  0.14118     C
C       0.4918   0.8058  0.63566     C
C        0.496   0.8244  0.14425     C
C       0.4979     0.48   0.6324     C
O      0.49957  0.23787  0.34835     O
C       0.4997  0.43079  0.34079     C
C       0.5003  0.56921  0.65921     C
O      0.50043  0.76213  0.65165     O
C       0.5021     0.52   0.3676     C
C        0.504   0.1756  0.85575     C
C       0.5082   0.1942  0.36434     C
C      0.51191  0.12079  0.85882     C
H       0.5203   0.4039   0.3247     H
H       0.5249   0.5846   0.4275     H
C       0.5321  0.48068  0.34411     C
H       0.5353   0.0365   0.8143     H
C       0.5394   0.5732  0.37091     C
O      0.54017  0.83257   0.6188     O
H       0.5407   0.9475   0.1279     H
H       0.5437   0.1967   0.8481     H
C      0.54601   0.5994  0.40577     C
C       0.5461  0.91004  0.13001     C
H       0.5546   0.0947    0.382     H
C       0.5603  0.49057  0.61222     C
H       0.5608   0.7637   0.3514     H
H       0.5617   0.8704   0.7607     H
C        0.562  0.80042  0.13615     C
C       0.5626  0.57978  0.63903     C
H       0.5632   0.7479   0.4364     H
H       0.5657    0.577   0.3153     H
H       0.5674    0.763   0.1383     H
H       0.5683   0.9387   0.8069     H
O      0.56905  0.66666  0.66565     O
C       0.5703  0.59492  0.33912     C
H       0.5705   0.6458   0.2695     H
H       0.5747   0.4879   0.3303     H
C      0.58022  0.05156  0.82184     C
H       0.5808   0.4637   0.5962     H
C        0.582   0.0962  0.84592     C
C      0.58284  0.16805  0.36371     C
C       0.5835  0.64731  0.40884     C
C      0.58538  0.72649  0.45473     C
Fe     0.58854  0.74331  0.68063    Fe
C      0.59253   0.9001   0.7572     C
C      0.59263  0.54046  0.61553     C
H       0.5929   0.8231   0.3989     H
O      0.59309  0.81839  0.70343     O
C      0.59347  0.11501  0.37259     C
H       0.5949   0.7854   0.4951     H
C       0.5964  0.94066  0.78462     C
C       0.5974   0.6324  0.64277     C
C        0.599  0.67288   0.4467     C
H       0.6012   0.8502   0.3588     H
C      0.60425   0.7488  0.48964     C
C      0.60775  0.64282  0.34219     C
C      0.61211  0.88606  0.12191     C
C       0.6127     0.77   0.3562     C
C      0.61436  0.66902  0.37705     C
C      0.61896  0.65736  0.27235     C
C      0.62002  0.83125  0.12498     C
C       0.6211   0.8225   0.3752     C
C       0.6286   0.8599  0.69479     C
C       0.6315  0.64158  0.47357     C
H       0.6324   0.2341   0.3438     H
C      0.63372    0.903   0.7246     C
H       0.6353   0.5477   0.6017     H
O      0.63579  0.78466   0.5639     O
C      0.63675  0.71749  0.51652     C
H       0.6372   0.7707   0.3314     H
H        0.638   0.6678   0.2165     H
C       0.6397  0.19784  0.34987     C
H       0.6408   0.6049   0.4681     H
O       0.6413   0.7258  0.37716     O
C      0.64146  0.98412  0.77945     C
C       0.6442  0.02893  0.80873     C
C      0.64776  0.11823  0.85688     C
Fe     0.64851  0.82241  0.61515    Fe
C       0.6498  0.66123  0.30801     C
C      0.65037  0.66388  0.50848     C
O       0.6505  0.16095  0.88714     O
H       0.6518   0.9071   0.1143     H
O      0.65399  0.64131  0.62512     O
O      0.65437  0.75643  0.64099     O
O       0.6575  0.86697  0.66398     O
C       0.6591  0.67049  0.24085     C
C       0.6608   0.7388  0.55311     C
C       0.6609  0.09176  0.36763     C
H       0.6633   0.9386   0.9045     H
O      0.66617  0.72174  0.71723     O
H       0.6682   0.0555   0.3737     H
H       0.6726   0.6425   0.5269     H
H       0.6728    0.967    0.865     H
C      0.67878  0.94647  0.71943     C
C      0.68265  0.98702  0.74685     C
H       0.6906    0.703   0.7835     H
C       0.6922   0.8018  0.11926     C
C       0.6945   0.9618   0.8898     C
O      0.69458  0.75335  0.12581     O
C       0.6974   0.8357   0.3841     C
H       0.6977   0.8891   0.3416     H
H       0.6997   0.9964   0.9031     H
H       0.7016   0.8423   0.4117     H
H       0.7019    0.962   0.3719     H
O      0.70344  0.71226  0.57164     O
H       0.7069   0.9485   0.6972     H
C      0.70716  0.17458  0.34491     C
C      0.70995  0.05095  0.81969     C
C      0.71173   0.0956  0.84377     C
H       0.7125   0.9321   0.4105     H
H       0.7134   0.0167   0.7433     H
C      0.71779  0.12154  0.35379     C
C       0.7208  0.67822  0.31217     C
Fe     0.72265  0.70424  0.62651    Fe
H       0.7234   0.8741   0.8553     H
C       0.7266   0.6987  0.71143     C
H       0.7276   0.8043   0.3775     H
C       0.7276   0.8837   0.3643     C
C         0.73  0.68748  0.24502     C
C       0.7332   0.9365    0.385     C
C      0.73913  0.69134  0.78068     C
H       0.7418   0.6809   0.3365     H
O      0.74389  0.83188  0.10894     O
H        0.746   0.1949   0.3354     H
H       0.7463   0.0355   0.3107     H
O      0.74874  0.68656  0.17868     O
O      0.75126  0.68656  0.67868     O
H       0.7537   0.0355   0.8107     H
H        0.754   0.1949   0.8354     H
O      0.75611  0.83188  0.60894     O
H       0.7582   0.6809   0.8365     H
C      0.76087  0.69134  0.28068     C
C       0.7668   0.9365    0.885     C
C         0.77  0.68748  0.74502     C
H       0.7724   0.8043   0.8775     H
C       0.7724   0.8837   0.8643     C
C       0.7734   0.6987  0.21143     C
H       0.7766   0.8741   0.3553     H
Fe     0.77735  0.70424  0.12651    Fe
C       0.7792  0.67822  0.81217     C
C      0.78221  0.12154  0.85379     C
H       0.7866   0.0167   0.2433     H
H       0.7875   0.9321   0.9105     H
C      0.78827   0.0956  0.34377     C
C      0.79005  0.05095  0.31969     C
C      0.79284  0.17458  0.84491     C
H       0.7931   0.9485   0.1972     H
O      0.79656  0.71226  0.07164     O
H       0.7981    0.962   0.8719     H
H       0.7984   0.8423   0.9117     H
H       0.8003   0.9964   0.4031     H
H       0.8023   0.8891   0.8416     H
C       0.8026   0.8357   0.8841     C
O      0.80542  0.75335  0.62581     O
C       0.8055   0.9618   0.3898     C
C       0.8078   0.8018  0.61926     C
H       0.8094    0.703   0.2835     H
C      0.81735  0.98702  0.24685     C
C      0.82122  0.94647  0.21943     C
H       0.8272    0.967    0.365     H
H       0.8274   0.6425   0.0269     H
H       0.8318   0.0555   0.8737     H
O      0.83383  0.72174  0.21723     O
H       0.8367   0.9386   0.4045     H
C       0.8391  0.09176  0.86763     C
C       0.8392   0.7388  0.05311     C
C       0.8409  0.67049  0.74085     C
O       0.8425  0.86697  0.16398     O
O      0.84563  0.75643  0.14099     O
O      0.84601  0.64131  0.12512     O
H       0.8482   0.9071   0.6143     H
O       0.8495  0.16095  0.38714     O
C      0.84963  0.66388  0.00848     C
C       0.8502  0.66123  0.80801     C
Fe     0.85149  0.82241  0.11515    Fe
C      0.85224  0.11823  0.35688     C
C       0.8558  0.02893  0.30873     C
C      0.85854  0.98412  0.27945     C
O       0.8587   0.7258  0.87716     O
H       0.8592   0.6049   0.9681     H
C       0.8603  0.19784  0.84987     C
H        0.862   0.6678   0.7165     H
H       0.8628   0.7707   0.8314     H
C      0.86325  0.71749  0.01652     C
O      0.86421  0.78466   0.0639     O
H       0.8647   0.5477   0.1017     H
C      0.86628    0.903   0.2246     C
H       0.8676   0.2341   0.8438     H
C       0.8685  0.64158  0.97357     C
C       0.8714   0.8599  0.19479     C
C       0.8789   0.8225   0.8752     C
C      0.87998  0.83125  0.62498     C
C      0.88104  0.65736  0.77235     C
C      0.88564  0.66902  0.87705     C
C       0.8873     0.77   0.8562     C
C      0.88789  0.88606  0.62191     C
C      0.89225  0.64282  0.84219     C
C      0.89575   0.7488  0.98964     C
H       0.8988   0.8502   0.8588     H
C        0.901  0.67288   0.9467     C
C       0.9026   0.6324  0.14277     C
C       0.9036  0.94066  0.28462     C
H       0.9051   0.7854   0.9951     H
C      0.90653  0.11501  0.87259     C
O      0.90691  0.81839  0.20343     O
H       0.9071   0.8231   0.8989     H
C      0.90737  0.54046  0.11553     C
C      0.90747   0.9001   0.2572     C
Fe     0.91146  0.74331  0.18063    Fe
C      0.91462  0.72649  0.95473     C
C       0.9165  0.64731  0.90884     C
C      0.91716  0.16805  0.86371     C
C        0.918   0.0962  0.34592     C
H       0.9192   0.4637   0.0962     H
C      0.91978  0.05156  0.32184     C
H       0.9253   0.4879   0.8303     H
H       0.9295   0.6458   0.7695     H
C       0.9297  0.59492  0.83912     C
O      0.93095  0.66666  0.16565     O
H       0.9317   0.9387   0.3069     H
H       0.9326    0.763   0.6383     H
H       0.9343    0.577   0.8153     H
H       0.9368   0.7479   0.9364     H
C       0.9374  0.57978  0.13903     C
C        0.938  0.80042  0.63615     C
H       0.9383   0.8704   0.2607     H
H       0.9392   0.7637   0.8514     H
C       0.9397  0.49057  0.11222     C
H       0.9454   0.0947    0.882     H
C       0.9539  0.91004  0.63001     C
C      0.95399   0.5994  0.90577     C
H       0.9563   0.1967   0.3481     H
H       0.9593   0.9475   0.6279     H
O      0.95983  0.83257   0.1188     O
C       0.9606   0.5732  0.87091     C
H       0.9647   0.0365   0.3143     H
C       0.9679  0.48068  0.84411     C
H       0.9751   0.5846   0.9275     H
H       0.9797   0.4039   0.8247     H
C      0.98809  0.12079  0.35882     C
C       0.9918   0.1942  0.86434     C
C        0.996   0.1756  0.35575     C
C       0.9979     0.52   0.8676     C
O      0.99957  0.76213  0.15165     O
C       0.9997  0.56921  0.15921     C
