data_I
_chemical_name_common  '/home/zhangsd/repos/MofS-CGCNN/ML/data/SSD/clean_cifs/TOVKEW_clean'
_cell_length_a 14.92080
_cell_length_b 38.39800
_cell_length_c 41.28000
_cell_angle_alpha 90.00000
_cell_angle_beta  90.00000
_cell_angle_gamma 90.00000
_space_group_name_H-M_alt      'P 1'


loop_
_space_group_symop_operation_xyz
  'x, y, z' 

loop_
_atom_site_label
_atom_site_fract_x
_atom_site_fract_y
_atom_site_fract_z
_atom_site_type_symbol
C        0.004    0.106   0.0261     C
C        0.004    0.394   0.0261     C
C        0.004    0.606   0.4739     C
C        0.004    0.894   0.4739     C
H       0.0118    0.039    0.982     H
H       0.0118    0.461    0.982     H
H       0.0118    0.539    0.518     H
H       0.0118    0.961    0.518     H
C       0.0123   0.0727   0.5165     C
C       0.0123   0.4273   0.5165     C
C       0.0123   0.5727   0.9835     C
C       0.0123   0.9273   0.9835     C
O       0.0173   0.2129   0.1166     O
O       0.0173   0.2871   0.1166     O
O       0.0173   0.7129   0.3834     O
O       0.0173   0.7871   0.3834     O
C       0.0322   0.0595   0.9915     C
C       0.0322   0.4405   0.9915     C
C       0.0322   0.5595   0.5085     C
C       0.0322   0.9405   0.5085     C
H       0.0371   0.1178    0.539     H
H       0.0371   0.3822    0.539     H
H       0.0371   0.6178    0.961     H
H       0.0371   0.8822    0.961     H
Fe     0.04004     0.25  0.68737    Fe
Fe     0.04004     0.75  0.81263    Fe
O       0.0428  0.21227  0.16952     O
O       0.0428  0.28773  0.16952     O
O       0.0428  0.71227  0.33048     O
O       0.0428  0.78773  0.33048     O
C       0.0567  0.20189  0.14129     C
C       0.0567  0.29811  0.14129     C
C       0.0567  0.70189  0.35871     C
C       0.0567  0.79811  0.35871     C
Fe      0.0722     0.25  0.60808    Fe
Fe      0.0722     0.75  0.89192    Fe
C       0.0878   0.1234   0.0156     C
C       0.0878   0.3766   0.0156     C
C       0.0878   0.6234   0.4844     C
C       0.0878   0.8766   0.4844     C
C       0.0946   0.0551   0.5284     C
C       0.0946   0.4449   0.5284     C
C       0.0946   0.5551   0.9716     C
C       0.0946   0.9449   0.9716     C
H       0.1011    0.173   0.7585     H
H       0.1011    0.327   0.7585     H
H       0.1011    0.673   0.7415     H
H       0.1011    0.827   0.7415     H
H        0.103   0.0795   0.5706     H
H        0.103   0.1681   0.0884     H
H        0.103   0.3319   0.0884     H
H        0.103   0.4205   0.5706     H
H        0.103   0.5795   0.9294     H
H        0.103   0.6681   0.4116     H
H        0.103   0.8319   0.4116     H
H        0.103   0.9205   0.9294     H
H       0.1043   0.1453   0.0232     H
H       0.1043   0.3547   0.0232     H
H       0.1043   0.6453   0.4768     H
H       0.1043   0.8547   0.4768     H
O       0.1086  0.21284   0.7116     O
O       0.1086  0.28716   0.7116     O
O       0.1086  0.71284   0.7884     O
O       0.1086  0.78716   0.7884     O
C       0.1112    0.076   0.9788     C
C       0.1112    0.424   0.9788     C
C       0.1112    0.576   0.5212     C
C       0.1112    0.924   0.5212     C
O       0.1205     0.25  0.65085     O
O       0.1205     0.75  0.84915     O
C       0.1242  0.17422  0.13636     C
C       0.1242  0.32578  0.13636     C
C       0.1242  0.67422  0.36364     C
C       0.1242  0.82578  0.36364     C
H       0.1275   0.0281   0.4884     H
H       0.1275   0.4719   0.4884     H
H       0.1275   0.5281   0.0116     H
H       0.1275   0.9719   0.0116     H
C       0.1292  0.06215  0.55799     C
C       0.1292  0.43785  0.55799     C
C       0.1292  0.56215  0.94201     C
C       0.1292  0.93785  0.94201     C
C       0.1374  0.16022  0.10566     C
C       0.1374  0.33978  0.10566     C
C       0.1374  0.66022  0.39434     C
C       0.1374  0.83978  0.39434     C
C         0.14   0.1048   0.9938     C
C         0.14   0.3952   0.9938     C
C         0.14   0.6048   0.5062     C
C         0.14   0.8952   0.5062     C
H       0.1411    0.067   0.9609     H
H       0.1411    0.433   0.9609     H
H       0.1411    0.567   0.5391     H
H       0.1411    0.933   0.5391     H
C       0.1431  0.03172     0.51     C
C       0.1431  0.46828     0.51     C
C       0.1431  0.53172     0.99     C
C       0.1431  0.96828     0.99     C
H       0.1454   0.1355   0.7977     H
H       0.1454   0.3645   0.7977     H
H       0.1454   0.6355   0.7023     H
H       0.1454   0.8645   0.7023     H
O       0.1558   0.2132   0.5912     O
O       0.1558   0.2868   0.5912     O
O       0.1558   0.7132   0.9088     O
O       0.1558   0.7868   0.9088     O
C       0.1597  0.16484  0.75832     C
C       0.1597  0.33516  0.75832     C
C       0.1597  0.66484  0.74168     C
C       0.1597  0.83516  0.74168     C
H       0.1685   0.1699    0.182     H
H       0.1685   0.3301    0.182     H
H       0.1685   0.6699    0.318     H
H       0.1685   0.8301    0.318     H
H       0.1726   0.1695   0.5482     H
H       0.1726   0.3305   0.5482     H
H       0.1726   0.6695   0.9518     H
H       0.1726   0.8305   0.9518     H
C       0.1764  0.16141  0.16112     C
C       0.1764  0.33859  0.16112     C
C       0.1764  0.66141  0.33888     C
C       0.1764  0.83859  0.33888     C
C       0.1861  0.20243  0.71071     C
C       0.1861  0.29757  0.71071     C
C       0.1861  0.70243  0.78929     C
C       0.1861  0.79757  0.78929     C
C       0.1862  0.14196   0.7818     C
C       0.1862  0.35804   0.7818     C
C       0.1862  0.64196   0.7182     C
C       0.1862  0.85804   0.7182     C
C       0.2005  0.13494  0.10059     C
C       0.2005  0.36506  0.10059     C
C       0.2005  0.63494  0.39941     C
C       0.2005  0.86506  0.39941     C
C       0.2027  0.04416  0.57001     C
C       0.2027  0.45584  0.57001     C
C       0.2027  0.54416  0.92999     C
C       0.2027  0.95584  0.92999     C
H       0.2065   0.1255     0.08     H
H       0.2065   0.3745     0.08     H
H       0.2065   0.6255     0.42     H
H       0.2065   0.8745     0.42     H
C        0.216  0.17586  0.73501     C
C        0.216  0.32414  0.73501     C
C        0.216  0.67586  0.76499     C
C        0.216  0.82414  0.76499     C
C       0.2175  0.01289  0.52373     C
C       0.2175  0.48711  0.52373     C
C       0.2175  0.51289  0.97627     C
C       0.2175  0.98711  0.97627     C
C        0.219   0.1199   0.9759     C
C        0.219   0.3801   0.9759     C
C        0.219   0.6199   0.5241     C
C        0.219   0.8801   0.5241     C
H       0.2213   0.0493    0.591     H
H       0.2213   0.4507    0.591     H
H       0.2213   0.5493    0.909     H
H       0.2213   0.9507    0.909     H
H         0.23    0.126   0.8433     H
H         0.23    0.374   0.8433     H
H         0.23    0.626   0.6567     H
H         0.23    0.874   0.6567     H
C       0.2305  0.20308  0.59942     C
C       0.2305  0.29692  0.59942     C
C       0.2305  0.70308  0.90058     C
C       0.2305  0.79692  0.90058     C
C       0.2321  0.16354  0.55194     C
C       0.2321  0.33646  0.55194     C
C       0.2321  0.66354  0.94806     C
C       0.2321  0.83646  0.94806     C
C       0.2401  0.13632  0.15561     C
C       0.2401  0.36368  0.15561     C
C       0.2401  0.63632  0.34439     C
C       0.2401  0.86368  0.34439     C
H       0.2411   0.1306   0.5145     H
H       0.2411   0.3694   0.5145     H
H       0.2411   0.6306   0.9855     H
H       0.2411   0.8694   0.9855     H
O       0.2431   0.1501    0.994     O
O       0.2431   0.3499    0.994     O
O       0.2431   0.6501    0.506     O
O       0.2431   0.8499    0.506     O
H       0.2443   0.0046   0.9885     H
H       0.2443   0.4954   0.9885     H
H       0.2443   0.5046   0.5115     H
H       0.2443   0.9954   0.5115     H
O        0.246  0.21222  0.69124     O
O        0.246  0.28778  0.69124     O
O        0.246  0.71222  0.80876     O
O        0.246  0.78778  0.80876     O
Fe     0.24727     0.25  0.65692    Fe
Fe     0.24727     0.75  0.84308    Fe
C       0.2495   0.0196   0.5533     C
C       0.2495   0.4804   0.5533     C
C       0.2495   0.5196   0.9467     C
C       0.2495   0.9804   0.9467     C
C       0.2556  0.12294  0.12522     C
C       0.2556  0.37706  0.12522     C
C       0.2556  0.62294  0.37478     C
C       0.2556  0.87706  0.37478     C
O       0.2565    0.112   0.9529     O
O       0.2565    0.388   0.9529     O
O       0.2565    0.612   0.5471     O
O       0.2565    0.888   0.5471     O
H       0.2646   0.0379   0.9105     H
H       0.2646   0.4621   0.9105     H
H       0.2646   0.5379   0.5895     H
H       0.2646   0.9621   0.5895     H
C       0.2701  0.12845  0.78254     C
C       0.2701  0.37155  0.78254     C
C       0.2701  0.62845  0.71746     C
C       0.2701  0.87155  0.71746     C
C       0.2708  0.10832  0.83881     C
C       0.2708  0.39168  0.83881     C
C       0.2708  0.60832  0.66119     C
C       0.2708  0.89168  0.66119     C
O       0.2722   0.2133  0.62349     O
O       0.2722   0.2867  0.62349     O
O       0.2722   0.7133  0.87651     O
O       0.2722   0.7867  0.87651     O
H       0.2737   0.1281    0.173     H
H       0.2737   0.3719    0.173     H
H       0.2737   0.6281    0.327     H
H       0.2737   0.8719    0.327     H
C       0.2741  0.14041   0.5313     C
C       0.2741  0.35959   0.5313     C
C       0.2741  0.64041   0.9687     C
C       0.2741  0.85959   0.9687     C
C       0.2748  0.17748  0.57707     C
C       0.2748  0.32252  0.57707     C
C       0.2748  0.67748  0.92293     C
C       0.2748  0.82252  0.92293     C
H        0.275   0.0057   0.8874     H
H        0.275   0.4943   0.8874     H
H        0.275   0.5057   0.6126     H
H        0.275   0.9943   0.6126     H
H       0.2764   0.0895   0.8846     H
H       0.2764   0.4105   0.8846     H
H       0.2764   0.5895   0.6154     H
H       0.2764   0.9105   0.6154     H
H        0.299    0.079   0.5007     H
H        0.299    0.421   0.5007     H
H        0.299    0.579   0.9993     H
H        0.299    0.921   0.9993     H
C       0.2995  0.08609   0.8639     C
C       0.2995  0.41391   0.8639     C
C       0.2995  0.58609   0.6361     C
C       0.2995  0.91391   0.6361     C
C       0.3013  0.16321  0.73567     C
C       0.3013  0.33679  0.73567     C
C       0.3013  0.66321  0.76433     C
C       0.3013  0.83679  0.76433     C
C       0.3017   0.1043  0.80844     C
C       0.3017   0.3957  0.80844     C
C       0.3017   0.6043  0.69156     C
C       0.3017   0.8957  0.69156     C
C       0.3057  0.01989  0.90338     C
C       0.3057  0.48011  0.90338     C
C       0.3057  0.51989  0.59662     C
C       0.3057  0.98011  0.59662     C
H       0.3241   0.0715   0.1605     H
H       0.3241   0.4285   0.1605     H
H       0.3241   0.5715   0.3395     H
H       0.3241   0.9285   0.3395     H
C       0.3257  0.09629  0.11859     C
C       0.3257  0.40371  0.11859     C
C       0.3257  0.59629  0.38141     C
C       0.3257  0.90371  0.38141     C
C       0.3282  0.14014  0.75932     C
C       0.3282  0.35986  0.75932     C
C       0.3282  0.64014  0.74068     C
C       0.3282  0.85986  0.74068     C
C       0.3316  0.00338  0.56708     C
C       0.3316  0.49662  0.56708     C
C       0.3316  0.50338  0.93292     C
C       0.3316  0.99662  0.93292     C
H         0.34   0.0382   0.9648     H
H         0.34   0.4618   0.9648     H
H         0.34   0.5382   0.5352     H
H         0.34   0.9618   0.5352     H
H       0.3421   0.1703   0.7199     H
H       0.3421   0.3297   0.7199     H
H       0.3421   0.6703   0.7801     H
H       0.3421   0.8297   0.7801     H
H       0.3445   0.1084   0.0723     H
H       0.3445   0.3916   0.0723     H
H       0.3445   0.6084   0.4277     H
H       0.3445   0.8916   0.4277     H
C       0.3503  0.07167  0.14004     C
C       0.3503  0.42833  0.14004     C
C       0.3503  0.57167  0.35996     C
C       0.3503  0.92833  0.35996     C
C       0.3597  0.08168  0.49626     C
C       0.3597  0.41832  0.49626     C
C       0.3597  0.58168  0.00374     C
C       0.3597  0.91832  0.00374     C
C       0.3598   0.0598  0.85934     C
C       0.3598   0.4402  0.85934     C
C       0.3598   0.5598  0.64066     C
C       0.3598   0.9402  0.64066     C
C       0.3612   0.1688  0.58123     C
C       0.3612   0.3312  0.58123     C
C       0.3612   0.6688  0.91877     C
C       0.3612   0.8312  0.91877     C
C       0.3618  0.09295  0.08844     C
C       0.3618  0.40705  0.08844     C
C       0.3618  0.59295  0.41156     C
C       0.3618  0.90705  0.41156     C
C       0.3622  0.13135  0.53461     C
C       0.3622  0.36865  0.53461     C
C       0.3622  0.63135  0.96539     C
C       0.3622  0.86865  0.96539     C
C       0.3642  0.08228  0.80574     C
C       0.3642  0.41772  0.80574     C
C       0.3642  0.58228  0.69426     C
C       0.3642  0.91772  0.69426     C
H       0.3645   0.0428   0.4642     H
H       0.3645   0.4572   0.4642     H
H       0.3645   0.5428   0.0358     H
H       0.3645   0.9572   0.0358     H
H       0.3682   0.0458    0.595     H
H       0.3682   0.4542    0.595     H
H       0.3682   0.5458    0.905     H
H       0.3682   0.9542    0.905     H
C       0.3806  0.02018  0.95743     C
C       0.3806  0.47982  0.95743     C
C       0.3806  0.52018  0.54257     C
C       0.3806  0.97982  0.54257     C
H       0.3871   0.1323   0.7595     H
H       0.3871   0.3677   0.7595     H
H       0.3871   0.6323   0.7405     H
H       0.3871   0.8677   0.7405     H
C       0.3878  0.03692  0.88771     C
C       0.3878  0.46308  0.88771     C
C       0.3878  0.53692  0.61229     C
C       0.3878  0.96308  0.61229     C
C       0.3915  0.05957  0.83118     C
C       0.3915  0.44043  0.83118     C
C       0.3915  0.55957  0.66882     C
C       0.3915  0.94043  0.66882     C
H       0.3929   0.1784   0.5985     H
H       0.3929   0.3216   0.5985     H
H       0.3929   0.6784   0.9015     H
H       0.3929   0.8216   0.9015     H
H       0.3941   0.0808    0.786     H
H       0.3941   0.4192    0.786     H
H       0.3941   0.5808    0.714     H
H       0.3941   0.9192    0.714     H
H       0.3959   0.0777   0.9201     H
H       0.3959   0.4223   0.9201     H
H       0.3959   0.5777   0.5799     H
H       0.3959   0.9223   0.5799     H
C       0.3977  0.03122  0.57904     C
C       0.3977  0.46878  0.57904     C
C       0.3977  0.53122  0.92096     C
C       0.3977  0.96878  0.92096     C
H       0.3979   0.0064   0.9761     H
H       0.3979   0.4936   0.9761     H
H       0.3979   0.5064   0.5239     H
H       0.3979   0.9936   0.5239     H
C       0.3994  0.05951  0.47451     C
C       0.3994  0.44049  0.47451     C
C       0.3994  0.55951  0.02549     C
C       0.3994  0.94049  0.02549     C
H        0.401   0.0861    0.982     H
H        0.401   0.4139    0.982     H
H        0.401   0.5861    0.518     H
H        0.401   0.9139    0.518     H
C       0.4048  0.14576   0.5603     C
C       0.4048  0.35424   0.5603     C
C       0.4048  0.64576   0.9397     C
C       0.4048  0.85424   0.9397     C
C       0.4064  0.10784   0.5119     C
C       0.4064  0.39216   0.5119     C
C       0.4064  0.60784   0.9881     C
C       0.4064  0.89216   0.9881     C
C       0.4138  0.04655  0.13238     C
C       0.4138  0.45345  0.13238     C
C       0.4138  0.54655  0.36762     C
C       0.4138  0.95345  0.36762     C
H       0.4151   0.0459    0.561     H
H       0.4151   0.4541    0.561     H
H       0.4151   0.5459    0.939     H
H       0.4151   0.9541    0.939     H
H       0.4201   0.0194   0.4213     H
H       0.4201   0.4806   0.4213     H
H       0.4201   0.5194   0.0787     H
H       0.4201   0.9806   0.0787     H
C       0.4234  0.06733  0.08123     C
C       0.4234  0.43267  0.08123     C
C       0.4234  0.56733  0.41877     C
C       0.4234  0.93267  0.41877     C
H       0.4245   0.0068   0.6393     H
H       0.4245   0.4932   0.6393     H
H       0.4245   0.5068   0.8607     H
H       0.4245   0.9932   0.8607     H
H       0.4296   0.0308   0.1485     H
H       0.4296   0.4692   0.1485     H
H       0.4296   0.5308   0.3515     H
H       0.4296   0.9692   0.3515     H
C       0.4356  0.05918  0.91305     C
C       0.4356  0.44082  0.91305     C
C       0.4356  0.55918  0.58695     C
C       0.4356  0.94082  0.58695     C
H       0.4361   0.0434   0.8266     H
H       0.4361   0.4566   0.8266     H
H       0.4361   0.5434   0.6734     H
H       0.4361   0.9566   0.6734     H
H       0.4456   0.0661   0.0602     H
H       0.4456   0.4339   0.0602     H
H       0.4456   0.5661   0.4398     H
H       0.4456   0.9339   0.4398     H
H       0.4534   0.0051   0.0508     H
C       0.4534  0.00771  0.87685     C
C       0.4534  0.49229  0.87685     C
H       0.4534   0.4949   0.0508     H
H       0.4534   0.5051   0.4492     H
C       0.4534  0.50771  0.62315     C
C       0.4534  0.99229  0.62315     C
H       0.4534   0.9949   0.4492     H
C       0.4537   0.0433  0.10387     C
C       0.4537   0.4567  0.10387     C
C       0.4537   0.5433  0.39613     C
C       0.4537   0.9567  0.39613     C
C       0.4628  0.08491  0.98461     C
C       0.4628  0.41509  0.98461     C
C       0.4628  0.58491  0.51539     C
C       0.4628  0.91509  0.51539     C
C       0.4645  0.03726  0.94284     C
H       0.4645   0.1402   0.5641     H
H       0.4645   0.3598   0.5641     H
C       0.4645  0.46274  0.94284     C
C       0.4645  0.53726  0.55716     C
H       0.4645   0.6402   0.9359     H
H       0.4645   0.8598   0.9359     H
C       0.4645  0.96274  0.55716     C
H       0.4699   0.1238   0.0177     H
H       0.4699   0.3762   0.0177     H
H       0.4699   0.6238   0.4823     H
H       0.4699   0.8762   0.4823     H
C       0.4728  0.00879   0.4309     C
C       0.4728  0.49121   0.4309     C
C       0.4728  0.50879   0.0691     C
C       0.4728  0.99121   0.0691     C
C       0.4822    0.015  0.59423     C
C       0.4822    0.485  0.59423     C
C       0.4822    0.515  0.90577     C
C       0.4822    0.985  0.90577     C
H       0.4881   0.0698   0.9034     H
H       0.4881   0.4302   0.9034     H
H       0.4881   0.5698   0.5966     H
H       0.4881   0.9302   0.5966     H
C       0.4898  0.06139  0.46752     C
C       0.4898  0.43861  0.46752     C
C       0.4898  0.56139  0.03248     C
C       0.4898  0.93861  0.03248     C
H        0.494   0.0181    0.367     H
H        0.494   0.4819    0.367     H
H        0.494   0.5181    0.133     H
H        0.494   0.9819    0.133     H
C       0.4948  0.10787  0.50648     C
C       0.4948  0.39213  0.50648     C
C       0.4948  0.60787  0.99352     C
C       0.4948  0.89213  0.99352     C
C       0.5052  0.10787  0.00648     C
C       0.5052  0.39213  0.00648     C
C       0.5052  0.60787  0.49352     C
C       0.5052  0.89213  0.49352     C
H        0.506   0.0181    0.867     H
H        0.506   0.4819    0.867     H
H        0.506   0.5181    0.633     H
H        0.506   0.9819    0.633     H
C       0.5102  0.06139  0.96752     C
C       0.5102  0.43861  0.96752     C
C       0.5102  0.56139  0.53248     C
C       0.5102  0.93861  0.53248     C
H       0.5119   0.0698   0.4034     H
H       0.5119   0.4302   0.4034     H
H       0.5119   0.5698   0.0966     H
H       0.5119   0.9302   0.0966     H
C       0.5178    0.015  0.09423     C
C       0.5178    0.485  0.09423     C
C       0.5178    0.515  0.40577     C
C       0.5178    0.985  0.40577     C
C       0.5272  0.00879   0.9309     C
C       0.5272  0.49121   0.9309     C
C       0.5272  0.50879   0.5691     C
C       0.5272  0.99121   0.5691     C
H       0.5301   0.1238   0.5177     H
H       0.5301   0.3762   0.5177     H
H       0.5301   0.6238   0.9823     H
H       0.5301   0.8762   0.9823     H
C       0.5355  0.03726  0.44284     C
H       0.5355   0.1402   0.0641     H
H       0.5355   0.3598   0.0641     H
C       0.5355  0.46274  0.44284     C
C       0.5355  0.53726  0.05716     C
H       0.5355   0.6402   0.4359     H
H       0.5355   0.8598   0.4359     H
C       0.5355  0.96274  0.05716     C
C       0.5372  0.08491  0.48461     C
C       0.5372  0.41509  0.48461     C
C       0.5372  0.58491  0.01539     C
C       0.5372  0.91509  0.01539     C
C       0.5463   0.0433  0.60387     C
C       0.5463   0.4567  0.60387     C
C       0.5463   0.5433  0.89613     C
C       0.5463   0.9567  0.89613     C
H       0.5466   0.0051   0.5508     H
C       0.5466  0.00771  0.37685     C
C       0.5466  0.49229  0.37685     C
H       0.5466   0.4949   0.5508     H
H       0.5466   0.5051   0.9492     H
C       0.5466  0.50771  0.12315     C
C       0.5466  0.99229  0.12315     C
H       0.5466   0.9949   0.9492     H
H       0.5544   0.0661   0.5602     H
H       0.5544   0.4339   0.5602     H
H       0.5544   0.5661   0.9398     H
H       0.5544   0.9339   0.9398     H
H       0.5639   0.0434   0.3266     H
H       0.5639   0.4566   0.3266     H
H       0.5639   0.5434   0.1734     H
H       0.5639   0.9566   0.1734     H
C       0.5644  0.05918  0.41305     C
C       0.5644  0.44082  0.41305     C
C       0.5644  0.55918  0.08695     C
C       0.5644  0.94082  0.08695     C
H       0.5704   0.0308   0.6485     H
H       0.5704   0.4692   0.6485     H
H       0.5704   0.5308   0.8515     H
H       0.5704   0.9692   0.8515     H
H       0.5755   0.0068   0.1393     H
H       0.5755   0.4932   0.1393     H
H       0.5755   0.5068   0.3607     H
H       0.5755   0.9932   0.3607     H
C       0.5766  0.06733  0.58123     C
C       0.5766  0.43267  0.58123     C
C       0.5766  0.56733  0.91877     C
C       0.5766  0.93267  0.91877     C
H       0.5799   0.0194   0.9213     H
H       0.5799   0.4806   0.9213     H
H       0.5799   0.5194   0.5787     H
H       0.5799   0.9806   0.5787     H
H       0.5849   0.0459    0.061     H
H       0.5849   0.4541    0.061     H
H       0.5849   0.5459    0.439     H
H       0.5849   0.9541    0.439     H
C       0.5862  0.04655  0.63238     C
C       0.5862  0.45345  0.63238     C
C       0.5862  0.54655  0.86762     C
C       0.5862  0.95345  0.86762     C
C       0.5936  0.10784   0.0119     C
C       0.5936  0.39216   0.0119     C
C       0.5936  0.60784   0.4881     C
C       0.5936  0.89216   0.4881     C
C       0.5952  0.14576   0.0603     C
C       0.5952  0.35424   0.0603     C
C       0.5952  0.64576   0.4397     C
C       0.5952  0.85424   0.4397     C
H        0.599   0.0861    0.482     H
H        0.599   0.4139    0.482     H
H        0.599   0.5861    0.018     H
H        0.599   0.9139    0.018     H
C       0.6006  0.05951  0.97451     C
C       0.6006  0.44049  0.97451     C
C       0.6006  0.55951  0.52549     C
C       0.6006  0.94049  0.52549     C
H       0.6021   0.0064   0.4761     H
H       0.6021   0.4936   0.4761     H
H       0.6021   0.5064   0.0239     H
H       0.6021   0.9936   0.0239     H
C       0.6023  0.03122  0.07904     C
C       0.6023  0.46878  0.07904     C
C       0.6023  0.53122  0.42096     C
C       0.6023  0.96878  0.42096     C
H       0.6041   0.0777   0.4201     H
H       0.6041   0.4223   0.4201     H
H       0.6041   0.5777   0.0799     H
H       0.6041   0.9223   0.0799     H
H       0.6059   0.0808    0.286     H
H       0.6059   0.4192    0.286     H
H       0.6059   0.5808    0.214     H
H       0.6059   0.9192    0.214     H
H       0.6071   0.1784   0.0985     H
H       0.6071   0.3216   0.0985     H
H       0.6071   0.6784   0.4015     H
H       0.6071   0.8216   0.4015     H
C       0.6085  0.05957  0.33118     C
C       0.6085  0.44043  0.33118     C
C       0.6085  0.55957  0.16882     C
C       0.6085  0.94043  0.16882     C
C       0.6122  0.03692  0.38771     C
C       0.6122  0.46308  0.38771     C
C       0.6122  0.53692  0.11229     C
C       0.6122  0.96308  0.11229     C
H       0.6129   0.1323   0.2595     H
H       0.6129   0.3677   0.2595     H
H       0.6129   0.6323   0.2405     H
H       0.6129   0.8677   0.2405     H
C       0.6194  0.02018  0.45743     C
C       0.6194  0.47982  0.45743     C
C       0.6194  0.52018  0.04257     C
C       0.6194  0.97982  0.04257     C
H       0.6318   0.0458    0.095     H
H       0.6318   0.4542    0.095     H
H       0.6318   0.5458    0.405     H
H       0.6318   0.9542    0.405     H
H       0.6355   0.0428   0.9642     H
H       0.6355   0.4572   0.9642     H
H       0.6355   0.5428   0.5358     H
H       0.6355   0.9572   0.5358     H
C       0.6358  0.08228  0.30574     C
C       0.6358  0.41772  0.30574     C
C       0.6358  0.58228  0.19426     C
C       0.6358  0.91772  0.19426     C
C       0.6378  0.13135  0.03461     C
C       0.6378  0.36865  0.03461     C
C       0.6378  0.63135  0.46539     C
C       0.6378  0.86865  0.46539     C
C       0.6382  0.09295  0.58844     C
C       0.6382  0.40705  0.58844     C
C       0.6382  0.59295  0.91156     C
C       0.6382  0.90705  0.91156     C
C       0.6388   0.1688  0.08123     C
C       0.6388   0.3312  0.08123     C
C       0.6388   0.6688  0.41877     C
C       0.6388   0.8312  0.41877     C
C       0.6402   0.0598  0.35934     C
C       0.6402   0.4402  0.35934     C
C       0.6402   0.5598  0.14066     C
C       0.6402   0.9402  0.14066     C
C       0.6403  0.08168  0.99626     C
C       0.6403  0.41832  0.99626     C
C       0.6403  0.58168  0.50374     C
C       0.6403  0.91832  0.50374     C
C       0.6497  0.07167  0.64004     C
C       0.6497  0.42833  0.64004     C
C       0.6497  0.57167  0.85996     C
C       0.6497  0.92833  0.85996     C
H       0.6555   0.1084   0.5723     H
H       0.6555   0.3916   0.5723     H
H       0.6555   0.6084   0.9277     H
H       0.6555   0.8916   0.9277     H
H       0.6579   0.1703   0.2199     H
H       0.6579   0.3297   0.2199     H
H       0.6579   0.6703   0.2801     H
H       0.6579   0.8297   0.2801     H
H         0.66   0.0382   0.4648     H
H         0.66   0.4618   0.4648     H
H         0.66   0.5382   0.0352     H
H         0.66   0.9618   0.0352     H
C       0.6684  0.00338  0.06708     C
C       0.6684  0.49662  0.06708     C
C       0.6684  0.50338  0.43292     C
C       0.6684  0.99662  0.43292     C
C       0.6718  0.14014  0.25932     C
C       0.6718  0.35986  0.25932     C
C       0.6718  0.64014  0.24068     C
C       0.6718  0.85986  0.24068     C
C       0.6743  0.09629  0.61859     C
C       0.6743  0.40371  0.61859     C
C       0.6743  0.59629  0.88141     C
C       0.6743  0.90371  0.88141     C
H       0.6759   0.0715   0.6605     H
H       0.6759   0.4285   0.6605     H
H       0.6759   0.5715   0.8395     H
H       0.6759   0.9285   0.8395     H
C       0.6943  0.01989  0.40338     C
C       0.6943  0.48011  0.40338     C
C       0.6943  0.51989  0.09662     C
C       0.6943  0.98011  0.09662     C
C       0.6983   0.1043  0.30844     C
C       0.6983   0.3957  0.30844     C
C       0.6983   0.6043  0.19156     C
C       0.6983   0.8957  0.19156     C
C       0.6987  0.16321  0.23567     C
C       0.6987  0.33679  0.23567     C
C       0.6987  0.66321  0.26433     C
C       0.6987  0.83679  0.26433     C
C       0.7005  0.08609   0.3639     C
C       0.7005  0.41391   0.3639     C
C       0.7005  0.58609   0.1361     C
C       0.7005  0.91391   0.1361     C
H        0.701    0.079   0.0007     H
H        0.701    0.421   0.0007     H
H        0.701    0.579   0.4993     H
H        0.701    0.921   0.4993     H
H       0.7236   0.0895   0.3846     H
H       0.7236   0.4105   0.3846     H
H       0.7236   0.5895   0.1154     H
H       0.7236   0.9105   0.1154     H
H        0.725   0.0057   0.3874     H
H        0.725   0.4943   0.3874     H
H        0.725   0.5057   0.1126     H
H        0.725   0.9943   0.1126     H
C       0.7252  0.17748  0.07707     C
C       0.7252  0.32252  0.07707     C
C       0.7252  0.67748  0.42293     C
C       0.7252  0.82252  0.42293     C
C       0.7259  0.14041   0.0313     C
C       0.7259  0.35959   0.0313     C
C       0.7259  0.64041   0.4687     C
C       0.7259  0.85959   0.4687     C
H       0.7263   0.1281    0.673     H
H       0.7263   0.3719    0.673     H
H       0.7263   0.6281    0.827     H
H       0.7263   0.8719    0.827     H
O       0.7278   0.2133  0.12349     O
O       0.7278   0.2867  0.12349     O
O       0.7278   0.7133  0.37651     O
O       0.7278   0.7867  0.37651     O
C       0.7292  0.10832  0.33881     C
C       0.7292  0.39168  0.33881     C
C       0.7292  0.60832  0.16119     C
C       0.7292  0.89168  0.16119     C
C       0.7299  0.12845  0.28254     C
C       0.7299  0.37155  0.28254     C
C       0.7299  0.62845  0.21746     C
C       0.7299  0.87155  0.21746     C
H       0.7354   0.0379   0.4105     H
H       0.7354   0.4621   0.4105     H
H       0.7354   0.5379   0.0895     H
H       0.7354   0.9621   0.0895     H
O       0.7435    0.112   0.4529     O
O       0.7435    0.388   0.4529     O
O       0.7435    0.612   0.0471     O
O       0.7435    0.888   0.0471     O
C       0.7444  0.12294  0.62522     C
C       0.7444  0.37706  0.62522     C
C       0.7444  0.62294  0.87478     C
C       0.7444  0.87706  0.87478     C
C       0.7505   0.0196   0.0533     C
C       0.7505   0.4804   0.0533     C
C       0.7505   0.5196   0.4467     C
C       0.7505   0.9804   0.4467     C
Fe     0.75273     0.25  0.15692    Fe
Fe     0.75273     0.75  0.34308    Fe
O        0.754  0.21222  0.19124     O
O        0.754  0.28778  0.19124     O
O        0.754  0.71222  0.30876     O
O        0.754  0.78778  0.30876     O
H       0.7557   0.0046   0.4885     H
H       0.7557   0.4954   0.4885     H
H       0.7557   0.5046   0.0115     H
H       0.7557   0.9954   0.0115     H
O       0.7569   0.1501    0.494     O
O       0.7569   0.3499    0.494     O
O       0.7569   0.6501    0.006     O
O       0.7569   0.8499    0.006     O
H       0.7589   0.1306   0.0145     H
H       0.7589   0.3694   0.0145     H
H       0.7589   0.6306   0.4855     H
H       0.7589   0.8694   0.4855     H
C       0.7599  0.13632  0.65561     C
C       0.7599  0.36368  0.65561     C
C       0.7599  0.63632  0.84439     C
C       0.7599  0.86368  0.84439     C
C       0.7679  0.16354  0.05194     C
C       0.7679  0.33646  0.05194     C
C       0.7679  0.66354  0.44806     C
C       0.7679  0.83646  0.44806     C
C       0.7695  0.20308  0.09942     C
C       0.7695  0.29692  0.09942     C
C       0.7695  0.70308  0.40058     C
C       0.7695  0.79692  0.40058     C
H         0.77    0.126   0.3433     H
H         0.77    0.374   0.3433     H
H         0.77    0.626   0.1567     H
H         0.77    0.874   0.1567     H
H       0.7787   0.0493    0.091     H
H       0.7787   0.4507    0.091     H
H       0.7787   0.5493    0.409     H
H       0.7787   0.9507    0.409     H
C        0.781   0.1199   0.4759     C
C        0.781   0.3801   0.4759     C
C        0.781   0.6199   0.0241     C
C        0.781   0.8801   0.0241     C
C       0.7825  0.01289  0.02373     C
C       0.7825  0.48711  0.02373     C
C       0.7825  0.51289  0.47627     C
C       0.7825  0.98711  0.47627     C
C        0.784  0.17586  0.23501     C
C        0.784  0.32414  0.23501     C
C        0.784  0.67586  0.26499     C
C        0.784  0.82414  0.26499     C
H       0.7935   0.1255     0.58     H
H       0.7935   0.3745     0.58     H
H       0.7935   0.6255     0.92     H
H       0.7935   0.8745     0.92     H
C       0.7973  0.04416  0.07001     C
C       0.7973  0.45584  0.07001     C
C       0.7973  0.54416  0.42999     C
C       0.7973  0.95584  0.42999     C
C       0.7995  0.13494  0.60059     C
C       0.7995  0.36506  0.60059     C
C       0.7995  0.63494  0.89941     C
C       0.7995  0.86506  0.89941     C
C       0.8138  0.14196   0.2818     C
C       0.8138  0.35804   0.2818     C
C       0.8138  0.64196   0.2182     C
C       0.8138  0.85804   0.2182     C
C       0.8139  0.20243  0.21071     C
C       0.8139  0.29757  0.21071     C
C       0.8139  0.70243  0.28929     C
C       0.8139  0.79757  0.28929     C
C       0.8236  0.16141  0.66112     C
C       0.8236  0.33859  0.66112     C
C       0.8236  0.66141  0.83888     C
C       0.8236  0.83859  0.83888     C
H       0.8274   0.1695   0.0482     H
H       0.8274   0.3305   0.0482     H
H       0.8274   0.6695   0.4518     H
H       0.8274   0.8305   0.4518     H
H       0.8315   0.1699    0.682     H
H       0.8315   0.3301    0.682     H
H       0.8315   0.6699    0.818     H
H       0.8315   0.8301    0.818     H
C       0.8403  0.16484  0.25832     C
C       0.8403  0.33516  0.25832     C
C       0.8403  0.66484  0.24168     C
C       0.8403  0.83516  0.24168     C
O       0.8442   0.2132   0.0912     O
O       0.8442   0.2868   0.0912     O
O       0.8442   0.7132   0.4088     O
O       0.8442   0.7868   0.4088     O
H       0.8546   0.1355   0.2977     H
H       0.8546   0.3645   0.2977     H
H       0.8546   0.6355   0.2023     H
H       0.8546   0.8645   0.2023     H
C       0.8569  0.03172     0.01     C
C       0.8569  0.46828     0.01     C
C       0.8569  0.53172     0.49     C
C       0.8569  0.96828     0.49     C
H       0.8589    0.067   0.4609     H
H       0.8589    0.433   0.4609     H
H       0.8589    0.567   0.0391     H
H       0.8589    0.933   0.0391     H
C         0.86   0.1048   0.4938     C
C         0.86   0.3952   0.4938     C
C         0.86   0.6048   0.0062     C
C         0.86   0.8952   0.0062     C
C       0.8626  0.16022  0.60566     C
C       0.8626  0.33978  0.60566     C
C       0.8626  0.66022  0.89434     C
C       0.8626  0.83978  0.89434     C
C       0.8708  0.06215  0.05799     C
C       0.8708  0.43785  0.05799     C
C       0.8708  0.56215  0.44201     C
C       0.8708  0.93785  0.44201     C
H       0.8725   0.0281   0.9884     H
H       0.8725   0.4719   0.9884     H
H       0.8725   0.5281   0.5116     H
H       0.8725   0.9719   0.5116     H
C       0.8758  0.17422  0.63636     C
C       0.8758  0.32578  0.63636     C
C       0.8758  0.67422  0.86364     C
C       0.8758  0.82578  0.86364     C
O       0.8795     0.25  0.15085     O
O       0.8795     0.75  0.34915     O
C       0.8888    0.076   0.4788     C
C       0.8888    0.424   0.4788     C
C       0.8888    0.576   0.0212     C
C       0.8888    0.924   0.0212     C
O       0.8914  0.21284   0.2116     O
O       0.8914  0.28716   0.2116     O
O       0.8914  0.71284   0.2884     O
O       0.8914  0.78716   0.2884     O
H       0.8957   0.1453   0.5232     H
H       0.8957   0.3547   0.5232     H
H       0.8957   0.6453   0.9768     H
H       0.8957   0.8547   0.9768     H
H        0.897   0.0795   0.0706     H
H        0.897   0.1681   0.5884     H
H        0.897   0.3319   0.5884     H
H        0.897   0.4205   0.0706     H
H        0.897   0.5795   0.4294     H
H        0.897   0.6681   0.9116     H
H        0.897   0.8319   0.9116     H
H        0.897   0.9205   0.4294     H
H       0.8989    0.173   0.2585     H
H       0.8989    0.327   0.2585     H
H       0.8989    0.673   0.2415     H
H       0.8989    0.827   0.2415     H
C       0.9054   0.0551   0.0284     C
C       0.9054   0.4449   0.0284     C
C       0.9054   0.5551   0.4716     C
C       0.9054   0.9449   0.4716     C
C       0.9122   0.1234   0.5156     C
C       0.9122   0.3766   0.5156     C
C       0.9122   0.6234   0.9844     C
C       0.9122   0.8766   0.9844     C
Fe      0.9278     0.25  0.10808    Fe
Fe      0.9278     0.75  0.39192    Fe
C       0.9433  0.20189  0.64129     C
C       0.9433  0.29811  0.64129     C
C       0.9433  0.70189  0.85871     C
C       0.9433  0.79811  0.85871     C
O       0.9572  0.21227  0.66952     O
O       0.9572  0.28773  0.66952     O
O       0.9572  0.71227  0.83048     O
O       0.9572  0.78773  0.83048     O
Fe     0.95996     0.25  0.18737    Fe
Fe     0.95996     0.75  0.31263    Fe
H       0.9629   0.1178    0.039     H
H       0.9629   0.3822    0.039     H
H       0.9629   0.6178    0.461     H
H       0.9629   0.8822    0.461     H
C       0.9678   0.0595   0.4915     C
C       0.9678   0.4405   0.4915     C
C       0.9678   0.5595   0.0085     C
C       0.9678   0.9405   0.0085     C
O       0.9827   0.2129   0.6166     O
O       0.9827   0.2871   0.6166     O
O       0.9827   0.7129   0.8834     O
O       0.9827   0.7871   0.8834     O
C       0.9877   0.0727   0.0165     C
C       0.9877   0.4273   0.0165     C
C       0.9877   0.5727   0.4835     C
C       0.9877   0.9273   0.4835     C
H       0.9882    0.039    0.482     H
H       0.9882    0.461    0.482     H
H       0.9882    0.539    0.018     H
H       0.9882    0.961    0.018     H
C        0.996    0.106   0.5261     C
C        0.996    0.394   0.5261     C
C        0.996    0.606   0.9739     C
C        0.996    0.894   0.9739     C
