data_I
_chemical_name_common  '/home/zhangsd/repos/MofS-CGCNN/ML/data/SSD/clean_cifs/TOWLIC_clean'
_cell_length_a 16.69700
_cell_length_b 13.84800
_cell_length_c 10.87300
_cell_angle_alpha 90.00000
_cell_angle_beta  101.62000
_cell_angle_gamma 90.00000
_space_group_name_H-M_alt      'P 1'


loop_
_space_group_symop_operation_xyz
  'x, y, z' 

loop_
_atom_site_label
_atom_site_fract_x
_atom_site_fract_y
_atom_site_fract_z
_atom_site_type_symbol
Fe         0.0   0.4195      0.0    Fe
Co         0.0   0.4323      0.0    Co
O          0.0   0.4829      0.5     O
O          0.0   0.5681      0.0     O
C       0.0007   0.4275   0.4025     C
C       0.0015   0.3264   0.4326     C
H       0.0036   0.2728   0.3789     H
O       0.0085   0.4065   0.1905     O
C       0.0134   0.4673   0.2777     C
O       0.0175   0.7411   0.8584     O
O       0.0187     0.56    0.274     O
H       0.0536   0.8991   0.7182     H
Fe      0.0652   0.6306   0.1422    Fe
Co      0.0658   0.6337   0.1234    Co
C       0.0862    0.755   0.9181     C
C       0.1064   0.8958   0.7705     C
O        0.124   0.7143   0.0203     O
O       0.1285   0.4138   0.0282     O
C       0.1328   0.8337   0.8664     C
O       0.1355   0.7115   0.2842     O
O       0.1637   0.5403    0.164     O
C       0.1765   0.4612   0.1047     C
C       0.1776    0.957   0.7654     C
H       0.1809   0.0068   0.7066     H
O       0.2114   0.8511   0.9216     O
C       0.2346   0.9292   0.8571     C
C       0.2654   0.4292   0.1429     C
O       0.2886   0.3511   0.0784     O
H       0.3191   0.5068   0.2934     H
C       0.3224    0.457   0.2346     C
C       0.3235   0.9612   0.8953     C
O       0.3363   0.0403    0.836     O
O       0.3645   0.2115   0.7158     O
C       0.3672   0.3337   0.1336     C
O       0.3715   0.9138   0.9718     O
O        0.376   0.2143   0.9797     O
C       0.3936   0.3958   0.2295     C
C       0.4138    0.255   0.0819     C
Co      0.4342   0.1337   0.8766    Co
Fe      0.4348   0.1306   0.8578    Fe
H       0.4464   0.3991   0.2818     H
O       0.4813     0.06    0.726     O
O       0.4825   0.2411   0.1416     O
C       0.4866   0.9673   0.7223     C
O       0.4915   0.9065   0.8095     O
H       0.4964   0.7728   0.6211     H
C       0.4985   0.8264   0.5674     C
C       0.4993   0.9275   0.5975     C
O          0.5   0.0681      0.0     O
Fe         0.5   0.9195      0.0    Fe
Co         0.5   0.9323      0.0    Co
O          0.5   0.9829      0.5     O
C       0.5007   0.9275   0.4025     C
C       0.5015   0.8264   0.4326     C
H       0.5036   0.7728   0.3789     H
O       0.5085   0.9065   0.1905     O
C       0.5134   0.9673   0.2777     C
O       0.5175   0.2411   0.8584     O
O       0.5187     0.06    0.274     O
H       0.5536   0.3991   0.7182     H
Fe      0.5652   0.1306   0.1422    Fe
Co      0.5658   0.1337   0.1234    Co
C       0.5862    0.255   0.9181     C
C       0.6064   0.3958   0.7705     C
O        0.624   0.2143   0.0203     O
O       0.6285   0.9138   0.0282     O
C       0.6328   0.3337   0.8664     C
O       0.6355   0.2115   0.2842     O
O       0.6637   0.0403    0.164     O
C       0.6765   0.9612   0.1047     C
C       0.6776    0.457   0.7654     C
H       0.6809   0.5068   0.7066     H
O       0.7114   0.3511   0.9216     O
C       0.7346   0.4292   0.8571     C
C       0.7654   0.9292   0.1429     C
O       0.7886   0.8511   0.0784     O
H       0.8191   0.0068   0.2934     H
C       0.8224    0.957   0.2346     C
C       0.8235   0.4612   0.8953     C
O       0.8363   0.5403    0.836     O
O       0.8645   0.7115   0.7158     O
C       0.8672   0.8337   0.1336     C
O       0.8715   0.4138   0.9718     O
O        0.876   0.7143   0.9797     O
C       0.8936   0.8958   0.2295     C
C       0.9138    0.755   0.0819     C
Co      0.9342   0.6337   0.8766    Co
Fe      0.9348   0.6306   0.8578    Fe
H       0.9464   0.8991   0.2818     H
O       0.9813     0.56    0.726     O
O       0.9825   0.7411   0.1416     O
C       0.9866   0.4673   0.7223     C
O       0.9915   0.4065   0.8095     O
H       0.9964   0.2728   0.6211     H
C       0.9985   0.3264   0.5674     C
C       0.9993   0.4275   0.5975     C
