data_I
_chemical_name_common  '/home/zhangsd/repos/MofS-CGCNN/ML/data/SSD/clean_cifs/TOWNAW_clean'
_cell_length_a 18.69960
_cell_length_b 18.69960
_cell_length_c 28.85720
_cell_angle_alpha 90.00000
_cell_angle_beta  90.00000
_cell_angle_gamma 120.00000
_space_group_name_H-M_alt      'P 1'


loop_
_space_group_symop_operation_xyz
  'x, y, z' 

loop_
_atom_site_label
_atom_site_fract_x
_atom_site_fract_y
_atom_site_fract_z
_atom_site_type_symbol
O          0.0      0.0   0.3382     O
O          0.0      0.0   0.8382     O
H       0.0064   0.2115   0.4595     H
H       0.0064   0.7949   0.4595     H
O       0.0067   0.1359   0.7878     O
O       0.0067   0.8708   0.7878     O
N       0.0094   0.5047   0.0737     N
O       0.0096   0.1386   0.8884     O
O       0.0096    0.871   0.8884     O
H         0.01   0.2075   0.2165     H
H         0.01   0.8025   0.2165     H
H       0.0158   0.2487   0.6402     H
H       0.0158   0.7671   0.6402     H
N       0.0191  0.50955   0.5333     N
H       0.0224    0.262   0.0349     H
H       0.0224   0.7604   0.0349     H
C        0.033   0.5165   0.9943     C
C       0.0391   0.2079    0.701     C
C       0.0391   0.8312    0.701     C
C         0.04     0.52   0.6139     C
H       0.0402   0.4116   0.9889     H
H       0.0402   0.6286   0.9889     H
C       0.0432   0.2166   0.9748     C
C       0.0432   0.8266   0.9748     C
H       0.0468   0.4148   0.6194     H
H       0.0468    0.632   0.6194     H
C       0.0544   0.2382   0.6558     C
C       0.0544   0.8162   0.6558     C
C        0.058   0.4642   0.9755     C
C        0.058   0.5938   0.9755     C
Fe      0.0592   0.1184   0.3381    Fe
Fe      0.0592   0.9408   0.3381    Fe
C       0.0603   0.2503   0.0194     C
C       0.0603     0.81   0.0194     C
C       0.0637    0.467   0.6331     C
C       0.0637   0.5967   0.6331     C
C       0.0801   0.1602   0.7718     C
C       0.0801   0.9199   0.7718     C
C       0.0821   0.1642   0.9054     C
C       0.0821   0.9179   0.9054     C
H        0.092   0.4011   0.5296     H
H        0.092   0.6909   0.5296     H
C       0.0965    0.193   0.7232     C
C       0.0965   0.9035   0.7232     C
H       0.0984   0.4139   0.1366     H
H       0.0984   0.6845   0.1366     H
C       0.1001   0.2002   0.9532     C
C       0.1001   0.8999   0.9532     C
C       0.1097   0.4899   0.9368     C
C       0.1097   0.6198   0.9368     C
C       0.1127   0.4914    0.673     C
C       0.1127   0.6213    0.673     C
Fe      0.1184   0.0592   0.8381    Fe
H       0.1226   0.4628   0.4557     H
H       0.1226   0.6598   0.4557     H
H       0.1251   0.4681   0.2125     H
H       0.1251    0.657   0.2125     H
C       0.1265    0.253   0.6338     C
C       0.1265   0.8735   0.6338     C
H       0.1275   0.4549   0.9235     H
H       0.1275   0.6726   0.9235     H
O        0.129   0.1386   0.8884     O
O        0.129   0.9904   0.8884     O
O       0.1292   0.1359   0.7878     O
O       0.1292   0.9933   0.7878     O
H       0.1295   0.4559   0.6866     H
H       0.1295   0.6736   0.6866     H
C       0.1333   0.2666   0.0409     C
C       0.1333   0.8667   0.0409     C
C        0.135   0.5675   0.9179     C
O       0.1359   0.0067   0.2878     O
O       0.1359   0.1292   0.2878     O
C       0.1366   0.5683   0.6924     C
O       0.1386   0.0096   0.3884     O
O       0.1386    0.129   0.3884     O
N       0.1417   0.2834   0.5884     N
N       0.1417   0.8583   0.5884     N
C       0.1421   0.4137   0.5145     C
C       0.1421   0.7284   0.5145     C
C       0.1476   0.4249   0.1521     C
C       0.1476   0.7227   0.1521     C
N         0.15      0.3   0.0851     N
N         0.15     0.85   0.0851     N
C       0.1602   0.0801   0.2718     C
C       0.1602   0.4502   0.4707     C
C       0.1602     0.71   0.4707     C
C       0.1635   0.4571   0.1971     C
C       0.1635   0.7064   0.1971     C
C       0.1642   0.0821   0.4054     C
C       0.1688   0.2079    0.701     C
C       0.1688   0.9609    0.701     C
C       0.1734   0.2166   0.9748     C
C       0.1734   0.9568   0.9748     C
N       0.1797   0.3594   0.5797     N
N       0.1797   0.8203   0.5797     N
C       0.1838   0.2382   0.6558     C
C       0.1838   0.9456   0.6558     C
N       0.1888   0.3776   0.0859     N
N       0.1888   0.8112   0.0859     N
C       0.1892   0.5946   0.7351     C
C         0.19   0.2503   0.0194     C
C         0.19   0.9397   0.0194     C
C       0.1905  0.59525   0.8763     C
C        0.193   0.0965   0.2232     C
O       0.1935   0.5367   0.8564     O
O       0.1935   0.6568   0.8564     O
O       0.1967   0.5388    0.754     O
O       0.1967   0.6579    0.754     O
H       0.1975   0.2075   0.2165     H
H       0.1975     0.99   0.2165     H
C        0.198    0.396   0.5358     C
C        0.198    0.802   0.5358     C
C       0.2002   0.1001   0.4532     C
C       0.2047   0.4094   0.1305     C
C       0.2047   0.7953   0.1305     C
O        0.205   0.5283   0.3862     O
O        0.205   0.6767   0.3862     O
H       0.2051   0.2115   0.4595     H
H       0.2051   0.9936   0.4595     H
O       0.2061   0.5303   0.2865     O
O       0.2061   0.6758   0.2865     O
H       0.2075     0.01   0.7165     H
H       0.2075   0.1975   0.7165     H
C       0.2079   0.0391    0.201     C
C       0.2079   0.1688    0.201     C
H       0.2115   0.0064   0.9595     H
H       0.2115   0.2051   0.9595     H
Fe      0.2158   0.6079   0.3376    Fe
C       0.2166   0.0432   0.4748     C
C       0.2166   0.1734   0.4748     C
H       0.2329   0.2487   0.6402     H
H       0.2329   0.9842   0.6402     H
C       0.2341   0.4682   0.4492     C
C       0.2341   0.7659   0.4492     C
C       0.2364   0.4728    0.219     C
C       0.2364   0.7636    0.219     C
C       0.2382   0.0544   0.1558     C
C       0.2382   0.1838   0.1558     C
H       0.2396    0.262   0.0349     H
H       0.2396   0.9776   0.0349     H
H       0.2487   0.0158   0.1402     H
H       0.2487   0.2329   0.1402     H
C       0.2503   0.0603   0.5194     C
C       0.2503     0.19   0.5194     C
C        0.253   0.1265   0.1338     C
C       0.2536   0.5072   0.2672     C
C       0.2536   0.5072   0.4022     C
C       0.2536   0.7464   0.2672     C
C       0.2536   0.7464   0.4022     C
H        0.262   0.0224   0.5349     H
H        0.262   0.2396   0.5349     H
C       0.2666   0.1333   0.5409     C
C       0.2716   0.4137   0.5145     C
C       0.2716   0.8579   0.5145     C
Fe      0.2743   0.5486   0.8063    Fe
Fe      0.2743   0.7257   0.8063    Fe
C       0.2773   0.4249   0.1521     C
C       0.2773   0.8524   0.1521     C
N       0.2834   0.1417   0.0884     N
C         0.29   0.4502   0.4707     C
C         0.29   0.8398   0.4707     C
C       0.2936   0.4571   0.1971     C
C       0.2936   0.8365   0.1971     C
N          0.3     0.15   0.5851     N
H       0.3091   0.4011   0.5296     H
H       0.3091    0.908   0.5296     H
H       0.3155   0.4139   0.1366     H
H       0.3155   0.9016   0.1366     H
O       0.3233   0.5283   0.3862     O
O       0.3233    0.795   0.3862     O
O       0.3242   0.5303   0.2865     O
O       0.3242   0.7939   0.2865     O
H       0.3264   0.4559   0.6866     H
H       0.3264   0.8705   0.6866     H
H       0.3274   0.4549   0.9235     H
H       0.3274   0.8725   0.9235     H
O      0.33333  0.66666   0.3388     O
O      0.33333  0.66666   0.8073     O
H       0.3402   0.4628   0.4557     H
H       0.3402   0.8774   0.4557     H
O       0.3421   0.5388    0.754     O
O       0.3421   0.8033    0.754     O
H        0.343   0.4681   0.2125     H
H        0.343   0.8749   0.2125     H
O       0.3432   0.5367   0.8564     O
O       0.3432   0.8065   0.8564     O
N       0.3594   0.1797   0.0797     N
H        0.368   0.4148   0.6194     H
H        0.368   0.9532   0.6194     H
H       0.3714   0.4116   0.9889     H
H       0.3714   0.9598   0.9889     H
N       0.3776   0.1888   0.5859     N
C       0.3787   0.4914    0.673     C
C       0.3787   0.8873    0.673     C
C       0.3802   0.4899   0.9368     C
C       0.3802   0.8903   0.9368     C
Fe      0.3921   0.6079   0.3376    Fe
Fe      0.3921   0.7842   0.3376    Fe
C        0.396    0.198   0.0358     C
H       0.4011    0.092   0.0296     H
H       0.4011   0.3091   0.0296     H
C       0.4033    0.467   0.6331     C
C       0.4033   0.9363   0.6331     C
C      0.40475  0.59525   0.8763     C
C      0.40475   0.8095   0.8763     C
C       0.4054   0.5946   0.7351     C
C       0.4054   0.8108   0.7351     C
C       0.4062   0.4642   0.9755     C
C       0.4062    0.942   0.9755     C
C       0.4094   0.2047   0.6305     C
H       0.4116   0.0402   0.4889     H
H       0.4116   0.3714   0.4889     H
C       0.4137   0.1421   0.0145     C
C       0.4137   0.2716   0.0145     C
H       0.4139   0.0984   0.6366     H
H       0.4139   0.3155   0.6366     H
H       0.4148   0.0468   0.1194     H
H       0.4148    0.368   0.1194     H
C       0.4249   0.1476   0.6521     C
C       0.4249   0.2773   0.6521     C
C       0.4317   0.5683   0.6924     C
C       0.4317   0.8634   0.6924     C
C       0.4325   0.5675   0.9179     C
C       0.4325    0.865   0.9179     C
C       0.4502   0.1602   0.9707     C
C       0.4502     0.29   0.9707     C
Fe      0.4514   0.7257   0.8063    Fe
H       0.4549   0.1275   0.4235     H
H       0.4549   0.3274   0.4235     H
H       0.4559   0.1295   0.1866     H
H       0.4559   0.3264   0.1866     H
C       0.4571   0.1635   0.6971     C
C       0.4571   0.2936   0.6971     C
O       0.4612   0.6579    0.754     O
O       0.4612   0.8033    0.754     O
H       0.4628   0.1226   0.9557     H
H       0.4628   0.3402   0.9557     H
O       0.4633   0.6568   0.8564     O
O       0.4633   0.8065   0.8564     O
C       0.4642    0.058   0.4755     C
C       0.4642   0.4062   0.4755     C
C        0.467   0.0637   0.1331     C
C        0.467   0.4033   0.1331     C
H       0.4681   0.1251   0.7125     H
H       0.4681    0.343   0.7125     H
C       0.4682   0.2341   0.9492     C
O       0.4697   0.6758   0.2865     O
O       0.4697   0.7939   0.2865     O
O       0.4717   0.6767   0.3862     O
O       0.4717    0.795   0.3862     O
C       0.4728   0.2364    0.719     C
C         0.48     0.52   0.6139     C
C         0.48     0.96   0.6139     C
C       0.4835   0.5165   0.9943     C
C       0.4835    0.967   0.9943     C
C       0.4899   0.1097   0.4368     C
C       0.4899   0.3802   0.4368     C
N      0.49045  0.50955   0.5333     N
N      0.49045   0.9809   0.5333     N
C       0.4914   0.1127    0.173     C
C       0.4914   0.3787    0.173     C
C       0.4928   0.7464   0.2672     C
C       0.4928   0.7464   0.4022     C
N       0.4953   0.5047   0.0737     N
N       0.4953   0.9906   0.0737     N
N       0.5047   0.0094   0.5737     N
N       0.5047   0.4953   0.5737     N
C       0.5072   0.2536   0.7672     C
C       0.5072   0.2536   0.9022     C
C       0.5086   0.6213    0.673     C
C       0.5086   0.8873    0.673     C
N      0.50955   0.0191   0.0333     N
N      0.50955  0.49045   0.0333     N
C       0.5101   0.6198   0.9368     C
C       0.5101   0.8903   0.9368     C
C       0.5165    0.033   0.4943     C
C       0.5165   0.4835   0.4943     C
C         0.52     0.04   0.1139     C
C         0.52     0.48   0.1139     C
C       0.5272   0.7636    0.219     C
O       0.5283    0.205   0.8862     O
O       0.5283   0.3233   0.8862     O
O       0.5303   0.2061   0.7865     O
O       0.5303   0.3242   0.7865     O
C       0.5318   0.7659   0.4492     C
H       0.5319    0.657   0.2125     H
H       0.5319   0.8749   0.2125     H
C        0.533   0.5967   0.6331     C
C        0.533   0.9363   0.6331     C
C       0.5358   0.5938   0.9755     C
C       0.5358    0.942   0.9755     C
O       0.5367   0.1935   0.3564     O
O       0.5367   0.3432   0.3564     O
H       0.5372   0.6598   0.4557     H
H       0.5372   0.8774   0.4557     H
O       0.5388   0.1967    0.254     O
O       0.5388   0.3421    0.254     O
C       0.5429   0.7064   0.1971     C
C       0.5429   0.8365   0.1971     C
H       0.5441   0.6736   0.6866     H
H       0.5441   0.8705   0.6866     H
H       0.5451   0.6726   0.9235     H
H       0.5451   0.8725   0.9235     H
Fe      0.5486   0.2743   0.3063    Fe
C       0.5498     0.71   0.4707     C
C       0.5498   0.8398   0.4707     C
C       0.5675    0.135   0.4179     C
C       0.5675   0.4325   0.4179     C
C       0.5683   0.1366   0.1924     C
C       0.5683   0.4317   0.1924     C
C       0.5751   0.7227   0.1521     C
C       0.5751   0.8524   0.1521     C
H       0.5852    0.632   0.6194     H
H       0.5852   0.9532   0.6194     H
H       0.5861   0.6845   0.1366     H
H       0.5861   0.9016   0.1366     H
C       0.5863   0.7284   0.5145     C
C       0.5863   0.8579   0.5145     C
H       0.5884   0.6286   0.9889     H
H       0.5884   0.9598   0.9889     H
C       0.5906   0.7953   0.1305     C
C       0.5938    0.058   0.4755     C
C       0.5938   0.5358   0.4755     C
C       0.5946   0.1892   0.2351     C
C       0.5946   0.4054   0.2351     C
C      0.59525   0.1905   0.3763     C
C      0.59525  0.40475   0.3763     C
C       0.5967   0.0637   0.1331     C
C       0.5967    0.533   0.1331     C
H       0.5989   0.6909   0.5296     H
H       0.5989    0.908   0.5296     H
C        0.604    0.802   0.5358     C
Fe      0.6079   0.2158   0.8376    Fe
Fe      0.6079   0.3921   0.8376    Fe
C       0.6198   0.1097   0.4368     C
C       0.6198   0.5101   0.4368     C
C       0.6213   0.1127    0.173     C
C       0.6213   0.5086    0.173     C
N       0.6224   0.8112   0.0859     N
H       0.6286   0.0402   0.4889     H
H       0.6286   0.5884   0.4889     H
H        0.632   0.0468   0.1194     H
H        0.632   0.5852   0.1194     H
N       0.6406   0.8203   0.5797     N
O       0.6568   0.1935   0.3564     O
O       0.6568   0.4633   0.3564     O
H        0.657   0.1251   0.7125     H
H        0.657   0.5319   0.7125     H
O       0.6579   0.1967    0.254     O
O       0.6579   0.4612    0.254     O
H       0.6598   0.1226   0.9557     H
H       0.6598   0.5372   0.9557     H
O      0.66667  0.33334   0.3073     O
O      0.66667  0.33334   0.8388     O
H       0.6726   0.1275   0.4235     H
H       0.6726   0.5451   0.4235     H
H       0.6736   0.1295   0.1866     H
H       0.6736   0.5441   0.1866     H
O       0.6758   0.2061   0.7865     O
O       0.6758   0.4697   0.7865     O
O       0.6767    0.205   0.8862     O
O       0.6767   0.4717   0.8862     O
H       0.6845   0.0984   0.6366     H
H       0.6845   0.5861   0.6366     H
H       0.6909    0.092   0.0296     H
H       0.6909   0.5989   0.0296     H
N          0.7     0.85   0.0851     N
C       0.7064   0.1635   0.6971     C
C       0.7064   0.5429   0.6971     C
C         0.71   0.1602   0.9707     C
C         0.71   0.5498   0.9707     C
N       0.7166   0.8583   0.5884     N
C       0.7227   0.1476   0.6521     C
C       0.7227   0.5751   0.6521     C
Fe      0.7257   0.2743   0.3063    Fe
Fe      0.7257   0.4514   0.3063    Fe
C       0.7284   0.1421   0.0145     C
C       0.7284   0.5863   0.0145     C
C       0.7334   0.8667   0.0409     C
H        0.738   0.7604   0.0349     H
H        0.738   0.9776   0.0349     H
C       0.7464   0.2536   0.7672     C
C       0.7464   0.2536   0.9022     C
C       0.7464   0.4928   0.7672     C
C       0.7464   0.4928   0.9022     C
C        0.747   0.8735   0.6338     C
C       0.7497     0.81   0.0194     C
C       0.7497   0.9397   0.0194     C
H       0.7513   0.7671   0.6402     H
H       0.7513   0.9842   0.6402     H
H       0.7604   0.0224   0.5349     H
H       0.7604    0.738   0.5349     H
C       0.7618   0.8162   0.6558     C
C       0.7618   0.9456   0.6558     C
C       0.7636   0.2364    0.719     C
C       0.7636   0.5272    0.719     C
C       0.7659   0.2341   0.9492     C
C       0.7659   0.5318   0.9492     C
H       0.7671   0.0158   0.1402     H
H       0.7671   0.7513   0.1402     H
C       0.7834   0.8266   0.9748     C
C       0.7834   0.9568   0.9748     C
Fe      0.7842   0.3921   0.8376    Fe
H       0.7885   0.7949   0.4595     H
H       0.7885   0.9936   0.4595     H
C       0.7921   0.8312    0.701     C
C       0.7921   0.9609    0.701     C
H       0.7925   0.8025   0.2165     H
H       0.7925     0.99   0.2165     H
O       0.7939   0.3242   0.7865     O
O       0.7939   0.4697   0.7865     O
H       0.7949   0.0064   0.9595     H
H       0.7949   0.7885   0.9595     H
O        0.795   0.3233   0.8862     O
O        0.795   0.4717   0.8862     O
C       0.7953   0.2047   0.6305     C
C       0.7953   0.5906   0.6305     C
C       0.7998   0.8999   0.9532     C
C        0.802    0.198   0.0358     C
C        0.802    0.604   0.0358     C
H       0.8025     0.01   0.7165     H
H       0.8025   0.7925   0.7165     H
O       0.8033   0.3421    0.254     O
O       0.8033   0.4612    0.254     O
O       0.8065   0.3432   0.3564     O
O       0.8065   0.4633   0.3564     O
C        0.807   0.9035   0.7232     C
C       0.8095  0.40475   0.3763     C
C         0.81   0.0603   0.5194     C
C         0.81   0.7497   0.5194     C
C       0.8108   0.4054   0.2351     C
N       0.8112   0.1888   0.5859     N
N       0.8112   0.6224   0.5859     N
C       0.8162   0.0544   0.1558     C
C       0.8162   0.7618   0.1558     C
N       0.8203   0.1797   0.0797     N
N       0.8203   0.6406   0.0797     N
C       0.8266   0.0432   0.4748     C
C       0.8266   0.7834   0.4748     C
C       0.8312   0.0391    0.201     C
C       0.8312   0.7921    0.201     C
C       0.8358   0.9179   0.9054     C
C       0.8365   0.2936   0.6971     C
C       0.8365   0.5429   0.6971     C
C       0.8398     0.29   0.9707     C
C       0.8398   0.5498   0.9707     C
C       0.8398   0.9199   0.7718     C
N         0.85     0.15   0.5851     N
N         0.85      0.7   0.5851     N
C       0.8524   0.2773   0.6521     C
C       0.8524   0.5751   0.6521     C
C       0.8579   0.2716   0.0145     C
C       0.8579   0.5863   0.0145     C
N       0.8583   0.1417   0.0884     N
N       0.8583   0.7166   0.0884     N
O       0.8614    0.871   0.8884     O
O       0.8614   0.9904   0.8884     O
C       0.8634   0.4317   0.1924     C
O       0.8641   0.8708   0.7878     O
O       0.8641   0.9933   0.7878     O
C        0.865   0.4325   0.4179     C
C       0.8667   0.1333   0.5409     C
C       0.8667   0.7334   0.5409     C
H       0.8705   0.3264   0.1866     H
H       0.8705   0.5441   0.1866     H
O       0.8708   0.0067   0.2878     O
O       0.8708   0.8641   0.2878     O
O        0.871   0.0096   0.3884     O
O        0.871   0.8614   0.3884     O
H       0.8725   0.3274   0.4235     H
H       0.8725   0.5451   0.4235     H
C       0.8735   0.1265   0.1338     C
C       0.8735    0.747   0.1338     C
H       0.8749    0.343   0.7125     H
H       0.8749   0.5319   0.7125     H
H       0.8774   0.3402   0.9557     H
H       0.8774   0.5372   0.9557     H
Fe      0.8816   0.9408   0.3381    Fe
C       0.8873   0.3787    0.173     C
C       0.8873   0.5086    0.173     C
C       0.8903   0.3802   0.4368     C
C       0.8903   0.5101   0.4368     C
C       0.8999   0.1001   0.4532     C
C       0.8999   0.7998   0.4532     C
H       0.9016   0.3155   0.6366     H
H       0.9016   0.5861   0.6366     H
C       0.9035   0.0965   0.2232     C
C       0.9035    0.807   0.2232     C
H        0.908   0.3091   0.0296     H
H        0.908   0.5989   0.0296     H
C       0.9179   0.0821   0.4054     C
C       0.9179   0.8358   0.4054     C
C       0.9199   0.0801   0.2718     C
C       0.9199   0.8398   0.2718     C
C       0.9363   0.4033   0.1331     C
C       0.9363    0.533   0.1331     C
C       0.9397     0.19   0.5194     C
C       0.9397   0.7497   0.5194     C
Fe      0.9408   0.0592   0.8381    Fe
Fe      0.9408   0.8816   0.8381    Fe
C        0.942   0.4062   0.4755     C
C        0.942   0.5358   0.4755     C
C       0.9456   0.1838   0.1558     C
C       0.9456   0.7618   0.1558     C
H       0.9532    0.368   0.1194     H
H       0.9532   0.5852   0.1194     H
C       0.9568   0.1734   0.4748     C
C       0.9568   0.7834   0.4748     C
H       0.9598   0.3714   0.4889     H
H       0.9598   0.5884   0.4889     H
C         0.96     0.48   0.1139     C
C       0.9609   0.1688    0.201     C
C       0.9609   0.7921    0.201     C
C        0.967   0.4835   0.4943     C
H       0.9776   0.2396   0.5349     H
H       0.9776    0.738   0.5349     H
N       0.9809  0.49045   0.0333     N
H       0.9842   0.2329   0.1402     H
H       0.9842   0.7513   0.1402     H
H         0.99   0.1975   0.7165     H
H         0.99   0.7925   0.7165     H
O       0.9904    0.129   0.3884     O
O       0.9904   0.8614   0.3884     O
N       0.9906   0.4953   0.5737     N
O       0.9933   0.1292   0.2878     O
O       0.9933   0.8641   0.2878     O
H       0.9936   0.2051   0.9595     H
H       0.9936   0.7885   0.9595     H
