data_I
_chemical_name_common  '/home/zhangsd/repos/MofS-CGCNN/ML/data/SSD/clean_cifs/TOWNOK_clean'
_cell_length_a 12.30810
_cell_length_b 12.30810
_cell_length_c 27.37500
_cell_angle_alpha 90.00000
_cell_angle_beta  90.00000
_cell_angle_gamma 120.00000
_space_group_name_H-M_alt      'P 1'


loop_
_space_group_symop_operation_xyz
  'x, y, z' 

loop_
_atom_site_label
_atom_site_fract_x
_atom_site_fract_y
_atom_site_fract_z
_atom_site_type_symbol
S          0.0  0.34079      0.0     S
S          0.0  0.65921      0.5     S
C       0.0163   0.4638  0.47349     C
C       0.0163   0.5525  0.02651     C
H       0.0253   0.3075   0.4564     H
H       0.0253   0.7178   0.0436     H
C       0.0285   0.4554  0.04502     C
C       0.0285   0.5731  0.45498     C
C       0.0324   0.3826  0.44369     C
C       0.0324   0.6498  0.05631     C
C       0.0592   0.4128  0.39492     C
C       0.0592   0.6464  0.10508     C
C       0.0595   0.4524  0.09387     C
C       0.0595   0.6071  0.40613     C
H       0.0663   0.3559   0.3735     H
H       0.0663   0.7104   0.1265     H
H       0.0686    0.385   0.1059     H
H       0.0686   0.6836   0.3941     H
C       0.0765   0.5294  0.37624     C
C       0.0765   0.5471  0.12376     C
C       0.1119   0.5502  0.17649     C
C       0.1119   0.5617  0.32351     C
O       0.1124   0.4757  0.29692     O
O       0.1124   0.6367  0.20308     O
O       0.1148   0.3391  0.98871     O
O       0.1148   0.7757  0.51129     O
O       0.1458   0.4759  0.18871     O
O       0.1458   0.6699  0.31129     O
O       0.2243   0.3391  0.51129     O
O       0.2243   0.8852  0.98871     O
Fe      0.2432   0.4864     0.25    Fe
Fe      0.2432  0.75679     0.25    Fe
H       0.2822   0.3075   0.0436     H
H       0.2822   0.9747   0.4564     H
H       0.2896   0.3559   0.1265     H
H       0.2896   0.9337   0.3735     H
H       0.3075   0.0253   0.5436     H
H       0.3075   0.2822   0.9564     H
H       0.3164    0.385   0.3941     H
H       0.3164   0.9314   0.1059     H
O       0.3301   0.4759  0.31129     O
O       0.3301   0.8542  0.18871     O
O      0.33333  0.66666     0.25     O
O       0.3391   0.1148  0.01129     O
O       0.3391   0.2243  0.48871     O
S      0.34079      0.0      0.0     S
S      0.34079  0.34079      0.5     S
C       0.3502   0.3826  0.05631     C
C       0.3502   0.9676  0.44369     C
C       0.3536   0.4128  0.10508     C
C       0.3536   0.9408  0.39492     C
H       0.3559   0.0663   0.6265     H
H       0.3559   0.2896   0.8735     H
O       0.3633   0.4757  0.20308     O
O       0.3633   0.8876  0.29692     O
C       0.3826   0.0324  0.55631     C
C       0.3826   0.3502  0.94369     C
H        0.385   0.0686   0.8941     H
H        0.385   0.3164   0.6059     H
C       0.3929   0.4524  0.40613     C
C       0.3929   0.9405  0.09387     C
C       0.4128   0.0592  0.60508     C
C       0.4128   0.3536  0.89492     C
C       0.4269   0.4554  0.45498     C
C       0.4269   0.9715  0.04502     C
C       0.4383   0.5502  0.32351     C
C       0.4383   0.8881  0.17649     C
C       0.4475   0.4638  0.02651     C
C       0.4475   0.9837  0.47349     C
C       0.4498   0.5617  0.17649     C
C       0.4498   0.8881  0.32351     C
C       0.4524   0.0595  0.90613     C
C       0.4524   0.3929  0.59387     C
C       0.4529   0.5294  0.12376     C
C       0.4529   0.9235  0.37624     C
C       0.4554   0.0285  0.95498     C
C       0.4554   0.4269  0.54502     C
C       0.4638   0.0163  0.52651     C
C       0.4638   0.4475  0.97349     C
C       0.4706   0.5471  0.37624     C
C       0.4706   0.9235  0.12376     C
O       0.4757   0.1124  0.70308     O
O       0.4757   0.3633  0.79692     O
O       0.4759   0.1458  0.81129     O
O       0.4759   0.3301  0.68871     O
Fe     0.48641  0.24321     0.75    Fe
Fe     0.51359   0.7568     0.25    Fe
O       0.5241   0.6699  0.18871     O
O       0.5241   0.8542  0.31129     O
O       0.5243   0.6367  0.29692     O
O       0.5243   0.8876  0.20308     O
C       0.5294   0.0765  0.62376     C
C       0.5294   0.4529  0.87624     C
C       0.5362   0.5525  0.47349     C
C       0.5362   0.9837  0.02651     C
C       0.5446   0.5731  0.04502     C
C       0.5446   0.9715  0.45498     C
C       0.5471   0.0765  0.87624     C
C       0.5471   0.4706  0.62376     C
C       0.5476   0.6071  0.09387     C
C       0.5476   0.9405  0.40613     C
C       0.5502   0.1119  0.82351     C
C       0.5502   0.4383  0.67649     C
C       0.5525   0.0163  0.97349     C
C       0.5525   0.5362  0.52651     C
C       0.5617   0.1119  0.67649     C
C       0.5617   0.4498  0.82351     C
C       0.5731   0.0285  0.54502     C
C       0.5731   0.5446  0.95498     C
C       0.5872   0.6464  0.39492     C
C       0.5872   0.9408  0.10508     C
C       0.6071   0.0595  0.59387     C
C       0.6071   0.5476  0.90613     C
H        0.615   0.6836   0.1059     H
H        0.615   0.9314   0.3941     H
C       0.6174   0.6498  0.44369     C
C       0.6174   0.9676  0.05631     C
O       0.6367   0.1124  0.79692     O
O       0.6367   0.5243  0.70308     O
H       0.6441   0.7104   0.3735     H
H       0.6441   0.9337   0.1265     H
C       0.6464   0.0592  0.89492     C
C       0.6464   0.5872  0.60508     C
C       0.6498   0.0324  0.94369     C
C       0.6498   0.6174  0.55631     C
S      0.65921     -0.0      0.5     S
S      0.65921  0.65921      0.0     S
O       0.6609   0.7757  0.98871     O
O       0.6609   0.8852  0.51129     O
O      0.66667  0.33334     0.75     O
O       0.6699   0.1458  0.68871     O
O       0.6699   0.5241  0.81129     O
H       0.6836   0.0686   0.6059     H
H       0.6836    0.615   0.8941     H
H       0.6925   0.7178   0.4564     H
H       0.6925   0.9747   0.0436     H
H       0.7104   0.0663   0.8735     H
H       0.7104   0.6441   0.6265     H
H       0.7178   0.0253   0.9564     H
H       0.7178   0.6925   0.5436     H
Fe      0.7568  0.24321     0.75    Fe
Fe      0.7568   0.5136     0.75    Fe
O       0.7757   0.1148  0.48871     O
O       0.7757   0.6609  0.01129     O
O       0.8542   0.3301  0.81129     O
O       0.8542   0.5241  0.68871     O
O       0.8852   0.2243  0.01129     O
O       0.8852   0.6609  0.48871     O
O       0.8876   0.3633  0.70308     O
O       0.8876   0.5243  0.79692     O
C       0.8881   0.4383  0.82351     C
C       0.8881   0.4498  0.67649     C
C       0.9235   0.4529  0.62376     C
C       0.9235   0.4706  0.87624     C
H       0.9314   0.3164   0.8941     H
H       0.9314    0.615   0.6059     H
H       0.9337   0.2896   0.6265     H
H       0.9337   0.6441   0.8735     H
C       0.9405   0.3929  0.90613     C
C       0.9405   0.5476  0.59387     C
C       0.9408   0.3536  0.60508     C
C       0.9408   0.5872  0.89492     C
C       0.9676   0.3502  0.55631     C
C       0.9676   0.6174  0.94369     C
C       0.9715   0.4269  0.95498     C
C       0.9715   0.5446  0.54502     C
H       0.9747   0.2822   0.5436     H
H       0.9747   0.6925   0.9564     H
C       0.9837   0.4475  0.52651     C
C       0.9837   0.5362  0.97349     C
