data_I
_chemical_name_common  '/home/zhangsd/repos/MofS-CGCNN/ML/data/SSD/clean_cifs/TOWPEC_clean'
_cell_length_a 38.14240
_cell_length_b 38.14240
_cell_length_c 38.14240
_cell_angle_alpha 109.47100
_cell_angle_beta  109.47100
_cell_angle_gamma 109.47100
_space_group_name_H-M_alt      'P 1'


loop_
_space_group_symop_operation_xyz
  'x, y, z' 

loop_
_atom_site_label
_atom_site_fract_x
_atom_site_fract_y
_atom_site_fract_z
_atom_site_type_symbol
O          0.0      0.5   0.2692     O
O          0.0      0.5   0.7308     O
H       0.0008   0.3901   0.3197     H
O       0.0014    0.019   0.7514     O
H       0.0016   0.6052   0.2142     H
H       0.0021   0.9104   0.8037     H
H       0.0025   0.1218   0.6919     H
N       0.0036   0.3598    0.832     N
N        0.004   0.1405   0.1671     N
O       0.0042   0.5728   0.7172     O
O       0.0044   0.9115   0.1919     O
O        0.005   0.5755   0.7919     O
O       0.0055   0.0567   0.3152     O
O       0.0056   0.0555   0.2417     O
O       0.0059   0.9172   0.2719     O
O       0.0067   0.4349    0.747     O
H       0.0068   0.8603   0.1291     H
H       0.0083   0.6308   0.8591     H
O       0.0086   0.4312   0.6748     O
C        0.009   0.8072   0.8898     C
N       0.0101   0.8432   0.3573     N
C       0.0102   0.6912   0.1086     C
O       0.0107   0.2041    0.941     O
O        0.011   0.3258   0.0876     O
N       0.0114   0.6642   0.6486     N
O       0.0123   0.2514   0.0815     O
N       0.0141   0.3472   0.8573     N
O       0.0143   0.2793   0.9486     O
N       0.0156   0.1642   0.1528     N
Fe      0.0156   0.7519   0.4715    Fe
Fe     0.01563   0.7817  0.56413    Fe
H       0.0161   0.1971   0.6094     H
H       0.0161   0.3033   0.3932     H
O       0.0176   0.2676    0.019     O
H       0.0182   0.2184   0.1284     H
O        0.019   0.2514   0.5014     O
H       0.0192   0.3211   0.9117     H
C       0.0201   0.8395   0.8796     C
O       0.0213   0.3131    0.574     O
C        0.022   0.6807   0.1411     C
O       0.0227   0.1912   0.4315     O
O       0.0236   0.2356   0.5718     O
H       0.0238   0.1278   0.3782     H
C       0.0245   0.7271   0.0714     C
O       0.0252    0.272   0.4366     O
N       0.0266   0.3595   0.3635     N
C       0.0266   0.7806   0.9398     C
C       0.0267   0.8929     0.33     C
H        0.027   0.3775   0.6311     H
C       0.0271   0.4104   0.8091     C
C       0.0273   0.1098   0.2087     C
C       0.0273   0.8247    0.071     C
N       0.0278   0.1716    0.668     N
C       0.0281   0.6857   0.9404     C
Fe      0.0285   0.9844   0.7481    Fe
Fe      0.0287  0.56091  0.29781    Fe
C       0.0287   0.6286   0.6915     C
Fe     0.02904  0.07694  0.77934    Fe
C       0.0321   0.8812   0.1329     C
Fe     0.03221   0.4713  0.26911    Fe
C       0.0329   0.6343   0.8806     C
C       0.0375   0.1417   0.1998     C
C       0.0384   0.3979   0.8401     C
C       0.0396   0.8809   0.3589     C
C       0.0401   0.6605   0.6806     C
C       0.0403   0.8143   0.9288     C
C       0.0405   0.9393   0.1988     C
C       0.0417   0.7191    0.107     C
C       0.0421   0.5874   0.7267     C
C       0.0425   0.5858   0.8241     C
C       0.0433   0.4575   0.7816     C
C       0.0437    0.071   0.2463     C
Fe      0.0441   0.7637   0.0156    Fe
C       0.0447   0.3268   0.4089     C
C       0.0453   0.4579   0.6846     C
C       0.0455   0.9417      0.3     C
C       0.0458   0.2089   0.6281     C
C       0.0468   0.8697   0.1053     C
C       0.0469   0.0714   0.3443     C
C       0.0475   0.6607   0.9248     C
Fe      0.0479   0.2976  0.07694    Fe
O       0.0482    0.712   0.9764     O
Fe      0.0485  0.26607  0.98437    Fe
C       0.0496   0.1323   0.3989     C
O       0.0499   0.8138   0.0555     O
C       0.0511   0.3989   0.6338     C
O       0.0512   0.7415   0.0567     O
O       0.0514   0.8307   0.5657     O
O       0.0527   0.7918   0.9787     O
C       0.0541   0.9237   0.1668     C
C       0.0552   0.6126   0.8678     C
O       0.0555   0.7417   0.5056     O
O       0.0567   0.8152   0.5055     O
C       0.0574   0.4448   0.8126     C
C       0.0578   0.1983   0.6599     C
C       0.0581   0.3583   0.3958     C
C       0.0582   0.9281   0.3337     C
C       0.0583      0.2   0.4545     C
C       0.0585   0.1053   0.2356     C
O        0.059   0.7631   0.5697     O
C       0.0592   0.6238   0.7182     C
C       0.0596   0.2453   0.5877     C
C       0.0602   0.3408   0.5868     C
C       0.0607   0.3012   0.4595     C
Fe     0.06091  0.53221   0.7631    Fe
C       0.0629   0.6967     0.17     C
C       0.0629   0.8714   0.9001     C
O       0.0634   0.9748    0.228     O
Fe     0.06413  0.01563   0.2817    Fe
C       0.0646   0.4408    0.659     C
O       0.0651   0.5718   0.8121     O
C       0.0653    0.107   0.3879     C
O       0.0657   0.0514   0.3307     O
O       0.0685   0.9773   0.3088     O
O       0.0686   0.4958    0.713     O
O       0.0688   0.5774   0.7436     O
O       0.0692   0.0815   0.8301     O
O       0.0697    0.059   0.2631     O
H       0.0701   0.6894   0.1919     H
H       0.0704   0.8901   0.8893     H
O       0.0705    0.495   0.7869     O
C        0.071   0.7463   0.5437     C
C       0.0712   0.3855   0.6115     C
C       0.0714   0.8443   0.5469     C
O       0.0718   0.0236   0.7356     O
O       0.0718   0.5067   0.2597     O
C       0.0719   0.1663   0.4418     C
O       0.0728   0.5686   0.3556     O
O        0.074   0.0213   0.8131     O
C       0.0752   0.2359   0.6227     C
O       0.0755   0.5705   0.2836     O
C       0.0763   0.3332   0.4459     C
O       0.0766   0.0876   0.7618     O
Fe     0.07694  0.27934  0.52904    Fe
O       0.0774   0.5086   0.3338     O
C       0.0808   0.4177   0.8719     C
O       0.0815   0.3301   0.5692     O
C       0.0821   0.1732   0.2179     C
C       0.0823   0.6631   0.9542     C
C       0.0825   0.9011   0.1098     C
C       0.0826   0.6928   0.7018     C
C       0.0826   0.9016   0.3914     C
C       0.0827   0.7334   0.1323     C
C       0.0827   0.8478   0.9489     C
O       0.0828   0.2281   0.4941     O
C       0.0858   0.5433   0.2617     C
C       0.0868   0.0602   0.8408     C
C       0.0874   0.5453   0.3607     C
O       0.0876   0.2618   0.5766     O
C       0.0877   0.0596   0.7453     C
H       0.0877   0.4067   0.8906     H
H       0.0883   0.9094   0.6075     H
O       0.0885   0.3081   0.4956     O
O       0.0886   0.2532   0.0252     O
O       0.0887   0.3547   0.0828     O
C       0.0896   0.6167   0.8987     C
H       0.0896   0.6963   0.4979     H
H       0.0899   0.1967   0.2128     H
H         0.09   0.7184   0.7002     H
H       0.0906   0.8925   0.4117     H
C       0.0911   0.9553   0.1732     C
O       0.0912   0.3315   0.0227     O
H       0.0917   0.8933   0.0896     H
O       0.0929   0.2804   0.0885     O
H       0.0933    0.681   0.9839     H
C       0.0944   0.7245   0.1663     C
C       0.0944   0.8762   0.9354     C
C       0.0984   0.1086   0.4174     C
C       0.0989   0.3902   0.4175     C
C       0.0999   0.4713   0.6628     C
C       0.1008   0.1329   0.2517     C
C       0.1011   0.6522   0.7349     C
C       0.1011   0.9504   0.3677     C
C       0.1012   0.2595   0.0607     C
C       0.1013    0.218   0.6909     C
C       0.1014   0.4671   0.8477     C
C       0.1021   0.6405   0.9422     C
H       0.1036   0.4984   0.2126     H
C       0.1038   0.3583   0.0583     C
H        0.104   0.7496   0.1278     H
H       0.1041   0.8505    0.973     H
C       0.1042   0.9419   0.1417     C
H       0.1052   0.6036    0.891     H
C       0.1053   0.7356   0.5585     C
H       0.1067   0.4104   0.4083     H
H       0.1068   0.9839   0.1967     H
C        0.107   0.8879   0.5653     C
C       0.1071     0.17   0.4733     C
H       0.1075   0.0883   0.4094     H
C       0.1086   0.9174   0.5984     C
H        0.109   0.2126   0.7142     H
H       0.1094   0.0161   0.6971     H
C       0.1098   0.7087   0.5273     C
H       0.1099   0.6107   0.4296     H
H       0.1102   0.1284     0.91     H
C       0.1102   0.4174   0.6192     C
H       0.1107   0.5008   0.6811     H
C       0.1115   0.0712   0.8855     C
C       0.1121   0.9347    0.393     C
C       0.1126   0.5574   0.2448     C
C       0.1127   0.1668   0.2431     C
C       0.1132   0.4525   0.8773     C
C       0.1145   0.6857    0.726     C
C       0.1167   0.5271    0.218     C
C       0.1188   0.3671   0.4679     C
C       0.1191   0.1411   0.4604     C
C       0.1192   0.1102   0.9174     C
H       0.1193   0.4299   0.1218     H
C       0.1194   0.2537   0.6523     C
C       0.1204   0.4599   0.6405     C
H       0.1218   0.1919   0.5025     H
H       0.1218   0.9762   0.3722     H
H       0.1223   0.1291   0.2688     H
H       0.1225   0.4917   0.8508     H
H       0.1225   0.6495   0.7536     H
C       0.1227   0.0752   0.7359     C
H       0.1229   0.2128   0.0161     H
C       0.1238   0.5646   0.4056     C
H       0.1278   0.8782   0.5238     H
C       0.1281   0.0458   0.7089     C
H       0.1284     0.41   0.6102     H
C       0.1286   0.5999   0.4371     C
H       0.1291   0.7688   0.6223     H
C       0.1301   0.4056   0.0719     C
C       0.1303   0.3947   0.4532     C
C       0.1304   0.2431   0.0763     C
H       0.1308   0.6225   0.2717     H
H       0.1311    0.027   0.8775     H
C       0.1322   0.2448   0.6874     C
C       0.1323   0.8989   0.5496     C
C       0.1329   0.7517   0.6008     C
C       0.1338   0.0511   0.8989     C
C       0.1338   0.4371   0.1071     C
C       0.1343   0.6014   0.2537     C
C       0.1358   0.2179   0.0447     C
N       0.1365   0.9734   0.1405     N
N       0.1372   0.1528   0.9886     N
C       0.1393   0.9126   0.9547     C
H       0.1397   0.3709   0.4932     H
N       0.1402   0.6438   0.9722     N
C       0.1405   0.1204   0.9599     C
C       0.1405   0.5384   0.1983     C
N       0.1405   0.6671    0.504     N
H       0.1409   0.2717   0.6492     H
C       0.1411   0.9604   0.6191     C
C       0.1417   0.6998   0.5375     C
C       0.1417   0.7455      0.2     C
N       0.1427   0.9899   0.6568     N
N       0.1438   0.5036   0.1716     N
O       0.1444   0.9272   0.9314     O
O       0.1453    0.734   0.2281     O
H       0.1456    0.396   0.0238     H
H       0.1465   0.2688   0.1397     H
N       0.1486   0.0114   0.1642     N
H       0.1492   0.1409   0.7717     H
H       0.1495    0.527   0.3959     H
C       0.1507   0.4173   0.0496     C
C       0.1509   0.2517   0.1188     C
C       0.1522   0.5511   0.4173     C
C       0.1523   0.1194   0.7537     C
N       0.1528   0.4886   0.6372     N
N       0.1528   0.6669   0.0101     N
C       0.1557   0.9531   0.4286     C
N       0.1568   0.1427   0.4899     N
C       0.1576   0.4719   0.9123     C
C       0.1583   0.1988   0.2595     C
C       0.1587    0.478   0.1191     C
C        0.159   0.0646   0.9408     C
C       0.1592   0.7194    0.746     C
C       0.1599   0.0578   0.6983     C
C       0.1605   0.6204   0.4799     C
C       0.1607   0.6132   0.2359     C
C       0.1623   0.1998   0.0581     C
C       0.1628   0.0999   0.9713     C
N       0.1631   0.1671   0.0266     N
C       0.1631   0.5808   0.2089     C
O       0.1638   0.4518   0.9282     O
N       0.1642   0.6528   0.5156     N
O       0.1646    0.228   0.2532     O
O       0.1662   0.9226   0.9914     O
C       0.1663   0.9418   0.5719     C
C       0.1668   0.7431   0.6127     C
N       0.1669   0.5141   0.1568     N
N       0.1671   0.5266   0.6631     N
N        0.168   0.0278   0.6716     N
O       0.1685   0.7597   0.1912     O
O       0.1693   0.9343   0.4486     O
O       0.1699   0.7514   0.7391     O
C         0.17   0.9733   0.6071     C
N       0.1716    0.168   0.5278     N
C       0.1732   0.7179   0.5821     C
O       0.1742   0.6852   0.2618     O
O       0.1748   0.0086   0.9312     O
C       0.1753    0.429   0.4727     C
C       0.1759   0.2617   0.7184     C
C       0.1771   0.2356   0.1303     C
C       0.1774   0.4583   0.0653     C
H       0.1789   0.6981   0.0906     H
H       0.1803   0.9992   0.1099     H
C       0.1806   0.0401   0.1605     C
C       0.1807   0.6587   0.0396     C
C        0.181   0.4898   0.0984     C
H        0.181   0.5877   0.1971     H
H       0.1811   0.1107   0.0008     H
C       0.1814   0.2087   0.0989     C
C       0.1846   0.0453   0.9579     C
O       0.1848   0.9945   0.4433     O
O       0.1852    0.511   0.9234     O
C       0.1857   0.5712   0.4597     C
C       0.1857   0.6576   0.2453     C
O       0.1862   0.4445   0.4501     O
O       0.1869   0.7082   0.7609     O
C       0.1874   0.1322   0.7448     C
O       0.1875   0.1919   0.2804     O
O       0.1879   0.2597    0.753     O
H       0.1894   0.6193   0.9975     H
O       0.1903   0.4488   0.0055     O
C       0.1909   0.1013    0.718     C
C       0.1912    0.681   0.0826     C
O       0.1912   0.9315   0.5227     O
C       0.1915   0.0287   0.1286     C
H       0.1919   0.0025   0.6218     H
O       0.1919   0.7804   0.6875     O
C       0.1928   0.6102    0.491     C
O       0.1934   0.2631   0.2041     O
H       0.1963   0.6067   0.6984     H
C       0.1967   0.6338   0.0267     C
H       0.1967   0.7128   0.5899     H
H       0.1971   0.1094   0.5161     H
H       0.1981   0.5192   0.1075     H
C       0.1983   0.1599   0.5578     C
H       0.1984   0.1963   0.1067     H
C       0.1988   0.7595   0.6583     C
C       0.1998   0.5581   0.6623     C
C          0.2   0.9545   0.5583     C
H       0.2002     0.09   0.2184     H
C       0.2018   0.0826   0.1928     C
Fe     0.20219   0.9713  0.93909    Fe
Fe      0.2024   0.7503  0.27934    Fe
C       0.2026   0.2463   0.1753     C
C       0.2026   0.4755   0.0469     C
O       0.2041    0.441   0.5107     O
O       0.2081   0.2836   0.7131     O
O       0.2082   0.5213   0.4473     O
C       0.2087   0.5989   0.6814     C
C       0.2089   0.1281   0.5458     C
O        0.212   0.6638   0.2356     O
H       0.2126   0.2142    0.609     H
H       0.2128   0.5161   0.6229     H
O        0.213   0.0686   0.9958     O
O       0.2131   0.2081   0.7836     O
H       0.2142    0.109   0.7126     H
O       0.2164   0.9245   0.9295     O
O       0.2172   0.0042   0.0728     O
Fe     0.21757   0.2817  0.26607    Fe
C       0.2179   0.5447   0.6358     C
C        0.218   0.1909   0.6013     C
C       0.2182   0.0592   0.1238     C
Fe      0.2183  0.93587  0.48437    Fe
C       0.2184   0.1759   0.7617     C
H       0.2184   0.6284   0.5182     H
C       0.2191   0.6774   0.1121     C
C       0.2194   0.5602   0.4734     C
Fe      0.2196   0.4559   0.9715    Fe
O       0.2196   0.8125   0.3081     O
Fe     0.22066   0.7976   0.7497    Fe
O       0.2207    0.735   0.1693     O
C       0.2245   0.6301   0.0582     C
C        0.226   0.1145   0.1857     C
C       0.2267   0.0421   0.0874     C
C       0.2271   0.7026   0.1557     C
O        0.228   0.7532   0.6646     O
O       0.2281   0.9941   0.5828     O
H       0.2283   0.8692   0.8775     H
O       0.2308      0.0     -0.0     O
Fe     0.23089  0.96779   0.0287    Fe
H       0.2312   0.8777   0.3709     H
O       0.2324     0.75   0.2514     O
C       0.2334   0.6507   0.1011     C
Fe     0.23393  0.78243   0.2183    Fe
O        0.234   0.5887   0.0059     O
C       0.2349   0.1011   0.1522     C
O        0.235   0.5143   0.0657     O
O       0.2356   0.0718   0.5236     O
C       0.2356   0.6303   0.6771     C
C       0.2359   0.1227   0.5752     C
O       0.2361   0.2417   0.1862     O
Fe      0.2363   0.4844   0.4559    Fe
Fe      0.2369  0.26911  0.79781    Fe
O       0.2369   0.9303    0.441     O
O       0.2382   0.8258   0.8148     O
C       0.2383   0.9142   0.9567     C
O       0.2391   0.1699   0.2514     O
O       0.2391   0.4473    0.926     O
O       0.2403   0.3088   0.3315     O
O       0.2403   0.9282   0.9933     O
C       0.2405   0.8417   0.3012     C
O       0.2415   0.6903   0.1848     O
O       0.2417   0.6862   0.7361     O
C       0.2431   0.5763   0.6304     C
O       0.2436   0.0688   0.0774     O
C       0.2448   0.1874   0.6322     C
C       0.2453   0.0877   0.5596     C
C       0.2455   0.6038   0.0455     C
C        0.246   0.1592   0.2194     C
C       0.2463   0.6753   0.7026     C
C       0.2463   0.8657   0.8986     C
H       0.2464   0.3959   0.8689     H
O       0.2468   0.8354    0.272     O
O        0.247   0.0067   0.9349     O
Fe      0.2481   0.0285   0.4844    Fe
C       0.2483   0.8992   0.3671     C
O       0.2486   0.7609   0.3301     O
O       0.2486   0.7676     0.75     O
H       0.2496   0.6456   0.1218     H
Fe      0.2497  0.22066   0.2976    Fe
O         0.25   0.2486   0.2676     O
O         0.25   0.5176   0.9986     O
Fe      0.2503   0.5479  0.97096    Fe
H       0.2504   0.3722    0.396     H
O       0.2514   0.0014    0.519     O
O       0.2514   0.5815   0.5123     O
C       0.2517   0.6188   0.6509     C
Fe      0.2519   0.7363   0.7804    Fe
O        0.253   0.1879   0.7597     O
O       0.2532   0.5252   0.5886     O
H       0.2536   0.1225   0.1495     H
C       0.2537   0.1523   0.6194     C
C       0.2537   0.9563    0.429     C
C        0.254   0.4734   0.9132     C
C       0.2545      0.3   0.3583     C
C       0.2547   0.8143   0.8424     C
C       0.2552   0.8874   0.9426     C
O       0.2564   0.3338   0.8252     O
C       0.2569   0.8873   0.3332     C
O       0.2583   0.9944   0.4445     O
O       0.2585   0.4433   0.4488     O
C       0.2595   0.5607   0.6012     C
O       0.2597    0.253   0.6879     O
O       0.2597   0.5912   0.0685     O
O       0.2609   0.1869   0.2082     O
O       0.2609   0.5123   0.9308     O
C       0.2617   0.2184   0.6759     C
O       0.2618   0.0766   0.5876     O
Fe      0.2631  0.06091  0.03221    Fe
O       0.2631   0.7041   0.6934     O
Fe      0.2637   0.7196   0.2481    Fe
O       0.2639   0.4501   0.0056     O
C       0.2641   0.8393   0.8868     C
O       0.2644    0.788   0.8362     O
C       0.2644   0.9415   0.3947     C
O        0.265   0.3307   0.2793     O
C       0.2651   0.4173   0.8662     C
O        0.266   0.2719   0.3547     O
Fe     0.26607  0.48437   0.5485    Fe
C       0.2666   0.3677   0.4173     C
O       0.2676    0.519   0.5176     O
H       0.2688   0.6397   0.6465     H
Fe     0.26911  0.29781   0.7369    Fe
O       0.2692   0.2692   0.7692     O
H       0.2717   0.1492   0.6409     H
O       0.2719   0.8547    0.766     O
O        0.272   0.9366   0.5252     O
C       0.2729   0.4286   0.4755     C
C       0.2733   0.3607   0.8154     C
C        0.274   0.4597   0.8885     C
C       0.2755   0.3337   0.4056     C
O       0.2793   0.4486   0.5143     O
Fe     0.27934  0.02904  0.57694    Fe
Fe      0.2804   0.2519   0.2363    Fe
O       0.2804   0.5885   0.5929     O
C       0.2806    0.754   0.3408     C
C       0.2809    0.393   0.4583     C
C       0.2816   0.0433   0.9575     C
H       0.2816   0.7998     0.41     H
Fe      0.2817  0.76607  0.71757    Fe
C       0.2818   0.4056    0.841     C
C        0.282   0.8833   0.9729     C
C       0.2821   0.9179   0.3268     C
Fe     0.28243   0.5485  0.06413    Fe
O       0.2828   0.3556    0.787     O
O       0.2836   0.2131   0.7081     O
H       0.2858   0.9984   0.8948     H
O       0.2869   0.0705    0.995     O
O        0.287   0.2828   0.8556     O
H       0.2872   0.9101   0.3033     H
H       0.2874   0.8964   0.0016     H
O        0.288   0.5236   0.4518     O
C       0.2911   0.8369   0.9192     C
C       0.2913   0.9727   0.3902     C
O       0.2918   0.7391   0.3131     O
O       0.2919    0.005   0.0755     O
O       0.2959   0.8066   0.2369     O
C       0.2974   0.3443   0.2729     C
C       0.2974   0.4727   0.0437     C
Fe      0.2976  0.57694   0.5479    Fe
Fe     0.29781   0.2369  0.76911    Fe
C       0.2982    0.491   0.8808     C
H       0.2998   0.5182   0.8898     H
C          0.3   0.8583   0.7545     C
C       0.3002   0.9625   0.3583     C
C       0.3012   0.9595   0.5607     C
H       0.3016   0.4083   0.9979     H
C       0.3017   0.8595   0.9616     C
H       0.3019   0.4094   0.3211     H
H       0.3029    0.819   0.9123     H
C       0.3033     0.33   0.4371     C
H       0.3033   0.8932   0.5161     H
H       0.3037   0.0021   0.4104     H
O       0.3066   0.5107   0.0697     O
C       0.3072   0.7982   0.4174     C
H       0.3081   0.9299   0.8106     H
O       0.3081   0.9956   0.5885     O
C       0.3085   0.4371   0.8372     C
C       0.3088   0.3914   0.4898     C
O       0.3088   0.8315   0.7403     O
C       0.3091   0.0271   0.9104     C
O       0.3097   0.3152   0.2585     O
H       0.3106   0.3081   0.4299     H
O       0.3121   0.0651   0.0718     O
O       0.3125   0.5929   0.0044     O
C       0.3126   0.0574   0.9448     C
O       0.3131    0.074   0.5213     O
O       0.3138   0.7639   0.2583     O
C       0.3143   0.5596   0.4719     C
C       0.3143    0.774   0.3855     C
O       0.3148   0.2382   0.3258     O
O       0.3152   0.7585   0.8097     O
C       0.3154   0.2733   0.8607     C
C       0.3186   0.4175   0.0273     C
H       0.3189   0.3197   0.9296     H
C        0.319   0.4174   0.3088     C
H        0.319   0.5161   0.4067     H
C       0.3193   0.3589    0.478     C
C       0.3194   0.4799   0.8595     C
H       0.3197   0.4296   0.8189     H
H       0.3211   0.4117   0.5192     H
C       0.3226   0.3879   0.2809     C
C       0.3229   0.4532   0.0585     C
C       0.3241   0.0425   0.0858     C
C       0.3247   0.7974   0.2537     C
O       0.3252   0.2564   0.8338     O
O       0.3258   0.5876    0.511     O
C       0.3268   0.9089   0.5447     C
N       0.3284   0.8562   0.9964     N
C         0.33   0.9371   0.8033     C
O       0.3301   0.0692   0.5815     O
O       0.3307   0.7793    0.765     O
O       0.3315   0.5227   0.5912     O
N        0.332   0.0036   0.8598     N
N       0.3329    0.996   0.3595     N
N       0.3331   0.4899   0.3472     N
C       0.3332   0.9459   0.5763     C
C       0.3337   0.9056   0.7755     C
O       0.3338   0.3252   0.7564     O
O       0.3354   0.5886   0.0634     O
N       0.3358   0.8514   0.4886     N
O       0.3362   0.2644    0.288     O
N       0.3369   0.3635    0.004     N
C       0.3369   0.5458   0.4177     C
C       0.3372   0.3085   0.9371     C
C       0.3377   0.3958   0.0375     C
C       0.3393   0.5752   0.4525     C
C       0.3395   0.8194   0.4599     C
C       0.3401   0.0384   0.8979     C
C       0.3408   0.0868   0.5602     C
C        0.341   0.2818   0.9056     C
C       0.3413   0.4604   0.3193     C
C       0.3417   0.6012   0.0405     C
C       0.3424   0.2547   0.3143     C
N       0.3432   0.8331   0.9859     N
C       0.3443   0.7729   0.7974     C
N       0.3472   0.3573   0.5141     N
N       0.3472   0.9844   0.3358     N
C       0.3477   0.1014   0.9671     C
C       0.3478   0.7651   0.3989     C
C       0.3491   0.4679   0.1008     C
C       0.3493   0.3989   0.2666     C
H       0.3505   0.7464   0.3775     H
H       0.3508   0.1225   0.9917     H
N       0.3514   0.5156   0.8628     N
H       0.3535   0.4932   0.1223     H
H       0.3544   0.3782   0.2504     H
O       0.3547   0.5828   0.5887     O
O       0.3556    0.287   0.7828     O
N       0.3562   0.5278   0.3598     N
N       0.3573   0.0141   0.8472     N
C       0.3583   0.5583   0.6038     C
C       0.3583   0.8958   0.5581     C
C       0.3589    0.978   0.8193     C
H       0.3591   0.0083   0.1308     H
C       0.3595   0.3194   0.9799     C
C       0.3595   0.5578   0.3979     C
N       0.3595   0.8635   0.5266     N
N       0.3598    0.332   0.5036     N
H       0.3603   0.8535   0.2312     H
C       0.3607   0.3154   0.7733     C
N       0.3628   0.3514   0.0156     N
N       0.3635    0.504   0.8369     N
C       0.3642   0.4089   0.0821     C
C       0.3657   0.6194   0.4671     C
C       0.3662   0.2651   0.9173     C
C       0.3662   0.4733   0.3033     C
C       0.3671   0.9679   0.6188     C
C       0.3677   0.9173   0.7666     C
C       0.3678   0.0552   0.1126     C
H       0.3689   0.2464   0.8959     H
H       0.3692   0.6409   0.4917     H
C       0.3696   0.4459   0.1127     C
C       0.3697   0.8229   0.2644     C
C       0.3699   0.4418   0.2755     C
H       0.3709   0.9932   0.6397     H
C       0.3714   0.8085   0.4713     C
H       0.3716   0.9818   0.2816     H
C       0.3719   0.0808   0.9177     C
H       0.3722    0.896   0.7504     H
C       0.3762   0.7818   0.4408     C
H       0.3771   0.3932   0.0899     H
C       0.3773   0.1132   0.9525     C
H       0.3775   0.1311    0.527     H
H       0.3775   0.2283   0.3692     H
H       0.3777   0.6465   0.0068     H
H       0.3782   0.7504   0.8544     H
H       0.3782   0.8807   0.0701     H
C       0.3796   0.0201   0.3395     C
C       0.3806   0.0329   0.1343     C
H       0.3807   0.5025   0.3106     H
C       0.3808   0.2982    0.991     C
C       0.3809   0.8413    0.022     C
C       0.3812   0.8491   0.2483     C
C       0.3833   0.6013   0.4104     C
C       0.3855   0.1115   0.5712     C
C       0.3868   0.2641   0.3393     C
C       0.3873   0.6304   0.0541     C
C       0.3874   0.6322   0.4448     C
C       0.3879   0.7809   0.8226     C
C       0.3885    0.274   0.9597     C
H       0.3893   0.0704   0.3901     H
C       0.3898    0.009   0.3072     C
H       0.3898   0.2998   0.0182     H
H       0.3901   0.8197   0.5008     H
C       0.3902   0.9175   0.5989     C
H       0.3906   0.0877   0.9067     H
H        0.391   0.1052   0.1036     H
C       0.3914   0.9898   0.8088     C
H       0.3925   0.8019   0.9808     H
C       0.3929   0.8662   0.0629     C
C        0.393   0.9583   0.7809     C
H       0.3932   0.5899   0.8771     H
H       0.3933   0.8016   0.3037     H
C       0.3947   0.9532   0.6303     C
H       0.3948   0.2858   0.4984     H
C       0.3958   0.5375   0.8377     C
H       0.3959   0.3689   0.7464     H
H        0.396   0.5238   0.6456     H
C       0.3962   0.4545   0.2545     C
H       0.3964    0.609   0.3948     H
C       0.3979   0.3401   0.5384     C
C       0.3986   0.2463   0.3657     C
C       0.3987   0.0896   0.1167     C
C       0.3988   0.4595   0.1583     C
C       0.3989   0.1338   0.5511     C
C       0.3989   0.7666   0.8493     C
C       0.3992   0.6509   0.0321     C
C       0.4001   0.0629   0.3714     C
C       0.4011   0.8186   0.2913     C
C       0.4016    0.819   0.0102     C
C       0.4056    0.341   0.7818     C
C       0.4056   0.5719   0.6301     C
H       0.4067   0.3906   0.5877     H
O       0.4071   0.4956   0.1875     O
H       0.4083   0.4979   0.8016     H
O       0.4088   0.4315   0.2403     O
C       0.4089   0.5821   0.8642     C
H       0.4094   0.8211   0.8019     H
H         0.41   0.1102   0.6284     H
H       0.4101   0.6229   0.1068     H
C       0.4104   0.3091   0.5271     C
H       0.4104   0.9083   0.6067     H
O       0.4113   0.4941    0.266     O
O       0.4114   0.4366   0.1646     O
O       0.4115   0.9071   0.2196     O
H       0.4117   0.0192   0.8211     H
C       0.4123   0.1576   0.9719     C
H       0.4123   0.3029    0.319     H
O       0.4124    0.989   0.1742     O
C       0.4126   0.7733   0.4579     C
C       0.4132    0.254   0.9734     C
C       0.4142   0.6759   0.4575     C
O       0.4172   0.9113   0.1453     O
C       0.4173   0.3662   0.7651     C
C       0.4173   0.5496   0.6507     C
C       0.4174   0.1192   0.6102     C
C       0.4174   0.8088    0.819     C
C       0.4175   0.5273   0.8186     C
C       0.4177   0.3719   0.5808     C
C       0.4179   0.6358   0.0911     C
O       0.4185   0.9877   0.2486     O
C       0.4192   0.2911   0.3369     C
O       0.4226   0.7564   0.4312     O
Fe     0.42306   0.9521   0.2024    Fe
O       0.4234   0.1852    0.011     O
C       0.4237   0.8696   0.2569     C
O       0.4245   0.7081    0.495     O
C       0.4248   0.0475   0.1607     C
O        0.426   0.2391   0.9473     O
O       0.4272   0.7828   0.4958     O
C       0.4281   0.8699   0.0944     C
O       0.4282   0.1638   0.9518     O
O       0.4282   0.6879   0.4349     O
C       0.4286   0.9755   0.7729     C
C       0.4288   0.0403   0.3143     C
C        0.429   0.9727   0.6753     C
O       0.4295   0.2164   0.4245     O
H       0.4296   0.3189   0.8197     H
H       0.4299   0.6218   0.6193     H
O       0.4303   0.6934   0.9893     O
O       0.4308   0.2609   0.0123     O
O       0.4312   0.1748   0.5086     O
O       0.4314   0.1444   0.4272     O
O       0.4315   0.7403   0.9088     O
O       0.4343    0.765   0.9857     O
C       0.4347   0.8226   0.0417     C
O       0.4349    0.247   0.5067     O
C       0.4354   0.0944   0.3762     C
Fe     0.43587  0.71757   0.9515    Fe
O       0.4366   0.6646   0.9114     O
C       0.4371   0.3372   0.8085     C
C       0.4371   0.6071   0.6338     C
Fe     0.43909  0.20219   0.4713    Fe
C       0.4393   0.8988   0.2405     C
C       0.4398   0.0266   0.2806     C
C       0.4404   0.0281   0.1857     C
C       0.4408    0.159   0.5646     C
O        0.441   0.0107   0.7041     O
C       0.4415   0.6771   0.0468     C
C       0.4417   0.8962   0.1417     C
C       0.4418   0.7755   0.8699     C
C       0.4419   0.8377   0.3002     C
C       0.4422   0.1021   0.1405     C
C       0.4426   0.2552   0.3874     C
O       0.4433   0.9488   0.7585     O
O       0.4445   0.9501   0.6862     O
C       0.4448   0.3126   0.5574     C
C       0.4459   0.6127   0.8696     C
O       0.4473    0.426   0.7391     O
O       0.4486   0.0143   0.7793     O
O       0.4488   0.5055   0.6903     O
C       0.4489   0.0827   0.3478     C
O       0.4501   0.5056   0.7639     O
C       0.4504   0.8493   0.0827     C
Fe      0.4515  0.43587  0.21757    Fe
O       0.4518   0.4282   0.6638     O
Fe      0.4521  0.52904   0.2497    Fe
C       0.4525   0.3773   0.6132     C
C       0.4531   0.7974   0.0245     C
C       0.4532   0.5585   0.8229     C
C       0.4542   0.0823   0.1631     C
C       0.4545   0.7545   0.8962     C
C       0.4547   0.1393   0.4126     C
C       0.4553   0.8642   0.2821     C
Fe      0.4559   0.4715   0.7196    Fe
C       0.4563   0.7026   0.0273     C
C       0.4567   0.2383   0.4142     C
C       0.4575   0.2816   0.5433     C
C       0.4579   0.1846   0.5453     C
C       0.4583   0.5653   0.6774     C
C       0.4595   0.6583   0.8988     C
C       0.4597   0.3885    0.774     C
C       0.4599   0.1405   0.6204     C
C       0.4604   0.8193   0.8413     C
C       0.4616   0.3017   0.3595     C
C       0.4625   0.6623   0.1042     C
C       0.4671   0.3477   0.6014     C
Fe     0.46779   0.7369  0.43909    Fe
C       0.4679   0.6008   0.8491     C
Fe     0.47096   0.2503   0.0479    Fe
C       0.4713   0.1628   0.5999     C
Fe      0.4713  0.76911  0.53221    Fe
Fe      0.4715   0.2196   0.9559    Fe
C       0.4719   0.4123   0.6576     C
N       0.4722   0.1402   0.1438     N
C       0.4727   0.5437   0.7974     C
C       0.4727   0.6814   0.0825     C
C       0.4729    0.282   0.3833     C
H        0.473   0.1041   0.3505     H
C       0.4733   0.8033   0.8662     C
C       0.4734   0.4132    0.754     C
N       0.4734   0.8369   0.3329     N
O       0.4748   0.9114   0.2468     O
C       0.4755   0.5469   0.7026     C
H       0.4762   0.8544    0.104     H
O       0.4764   0.0482    0.212     O
O       0.4773   0.9088   0.1685     O
C        0.478   0.6191   0.6587     C
O       0.4787   0.0527   0.2918     O
C       0.4799   0.3595   0.8194     C
H       0.4808   0.3925   0.3019     H
O        0.481   0.9824   0.2324     O
H       0.4818   0.6102   0.2002     H
O       0.4824   0.5014     0.25     O
H       0.4839   0.0933    0.181     H
H       0.4839   0.8771   0.2872     H
Fe     0.48437   0.0485  0.76607    Fe
N       0.4844   0.6372   0.1486     N
Fe      0.4844   0.9559   0.7363    Fe
O       0.4857   0.4343    0.265     O
N       0.4859   0.3432   0.3331     N
O       0.4877   0.5692   0.2391     O
N       0.4886   0.1372   0.6528     N
O        0.489   0.5766   0.3148     O
O       0.4893   0.4303   0.1934     O
C       0.4898   0.5984    0.681     C
N       0.4899   0.8472   0.8331     N
C        0.491   0.3808   0.7982     C
O       0.4914   0.1662   0.4226     O
H       0.4917   0.3508   0.6225     H
H       0.4932   0.6223   0.8535     H
O       0.4933   0.2403   0.4282     O
O       0.4941    0.766   0.9113     O
O       0.4944   0.7361   0.0499     O
O       0.4945   0.8097   0.0512     O
O        0.495   0.2869   0.5705     O
O       0.4956   0.6875   0.9071     O
O       0.4958    0.213   0.5686     O
N        0.496   0.6631   0.1365     N
N       0.4964   0.3284   0.3562     N
H       0.4975   0.1894   0.1193     H
H       0.4979   0.3016   0.9083     H
H       0.4984   0.7126   0.6036     H
O       0.4986     0.25   0.0176     O
H       0.4992   0.8189   0.3893     H
O          0.5   0.2308      0.5     O
O          0.5   0.7692      0.5     O
H       0.5008   0.1811   0.6107     H
O       0.5014     0.75   0.9824     O
H       0.5016   0.2874   0.3964     H
H       0.5021   0.6984   0.0917     H
H       0.5025   0.8106   0.8807     H
N       0.5036   0.6716   0.6438     N
N        0.504   0.3369   0.8635     N
O       0.5042    0.787   0.4314     O
O       0.5044   0.3125   0.0929     O
O        0.505   0.7131   0.4295     O
O       0.5055   0.1903   0.9488     O
O       0.5056   0.2639   0.9501     O
O       0.5059    0.234   0.0887     O
O       0.5067   0.7597   0.5718     O
H       0.5068   0.3777   0.1465     H
H       0.5083   0.6492   0.3775     H
O       0.5086   0.8338   0.5774     O
C        0.509   0.6192   0.2018     C
N       0.5101   0.1528   0.1669     N
C       0.5102   0.4016    0.319     C
O       0.5107   0.5697   0.8066     O
O        0.511   0.4234   0.6852     O
N       0.5114   0.8628   0.3472     N
O       0.5123   0.4308   0.7609     O
N       0.5141   0.6568   0.6669     N
O       0.5143   0.5657    0.735     O
Fe      0.5156   0.0441   0.2637    Fe
N       0.5156   0.3628   0.8514     N
Fe     0.51563   0.9515  0.23393    Fe
H       0.5161   0.1229   0.7128     H
H       0.5161   0.9067    0.819     H
O       0.5176   0.4986     0.75     O
H       0.5182   0.3898   0.7998     H
O        0.519   0.0176   0.7676     O
H       0.5192   0.6075   0.6981     H
C       0.5201   0.6405   0.1806     C
O       0.5213   0.9473   0.7082     O
C        0.522   0.3809   0.3413     C
O       0.5227   0.0912   0.8315     O
O       0.5236   0.9518    0.788     O
H       0.5238   0.1456    0.896     H
C       0.5245   0.4531   0.2974     C
O       0.5252   0.0886   0.7532     O
N       0.5266   0.1631   0.6671     N
C       0.5266   0.5868    0.246     C
C       0.5267   0.1967   0.1338     C
H        0.527   0.8959   0.6495     H
C       0.5271    0.718   0.6167     C
C       0.5273   0.3186   0.9175     C
C       0.5273   0.4563   0.2026     C
N       0.5278   0.8598   0.8562     N
C       0.5281   0.5877   0.3424     C
Fe      0.5285   0.7804   0.0441    Fe
Fe      0.5287  0.23089  0.46779    Fe
C       0.5287   0.8372   0.4001     C
Fe     0.52904   0.7497   0.9521    Fe
C       0.5321   0.3992   0.1509     C
Fe     0.53221   0.2631  0.56091    Fe
C       0.5329   0.6523   0.3986     C
C       0.5375   0.3377   0.8958     C
C       0.5384   0.6983   0.6405     C
C       0.5396   0.1807   0.1587     C
C       0.5401   0.8595   0.3796     C
C       0.5403   0.6115    0.226     C
C       0.5405   0.3417   0.1012     C
C       0.5417   0.4347   0.3226     C
C       0.5421   0.8154   0.4547     C
C       0.5425   0.7184   0.4567     C
C       0.5433   0.7617   0.5858     C
C       0.5437   0.2974   0.9727     C
Fe      0.5441   0.5285   0.2804    Fe
C       0.5447   0.1358   0.7179     C
C       0.5453   0.8607   0.5874     C
C       0.5455   0.2455   0.1038     C
C       0.5458   0.9177   0.8369     C
C       0.5468   0.4415   0.1771     C
C       0.5469   0.2026   0.9755     C
C       0.5475   0.6227   0.3868     C
Fe      0.5479  0.47096   0.7503    Fe
O       0.5482   0.5718   0.3362     O
Fe      0.5485  0.56413  0.78243    Fe
C       0.5496   0.1507   0.9173     C
O       0.5499   0.4944   0.2361     O
C       0.5511   0.9173   0.6522     C
O       0.5512   0.4945   0.3097     O
O       0.5514   0.9857   0.2207     O
O       0.5527    0.574   0.2609     O
C       0.5541   0.3873   0.1304     C
C       0.5552   0.6874   0.4426     C
O       0.5555   0.0499   0.3138     O
O       0.5567   0.0512   0.2415     O
C       0.5574   0.7448   0.6126     C
C       0.5578   0.8979   0.8595     C
C       0.5581   0.1623   0.6998     C
C       0.5582   0.2245   0.1301     C
C       0.5583   0.1038   0.8583     C
C       0.5585   0.3229   0.9532     C
O        0.559   0.9893   0.2959     O
C       0.5592    0.841   0.4354     C
C       0.5596   0.9719   0.8143     C
C       0.5602   0.9734   0.7194     C
C       0.5607   0.1012   0.7595     C
Fe     0.56091  0.79781   0.5287    Fe
C       0.5629   0.3929   0.3662     C
C       0.5629   0.6628   0.1915     C
O       0.5634   0.3354   0.0886     O
Fe     0.56413  0.28243   0.0485    Fe
C       0.5646   0.9056   0.6238     C
O       0.5651    0.753   0.4933     O
C       0.5653   0.1774   0.9583     C
O       0.5657    0.235   0.0143     O
O       0.5685   0.2597   0.0912     O
O       0.5686   0.8556   0.5728     O
O       0.5688   0.8252   0.4914     O
O       0.5692   0.7391   0.9877     O
O       0.5697   0.3066   0.0107     O
H       0.5701   0.3782   0.3807     H
H       0.5704   0.6811   0.1803     H
O       0.5705   0.7836   0.5755     O
C        0.571   0.0273   0.3247     C
C       0.5712   0.9597   0.6857     C
C       0.5714   0.0245   0.2271     C
O       0.5718   0.3121   0.5651     O
O       0.5718   0.8362   0.0482     O
C       0.5719   0.1301   0.9056     C
O       0.5728   0.2172   0.5042     O
O        0.574   0.7609   0.0527     O
C       0.5752   0.9525   0.8393     C
O       0.5755   0.2919    0.505     O
C       0.5763   0.1304   0.7431     C
O       0.5766   0.8148    0.989     O
Fe     0.57694   0.0479   0.7976    Fe
O       0.5774   0.2436   0.5688     O
C       0.5808   0.7089   0.6631     C
O       0.5815   0.0123   0.7514     O
C       0.5821   0.3642   0.9089     C
C       0.5823   0.6281   0.4192     C
C       0.5825   0.4727   0.1814     C
C       0.5826   0.1912    0.181     C
C       0.5826   0.8808   0.3898     C
C       0.5827   0.4504   0.3493     C
C       0.5827   0.6338   0.2349     C
O       0.5828   0.0887   0.8547     O
C       0.5858   0.3241   0.5425     C
C       0.5868    0.746   0.0266     C
C       0.5874   0.2267   0.5421     C
O       0.5876    0.011   0.8258     O
H       0.5877   0.6971    0.681     H
C       0.5877   0.8424   0.0281     C
H       0.5883   0.9808   0.1789     H
O       0.5885   0.0929   0.7804     O
O       0.5886   0.5634   0.8354     O
O       0.5887   0.5059    0.734     O
H       0.5896   0.0917   0.3933     H
C       0.5896   0.6909   0.4729     C
H       0.5899   0.3771   0.8932     H
H         0.59   0.8898   0.3716     H
H       0.5906   0.1789   0.1981     H
C       0.5911   0.4179   0.1358     C
O       0.5912   0.5685   0.7597     O
H       0.5917   0.5021   0.1984     H
O       0.5929   0.5044   0.8125     O
H       0.5933   0.6094   0.4123     H
C       0.5944   0.4281   0.3699     C
C       0.5944    0.659   0.2182     C
C       0.5984    0.181   0.9898     C
C       0.5989   0.1814   0.7087     C
C       0.5999   0.9371   0.6286     C
C       0.6008   0.3491   0.9679     C
C       0.6011   0.2334   0.1507     C
C       0.6011   0.8662   0.4489     C
C       0.6012   0.5405   0.8417     C
C       0.6013   0.9104   0.8833     C
C       0.6014   0.7537   0.6343     C
C       0.6021   0.6599   0.4616     C
H       0.6036    0.391   0.6052     H
C       0.6038   0.5455   0.7455     C
H        0.604   0.4762   0.3544     H
H       0.6041   0.6311   0.2536     H
C       0.6042   0.4625   0.1623     C
H       0.6052   0.7142   0.5016     H
C       0.6053   0.0468   0.3697     C
H       0.6067   0.1984   0.6963     H
H       0.6068   0.4101   0.1229     H
C        0.607   0.0417   0.2191     C
C       0.6071   0.1338   0.9371     C
H       0.6075   0.1981   0.0192     H
C       0.6086   0.0102   0.1912     C
H        0.609   0.8948   0.8964     H
H       0.6094   0.9123   0.0933     H
C       0.6098   0.0825   0.4011     C
H       0.6099   0.1803   0.4992     H
H       0.6102   0.7002   0.9818     H
C       0.6102    0.991   0.6928     C
H       0.6107   0.9296   0.6099     H
C       0.6115    0.726   0.0403     C
C       0.6121   0.2191   0.1774     C
C       0.6126   0.3678   0.5552     C
C       0.6127   0.3696   0.9459     C
C       0.6132   0.7359   0.6607     C
C       0.6145   0.8885   0.4288     C
C       0.6167   0.3987   0.5896     C
C       0.6188   0.1509   0.7517     C
C       0.6191   0.1587    0.978     C
C       0.6192   0.7018    0.009     C
H       0.6193   0.4975   0.6894     H
C       0.6194   0.9671   0.8657     C
C       0.6204   0.9799   0.6605     C
H       0.6218   0.1193   0.9299     H
H       0.6218   0.2496   0.1456     H
H       0.6223   0.3535   0.9932     H
H       0.6225   0.7717   0.6308     H
H       0.6225   0.8689    0.473     H
C       0.6227   0.8868   0.0475     C
H       0.6229   0.6068   0.9101     H
C       0.6238   0.2182   0.5592     C
H       0.6278    0.104   0.2496     H
C       0.6281   0.9192   0.0823     C
H       0.6284   0.0182   0.7184     H
C       0.6286   0.1915   0.5287     C
H       0.6291   0.0068   0.3603     H
C       0.6301   0.5582   0.7245     C
C       0.6303   0.1771   0.7356     C
C       0.6304   0.5541   0.8873     C
H       0.6308   0.3591   0.5083     H
H       0.6311   0.7536   0.1041     H
C       0.6322   0.9448   0.8874     C
C       0.6323   0.0827   0.2334     C
C       0.6329   0.0321   0.3812     C
C       0.6338   0.5267   0.6967     C
C       0.6338   0.7349   0.0827     C
C       0.6343   0.3806   0.5329     C
C       0.6358   0.5911   0.9179     C
N       0.6365    0.496   0.1631     N
N       0.6372   0.6486   0.9844     N
C       0.6393   0.6846   0.2267     C
H       0.6397   0.1465   0.7688     H
N       0.6402    0.668   0.4964     N
N       0.6405   0.1365   0.4734     N
C       0.6405   0.4422   0.6021     C
C       0.6405   0.6806   0.0201     C
H       0.6409   0.9917   0.8692     H
C       0.6411    0.022   0.1807     C
C       0.6417   0.1042   0.4419     C
C       0.6417   0.4417   0.3962     C
N       0.6427   0.9859   0.1528     N
N       0.6438   0.4722   0.6402     N
O       0.6444    0.713   0.2172     O
O       0.6453   0.4172   0.4113     O
H       0.6456   0.6218   0.7496     H
H       0.6465   0.5068   0.8777     H
N       0.6486   0.4844   0.1372     N
H       0.6492   0.8775   0.0083     H
H       0.6495   0.2536   0.6225     H
C       0.6507   0.6011   0.7334     C
C       0.6509   0.5321   0.8992     C
C       0.6522   0.2349   0.6011     C
C       0.6523   0.8986   0.0329     C
N       0.6528   0.0156   0.6642     N
N       0.6528   0.6427   0.4859     N
C       0.6557   0.2271   0.2026     C
N       0.6568   0.1669   0.0141     N
C       0.6576   0.7453   0.6857     C
C       0.6583   0.3988   0.9595     C
C       0.6587   0.5396   0.6807     C
C        0.659   0.7182   0.0944     C
C       0.6592   0.9132   0.4398     C
C       0.6599   0.9616   0.1021     C
C       0.6605   0.1806   0.5401     C
C       0.6607   0.4248   0.5475     C
C       0.6623   0.6042   0.9625     C
C       0.6628   0.6915   0.0629     C
C       0.6631   0.4542   0.5823     C
N       0.6631   0.6365    0.996     N
O       0.6638   0.7356    0.712     O
N       0.6642   0.1486   0.5114     N
O       0.6646   0.4114   0.9366     O
O       0.6662   0.6748   0.2436     O
C       0.6663   0.0944   0.2245     C
C       0.6668   0.0541   0.4237     C
N       0.6669   0.5101   0.6528     N
N       0.6671    0.004   0.6405     N
N        0.668   0.9964   0.1402     N
O       0.6685   0.4773   0.4088     O
O       0.6693   0.2207    0.235     O
O       0.6699   0.9308   0.4185     O
C         0.67   0.0629   0.1967     C
N       0.6716   0.1438   0.0036     N
C       0.6732   0.0911   0.4553     C
O       0.6742   0.4124    0.489     O
O       0.6748   0.7436   0.1662     O
C       0.6753   0.2026   0.7463     C
C       0.6759   0.9575   0.9142     C
C       0.6771   0.5468   0.9415     C
C       0.6774   0.6121   0.7191     C
H       0.6789   0.5883   0.4808     H
H       0.6803   0.5704   0.1811     H
C       0.6806   0.5201   0.1405     C
C       0.6807   0.6411    0.522     C
H        0.681   0.4839   0.5933     H
C        0.681   0.5826   0.6912     C
H       0.6811   0.6803   0.0704     H
C       0.6814   0.5825   0.9727     C
C       0.6846   0.7267   0.1393     C
O       0.6848   0.2415   0.1903     O
O       0.6852   0.7618   0.6742     O
C       0.6857    0.226   0.6145     C
C       0.6857   0.4404   0.5281     C
O       0.6862   0.2361   0.7417     O
O       0.6869    0.926   0.4787     O
C       0.6874   0.9426   0.0552     C
O       0.6875   0.4071   0.9956     O
O       0.6879   0.9349   0.9282     O
H       0.6894   0.6919   0.5701     H
O       0.6903   0.6848   0.7415     O
C       0.6909   0.9729   0.0896     C
O       0.6912   0.1685   0.2597     O
C       0.6912   0.6086   0.5102     C
C       0.6915   0.5629   0.1628     C
O       0.6919   0.0044   0.4115     O
H       0.6919   0.0701   0.1894     H
C       0.6928   0.2018   0.5826     C
O       0.6934   0.4893   0.9303     O
H       0.6963   0.9979   0.5896     H
H       0.6967   0.1068   0.4839     H
C       0.6967     0.67   0.5629     C
H       0.6971    0.181   0.0877     H
H       0.6981   0.5906   0.6789     H
C       0.6983   0.1405   0.0384     C
H       0.6984   0.5917   0.0021     H
C       0.6988   0.0405   0.4393     C
C       0.6998   0.0375   0.6417     C
C          0.7   0.1417   0.2455     C
H       0.7002   0.4818   0.1102     H
C       0.7018    0.509   0.1192     C
Fe     0.70219   0.7631  0.23089    Fe
Fe      0.7024  0.42306   0.4521    Fe
C       0.7026   0.5273   0.9563     C
C       0.7026   0.6557   0.7271     C
O       0.7041   0.1934   0.7631     O
O       0.7081    0.995   0.9245     O
O       0.7082   0.2609   0.6869     O
C       0.7087   0.0273   0.6098     C
C       0.7089   0.1631   0.0808     C
O        0.712   0.4764   0.5482     O
H       0.7126   0.1036   0.9984     H
H       0.7128   0.0899   0.6967     H
O        0.713   0.7172   0.1444     O
O       0.7131   0.9295    0.005     O
H       0.7142   0.0016   0.1052     H
O       0.7164   0.7869   0.2919     O
O       0.7172   0.6444    0.213     O
Fe     0.71757   0.4515  0.93587    Fe
C       0.7179   0.0821   0.6732     C
C        0.718   0.1167   0.0271     C
C       0.7182   0.5944    0.159     C
Fe      0.7183  0.23393  0.28243    Fe
H       0.7184   0.2002     0.59     H
C       0.7184   0.9567   0.0425     C
C       0.7191    0.607   0.5417     C
C       0.7194    0.246   0.6592     C
O       0.7196   0.4115   0.4071     O
Fe      0.7196   0.7481   0.7637    Fe
Fe     0.72066  0.97096  0.42306    Fe
O       0.7207   0.5514   0.4857     O
C       0.7245   0.6663   0.5944     C
C        0.726   0.5403   0.1115     C
C       0.7267   0.6393   0.1846     C
C       0.7271   0.5714   0.5245     C
O        0.728   0.0634   0.4748     O
O       0.7281   0.1453    0.234     O
H       0.7283   0.8508   0.3591     H
O       0.7308   0.7308   0.2308     O
Fe     0.73089  0.70219   0.2631    Fe
H       0.7312   0.3603   0.3535     H
O       0.7324    0.481   0.4824     O
C       0.7334   0.6323   0.5827     C
Fe     0.73393  0.51563   0.4515    Fe
O        0.734   0.7281   0.6453     O
C       0.7349   0.5827   0.1338     C
O        0.735   0.6693   0.7207     O
C       0.7356   0.0585   0.6053     C
O       0.7356    0.212   0.1638     O
C       0.7359   0.1607   0.1132     C
O       0.7361   0.5499   0.9944     O
Fe      0.7363   0.2804   0.7519    Fe
O       0.7369   0.2959   0.3066     O
Fe      0.7369  0.93909  0.96779    Fe
O       0.7382   0.9234   0.4124     O
C       0.7383   0.7816   0.3241     C
O       0.7391   0.4877   0.0692     O
O       0.7391   0.8131   0.7918     O
O       0.7403   0.4088   0.9315     O
O       0.7403    0.747   0.3121     O
C       0.7405   0.4393   0.3988     C
O       0.7415   0.5567   0.5512     O
O       0.7417   0.0056   0.5555     O
C       0.7431   0.1127   0.6668     C
O       0.7436   0.6662   0.1748     O
C       0.7448   0.1126   0.0574     C
C       0.7453   0.1857   0.1576     C
C       0.7455      0.7   0.6417     C
C        0.746   0.5266   0.0868     C
C       0.7463   0.0437    0.571     C
C       0.7463   0.8477   0.3806     C
H       0.7464   0.8775   0.8505     H
O       0.7468   0.4748   0.4114     O
O        0.747   0.8121   0.2403     O
Fe      0.7481   0.2637   0.2196    Fe
C       0.7483   0.3812   0.3491     C
O       0.7486   0.4185   0.4877     O
O       0.7486   0.9986    0.481     O
H       0.7496   0.6278    0.604     H
Fe      0.7497   0.4521  0.02904    Fe
O         0.75   0.4824   0.0014     O
O         0.75   0.7514   0.7324     O
Fe      0.7503  0.77934   0.7024    Fe
H       0.7504   0.3544   0.8782     H
O       0.7514   0.2324     0.25     O
O       0.7514   0.2391   0.6699     O
C       0.7517   0.1008   0.6329     C
Fe      0.7519   0.9715   0.5156    Fe
O        0.753   0.9933   0.0651     O
O       0.7532   0.1646    0.728     O
H       0.7536   0.6041   0.1311     H
C       0.7537   0.1343   0.1014     C
C       0.7537   0.3247   0.2974     C
C        0.754   0.8408   0.7806     C
C       0.7545   0.3962   0.9545     C
C       0.7547   0.9123   0.4404     C
C       0.7552   0.8126   0.3678     C
O       0.7564   0.9312   0.9226     O
C       0.7569   0.4237   0.3696     C
O       0.7583   0.3138   0.2639     O
O       0.7585   0.3097   0.8152     O
C       0.7595   0.1583   0.6988     C
O       0.7597   0.0718   0.0067     O
O       0.7597   0.6912   0.6685     O
O       0.7609   0.5527    0.074     O
O       0.7609   0.8301   0.7486     O
C       0.7617   0.0858   0.0433     C
O       0.7618   0.1742   0.1852     O
O       0.7631   0.0697    0.559     O
Fe      0.7631  0.73089  0.20219    Fe
Fe      0.7637   0.5156   0.5441    Fe
O       0.7639   0.7583   0.8138     O
C       0.7641   0.8773   0.4248     C
C       0.7644   0.3697   0.3229     C
O       0.7644   0.9282   0.4764     O
O        0.765   0.4857   0.9343     O
C       0.7651   0.8989   0.8478     C
O        0.766   0.4113   0.9941     O
Fe     0.76607  0.21757   0.7817    Fe
C       0.7666   0.3493   0.8989     C
O       0.7676     0.25   0.7486     O
H       0.7688   0.1223   0.6291     H
Fe     0.76911  0.03221   0.9713    Fe
O       0.7692     -0.0     -0.0     O
H       0.7717   0.1308   0.1225     H
O       0.7719   0.0059   0.4172     O
O        0.772   0.2468   0.3354     O
C       0.7729   0.2974   0.8443     C
C       0.7733   0.9579   0.9126     C
C        0.774   0.8855   0.8143     C
C       0.7755   0.3699   0.9418     C
O       0.7793    0.265   0.8307     O
Fe     0.77934   0.2024   0.2503    Fe
O       0.7804   0.1875   0.6919     O
Fe      0.7804   0.5441   0.0285    Fe
C       0.7806   0.4398   0.5266     C
C       0.7809   0.3226   0.8879     C
H       0.7816   0.3716   0.4818     H
C       0.7816   0.8241   0.2383     C
Fe      0.7817  0.06413  0.51563    Fe
C       0.7818   0.9408   0.8762     C
C        0.782   0.8091   0.3987     C
C       0.7821   0.4553   0.3642     C
Fe     0.78243   0.7183  0.73393    Fe
O       0.7828   0.9958   0.9272     O
O       0.7836   0.0755   0.0705     O
H       0.7858    0.891   0.2874     H
O       0.7869   0.7919   0.2164     O
O        0.787   0.9314   0.0042     O
H       0.7872   0.4839   0.3771     H
H       0.7874   0.7858    0.391     H
O        0.788   0.3362   0.7644     O
C       0.7911   0.8719   0.4542     C
C       0.7913   0.4011   0.3186     C
O       0.7918   0.4787   0.5527     O
O       0.7919   0.7164   0.2869     O
O       0.7959    0.559   0.4893     O
C       0.7974   0.5245   0.9531     C
C       0.7974   0.7537   0.8247     C
Fe      0.7976   0.2497  0.72066    Fe
Fe     0.79781   0.0287  0.06091    Fe
C       0.7982   0.9174   0.8072     C
H       0.7998     0.91   0.7816     H
C          0.8   0.0455   0.4417     C
C       0.8002   0.4419   0.3377     C
C       0.8012   0.2405   0.3417     C
H       0.8016   0.8037   0.8933     H
C       0.8017   0.8401   0.4422     C
H       0.8019   0.4808   0.8925     H
H       0.8029   0.8906   0.4839     H
H       0.8033   0.2872   0.4101     H
C       0.8033   0.3662   0.9733     C
H       0.8037   0.3933   0.3016     H
O       0.8066   0.7369   0.7959     O
C       0.8072   0.3898    0.509     C
O       0.8081   0.2196   0.3125     O
H       0.8081   0.9975   0.3782     H
C       0.8085   0.9713   0.8714     C
O       0.8088   0.0685   0.4773     O
C       0.8088    0.319   0.9174     C
C       0.8091   0.8987    0.282     C
O       0.8097   0.5512   0.9945     O
H       0.8106   0.3807   0.0025     H
O       0.8121   0.7403    0.247     O
O       0.8125   0.8081   0.7196     O
C       0.8126   0.8678   0.2552     C
O       0.8131   0.2918   0.2391     O
O       0.8138   0.5555   0.5499     O
C       0.8143   0.3424   0.7547     C
C       0.8143   0.4288   0.5403     C
O       0.8148    0.489   0.0766     O
O       0.8152   0.0055   0.5567     O
C       0.8154   0.9547   0.0421     C
C       0.8186   0.7913   0.9011     C
H       0.8189   0.8893   0.9992     H
H        0.819   0.4123   0.8029     H
C        0.819   0.5102   0.9016     C
C       0.8193   0.3413   0.9604     C
C       0.8194   0.9599   0.8395     C
H       0.8197   0.0008   0.8901     H
H       0.8211   0.3019   0.9094     H
C       0.8226   0.5417   0.9347     C
C       0.8229   0.7644   0.8697     C
C       0.8241   0.7383   0.2816     C
C       0.8247    0.571   0.5273     C
O       0.8252   0.9914   0.0688     O
O       0.8258   0.3148   0.7382     O
C       0.8268   0.2821   0.4179     C
N       0.8284    0.832   0.4722     N
C         0.83   0.0267   0.3929     C
O       0.8301   0.2486   0.2609     O
O       0.8307   0.0657   0.5514     O
O       0.8315   0.2403   0.8088     O
N        0.832   0.9722   0.3284     N
N       0.8329   0.4734   0.3369     N
N       0.8331   0.4859   0.8432     N
C       0.8332   0.2569   0.3873     C
C       0.8337   0.0582   0.4281     C
O       0.8338   0.0774   0.0086     O
O       0.8354    0.772   0.7468     O
N       0.8358   0.3472   0.4844     N
O       0.8362   0.5482   0.0718     O
C       0.8369   0.4192   0.7911     C
N       0.8369   0.8329   0.9734     N
C       0.8372   0.9001   0.0287     C
C       0.8377   0.8002   0.9419     C
C       0.8393   0.3868   0.7641     C
C       0.8395   0.3796   0.5201     C
C       0.8401   0.9422   0.3017     C
C       0.8408   0.2806    0.254     C
C        0.841   0.9354   0.0592     C
C       0.8413    0.522   0.8809     C
C       0.8417   0.8012   0.7405     C
C       0.8424   0.5281   0.0877     C
N       0.8432   0.8573   0.5101     N
C       0.8443   0.0469   0.5714     C
N       0.8472   0.3331   0.9899     N
N       0.8472   0.5114   0.3628     N
C       0.8477   0.8806   0.2463     C
C       0.8478   0.4489   0.5827     C
C       0.8491   0.7483   0.8812     C
C       0.8493   0.5827   0.9504     C
H       0.8505    0.473   0.6041     H
H       0.8508   0.8591   0.2283     H
N       0.8514   0.9886   0.8358     N
H       0.8535   0.7312   0.8603     H
H       0.8544    0.604   0.9762     H
O       0.8547    0.266   0.7719     O
O       0.8556   0.0728   0.0686     O
N       0.8562   0.4964   0.8284     N
N       0.8573   0.0101   0.3432     N
C       0.8583   0.2545      0.8     C
C       0.8583   0.3002   0.4625     C
C       0.8589   0.0396   0.3809     C
H       0.8591   0.7283   0.3508     H
N       0.8595   0.3329    0.496     N
C       0.8595   0.4616   0.8017     C
C       0.8595   0.8796   0.0401     C
N       0.8598   0.3562   0.0278     N
H       0.8603   0.6291   0.5068     H
C       0.8607   0.0874   0.0453     C
N       0.8628   0.8472   0.0114     N
N       0.8635   0.0266   0.8595     N
C       0.8642   0.7821   0.9553     C
C       0.8657   0.3986   0.7463     C
C       0.8662   0.5629   0.8929     C
C       0.8662   0.9489   0.1011     C
C       0.8671   0.2483   0.3992     C
C       0.8677   0.1011   0.4504     C
C       0.8678   0.7552   0.3126     C
H       0.8689    0.973   0.1225     H
H       0.8692   0.3775   0.7283     H
C       0.8696   0.7569   0.9237     C
C       0.8697   0.6053   0.5468     C
C       0.8699   0.5944   0.9281     C
H       0.8709   0.2312   0.3777     H
C       0.8714   0.4001   0.5629     C
H       0.8716     0.59   0.3898     H
C       0.8719   0.9542   0.2911     C
H       0.8722   0.1218   0.4762     H
C       0.8762   0.4354   0.5944     C
H       0.8771   0.7872   0.9839     H
C       0.8773   0.9248   0.2641     C
H       0.8775   0.3505   0.2464     H
H       0.8775   0.5083   0.1492     H
H       0.8777   0.8709   0.7312     H
H       0.8782   0.0238   0.6278     H
H       0.8782   0.8081   0.4975     H
C       0.8796   0.5401   0.3595     C
C       0.8806   0.7463   0.3477     C
H       0.8807   0.5701   0.8782     H
C       0.8808   0.8898   0.0826     C
C       0.8809   0.8589   0.5396     C
C       0.8812   0.6329   0.5321     C
C       0.8833   0.4729    0.782     C
C       0.8855   0.3143    0.274     C
C       0.8868   0.5475   0.1227     C
C       0.8873   0.8332   0.7569     C
C       0.8874   0.4426   0.7552     C
C       0.8879   0.0653    0.607     C
C       0.8885   0.9288   0.1145     C
H       0.8893   0.4992   0.3189     H
C       0.8898   0.5826   0.3808     C
H       0.8898   0.8716     0.09     H
H       0.8901   0.3893   0.5704     H
C       0.8902   0.2913   0.4727     C
H       0.8906   0.9839   0.3029     H
H        0.891   0.7874   0.2858     H
C       0.8914   0.0826   0.4016     C
H       0.8925   0.9117   0.5906     H
C       0.8929     0.83   0.5267     C
C        0.893   0.1121   0.4347     C
H       0.8932   0.0161   0.8033     H
H       0.8933   0.5896   0.5917     H
C       0.8947   0.2644   0.4415     C
H       0.8948   0.3964    0.109     H
C       0.8958   0.0581   0.8583     C
H       0.8959   0.1495    0.027     H
H        0.896   0.2504   0.8722     H
C       0.8962   0.6417   0.9417     C
H       0.8964   0.5016   0.7874     H
C       0.8979   0.3595   0.0578     C
C       0.8986   0.5329   0.1523     C
C       0.8987    0.782   0.3091     C
C       0.8988   0.7405   0.9393     C
C       0.8989   0.0496   0.6323     C
C       0.8989   0.3478   0.2651     C
C       0.8992   0.8671   0.7483     C
C       0.9001   0.5287   0.3372     C
C       0.9011   0.6098   0.5825     C
C       0.9016   0.8914   0.5826     C
C       0.9056   0.1238   0.0646     C
C       0.9056   0.2755   0.8337     C
H       0.9067    0.319   0.0161     H
O       0.9071   0.7196   0.9115     O
H       0.9083   0.1067   0.9104     H
O       0.9088   0.6685   0.9773     O
C       0.9089   0.0447   0.8268     C
H       0.9094   0.1075   0.5883     H
H         0.91   0.2816   0.2998     H
H       0.9101   0.8033   0.7872     H
H       0.9104   0.3037   0.5021     H
C       0.9104   0.3833   0.1013     C
O       0.9113   0.6453   0.9172     O
O       0.9114   0.7468   0.9748     O
O       0.9115   0.6919   0.5044     O
H       0.9117   0.0906   0.3925     H
H       0.9123   0.5933   0.1094     H
C       0.9123   0.9404   0.2547     C
O       0.9124   0.7382   0.4234     O
C       0.9126   0.4547   0.6393     C
C       0.9132   0.9398   0.1592     C
C       0.9142   0.4567   0.7383     C
O       0.9172   0.7719   0.5059     O
C       0.9173   0.1522   0.0511     C
C       0.9173   0.2666   0.8677     C
C       0.9174   0.0984   0.6086     C
C       0.9174   0.3072   0.2982     C
C       0.9175   0.0989   0.8902     C
C       0.9177   0.3369   0.0458     C
C       0.9179   0.8268   0.7821     C
O       0.9185   0.6699   0.4308     O
C       0.9192   0.5823   0.1281     C
O       0.9226   0.4914   0.6662     O
Fe     0.92306  0.72066  0.47096    Fe
O       0.9234   0.9124   0.2382     O
C       0.9237   0.6668   0.5541     C
O       0.9245   0.4295   0.7164     O
C       0.9248   0.7641   0.3773     C
O        0.926   0.9787   0.1869     O
O       0.9272   0.4314   0.6444     O
C       0.9281   0.8337   0.5582     C
O       0.9282   0.4933   0.7403     O
O       0.9282   0.9764   0.2644     O
C       0.9286   0.1557   0.4531     C
C       0.9288   0.6145   0.3885     C
C        0.929   0.2537   0.4563     C
O       0.9295    0.505   0.2131     O
H       0.9296   0.1099   0.1107     H
H       0.9299   0.3106   0.8081     H
O       0.9303    0.941   0.7369     O
O       0.9308   0.9185   0.1699     O
O       0.9312   0.4226   0.2564     O
O       0.9314   0.5042    0.287     O
O       0.9315   0.0227   0.6912     O
O       0.9343   0.9486   0.6693     O
C       0.9347    0.893   0.6121     C
O       0.9349   0.4282   0.1879     O
C       0.9354   0.5592    0.341     C
Fe     0.93587  0.98437   0.7183    Fe
O       0.9366   0.0252    0.772     O
C       0.9371   0.1286   0.0999     C
C       0.9371   0.3033     0.83     C
Fe     0.93909  0.46779   0.2369    Fe
C       0.9393   0.6988   0.5405     C
C       0.9398   0.6592   0.4132     C
C       0.9404   0.7547   0.4123     C
C       0.9408   0.3762   0.2818     C
O        0.941   0.2369   0.4303     O
C       0.9415   0.8947   0.7644     C
C       0.9417      0.8   0.5455     C
C       0.9418   0.0719   0.6663     C
C       0.9419   0.6417   0.6042     C
C       0.9422   0.8017   0.3401     C
C       0.9426   0.5552   0.1874     C
O       0.9433   0.1848   0.4945     O
O       0.9445   0.2583   0.4944     O
C       0.9448   0.3874   0.1322     C
C       0.9459   0.0763   0.8332     C
O       0.9473   0.2082   0.0213     O
O       0.9486   0.1693   0.4343     O
O       0.9488   0.2585   0.9433     O
C       0.9489   0.6011   0.3662     C
O       0.9501   0.1862   0.9445     O
C       0.9504   0.8677   0.6011     C
Fe      0.9515  0.73393  0.01563    Fe
O       0.9518    0.288   0.0236     O
Fe      0.9521   0.7024  0.92306    Fe
C       0.9525   0.3393   0.0752     C
C       0.9531   0.9286   0.6557     C
C       0.9532   0.1303   0.8947     C
C       0.9542   0.7911   0.3719     C
C       0.9545   0.0583      0.7     C
C       0.9547   0.5421   0.3154     C
C       0.9553   0.6732   0.5911     C
Fe      0.9559   0.2363   0.9844    Fe
C       0.9563    0.929   0.7537     C
C       0.9567   0.5425   0.2184     C
C       0.9575   0.4142   0.1759     C
C       0.9579   0.4126   0.2733     C
C       0.9583   0.2809    0.893     C
C       0.9595   0.0607   0.8012     C
C       0.9597   0.1857   0.0712     C
C       0.9599   0.3395   0.3194     C
C       0.9604   0.1191   0.6411     C
C       0.9616   0.6021   0.1599     C
C       0.9625   0.8583   0.8002     C
C       0.9671   0.3657   0.1194     C
Fe     0.96779   0.5287  0.73089    Fe
C       0.9679   0.1188   0.8671     C
Fe     0.97096  0.92306  0.22066    Fe
C       0.9713   0.3714   0.3085     C
Fe      0.9713  0.43909  0.70219    Fe
Fe      0.9715   0.0156   0.2519    Fe
C       0.9719   0.3143   0.0596     C
N       0.9722   0.8284    0.332     N
C       0.9727   0.1753    0.929     C
C       0.9727   0.8902   0.7913     C
C       0.9729   0.5896   0.1909     C
H        0.973   0.6225   0.3689     H
C       0.9733   0.1071     0.67     C
C       0.9734   0.2194   0.0602     C
N       0.9734   0.6405   0.6365     N
O       0.9748    0.728   0.5634     O
C       0.9755   0.2729   0.9286     C
H       0.9762   0.8722   0.6218     H
O       0.9764   0.7644   0.4282     O
O       0.9773   0.8088   0.5685     O
C        0.978   0.3193   0.8589     C
O       0.9787   0.6869    0.426     O
C       0.9799   0.1605   0.1204     C
H       0.9808   0.6789   0.0883     H
O        0.981   0.7486   0.4986     O
H       0.9818   0.7816   0.8716     H
O       0.9824   0.7324    0.981     O
H       0.9839   0.6967   0.6068     H
H       0.9839   0.8029   0.3906     H
Fe     0.98437   0.2183  0.43587    Fe
Fe      0.9844   0.2481   0.5285    Fe
N       0.9844   0.8358   0.8472     N
O       0.9857   0.7207   0.0514     O
N       0.9859   0.6528   0.1427     N
O       0.9877   0.7486   0.9185     O
N       0.9886   0.3358   0.3514     N
O        0.989   0.6742   0.9124     O
O       0.9893   0.7959    0.059     O
C       0.9898   0.3088   0.8914     C
N       0.9899   0.1568   0.6427     N
C        0.991   0.1928   0.1102     C
O       0.9914   0.5688   0.3252     O
H       0.9917   0.3692   0.1409     H
H       0.9932   0.1397   0.8709     H
O       0.9933   0.5651    0.253     O
O       0.9941   0.0828   0.7281     O
O       0.9944   0.9445   0.7583     O
O       0.9945   0.9433   0.6848     O
O        0.995   0.4245   0.2081     O
O       0.9956   0.0885   0.8081     O
O       0.9958   0.4272   0.2828     O
N        0.996   0.8595   0.8329     N
N       0.9964   0.6402    0.168     N
H       0.9975   0.8782   0.3081     H
H       0.9979   0.0896   0.1963     H
H       0.9984   0.3948   0.7858     H
O       0.9986    0.981   0.2486     O
H       0.9992   0.6099   0.6803     H
