data_I
_chemical_name_common  '/home/zhangsd/repos/MofS-CGCNN/ML/data/SSD/clean_cifs/TOZFOF_clean'
_cell_length_a 55.28900
_cell_length_b 28.91600
_cell_length_c 17.46800
_cell_angle_alpha 90.00000
_cell_angle_beta  95.92000
_cell_angle_gamma 90.00000
_space_group_name_H-M_alt      'P 1'


loop_
_space_group_symop_operation_xyz
  'x, y, z' 

loop_
_atom_site_label
_atom_site_fract_x
_atom_site_fract_y
_atom_site_fract_z
_atom_site_type_symbol
Co         0.0      0.0      0.5    Co
O       0.0074      0.0   0.3851     O
O       0.0103      0.0   0.2603     O
C       0.0179      0.0   0.3278     C
Co     0.02515      0.0   0.7011    Co
O       0.0261   0.0511   0.5207     O
O       0.0261   0.9489   0.5207     O
O       0.0349   0.0547    0.653     O
O       0.0349   0.9453    0.653     O
C       0.0368   0.0658   0.5835     C
C       0.0368   0.9342   0.5835     C
C       0.0457      0.0   0.3416     C
H       0.0484      0.0   0.2265     H
H       0.0491      0.0   0.4579     H
H       0.0492   0.1086   0.4529     H
H       0.0492   0.8914   0.4529     H
H       0.0501     0.27   0.3835     H
H       0.0501     0.73   0.3835     H
C       0.0541   0.1039   0.5691     C
C       0.0541   0.8961   0.5691     C
H       0.0552   0.2776   0.7031     H
H       0.0552   0.7224   0.7031     H
C       0.0575      0.0   0.2756     C
C       0.0577      0.0   0.4137     C
C       0.0582   0.1206   0.4979     C
C       0.0582   0.8794   0.4979     C
H         0.06   0.3172   0.3502     H
H         0.06   0.6828   0.3502     H
H       0.0624   0.3306   0.7183     H
H       0.0624   0.6694   0.7183     H
H       0.0637   0.1101   0.6845     H
C       0.0637   0.2845   0.3609     C
C       0.0637   0.7155   0.3609     C
H       0.0637   0.8899   0.6845     H
H       0.0664   0.2687   0.3129     H
H       0.0664   0.7313   0.3129     H
C       0.0665    0.122   0.6356     C
C       0.0665    0.878   0.6356     C
C       0.0684   0.2987   0.7211     C
C       0.0684   0.7013   0.7211     C
H       0.0743   0.2912   0.7744     H
H       0.0743   0.7088   0.7744     H
C       0.0751   0.1561   0.4911     C
C       0.0751   0.8439   0.4911     C
H       0.0784   0.1676   0.4422     H
H       0.0784   0.8324   0.4422     H
C        0.083      0.0   0.2818     C
C       0.0833      0.0    0.421     C
C       0.0833   0.1576   0.6298     C
C       0.0833   0.8424   0.6298     C
O       0.0834   0.2607   0.4742     O
O       0.0834   0.7393   0.4742     O
N       0.0872   0.1742   0.5577     N
N       0.0872   0.8258   0.5577     N
C       0.0878   0.2848   0.4156     C
C       0.0878   0.7152   0.4156     C
O       0.0886   0.2574   0.6341     O
O       0.0886   0.7426   0.6341     O
C       0.0888   0.2944   0.6674     C
C       0.0888   0.7056   0.6674     C
H       0.0916      0.0   0.2374     H
H       0.0921     0.17   0.6748     H
H       0.0921     0.83   0.6748     H
H       0.0923      0.0   0.4703     H
N       0.0951      0.0   0.3555     N
H          0.1   0.4418   0.5208     H
H          0.1   0.5582   0.5208     H
O       0.1064   0.3005   0.3982     O
O       0.1064   0.6995   0.3982     O
O       0.1065   0.3212   0.6793     O
O       0.1065   0.6788   0.6793     O
Ru     0.10905  0.23366  0.55472    Ru
Ru     0.10905  0.76634  0.55472    Ru
H       0.1167   0.0885   0.5617     H
H       0.1167   0.9115   0.5617     H
C       0.1171   0.4425   0.5425     C
C       0.1171   0.5575   0.5425     C
H       0.1182   0.4557   0.5944     H
H       0.1182   0.5443   0.5944     H
H       0.1192   0.3791   0.3381     H
H       0.1192   0.6209   0.3381     H
H       0.1236   0.1259   0.2225     H
H       0.1236   0.8741   0.2225     H
H       0.1237   0.3937    0.748     H
H       0.1237   0.6063    0.748     H
O        0.125   0.3758   0.4827     O
O        0.125   0.6242   0.4827     O
O        0.126   0.1999   0.4715     O
O        0.126   0.8001   0.4715     O
H       0.1264   0.4616   0.5097     H
H       0.1264   0.5384   0.5097     H
C       0.1265   0.3926   0.5473     C
C       0.1265   0.6074   0.5473     C
H       0.1269   0.0992    0.144     H
H       0.1269   0.9008    0.144     H
O       0.1298   0.2863   0.5489     O
O       0.1298   0.7137   0.5489     O
O        0.131   0.0505   0.2857     O
O        0.131   0.9495   0.2857     O
O       0.1313   0.0516   0.4479     O
O       0.1313   0.9484   0.4479     O
H       0.1326   0.4227   0.2329     H
H       0.1326   0.5773   0.2329     H
O       0.1327   0.2019   0.6356     O
O       0.1327   0.7981   0.6356     O
O       0.1332   0.3804   0.6109     O
O       0.1332   0.6196   0.6109     O
Ru     0.13415      0.0  0.36743    Ru
C       0.1342   0.0939   0.5624     C
C       0.1342   0.9061   0.5624     C
C       0.1343   0.3728   0.3195     C
C       0.1343   0.6272   0.3195     C
C        0.135   0.1084   0.1943     C
C        0.135   0.8916   0.1943     C
H       0.1364   0.4341   0.8609     H
H       0.1364   0.5659   0.8609     H
H        0.137   0.1261   0.5482     H
H        0.137   0.8739   0.5482     H
Ru     0.13789  0.31043  0.45766    Ru
Ru     0.13789  0.68957  0.45766    Ru
C       0.1383   0.3858   0.7786     C
C       0.1383   0.6142   0.7786     C
Ru     0.14071  0.31642   0.6492    Ru
Ru     0.14071  0.68358   0.6492    Ru
C       0.1412   0.2089   0.4308     C
C       0.1412   0.7911   0.4308     C
H       0.1417   0.1415   0.3898     H
H       0.1417   0.8585   0.3898     H
H       0.1421   0.1626   0.7773     H
C       0.1421   0.3986   0.2577     C
C       0.1421   0.6014   0.2577     C
H       0.1421   0.8374   0.7773     H
H       0.1422   0.0879   0.6141     H
H       0.1422   0.9121   0.6141     H
C       0.1444   0.0607   0.5046     C
C       0.1444   0.0663   0.2427     C
C       0.1444   0.9337   0.2427     C
C       0.1444   0.9393   0.5046     C
C       0.1453   0.2157   0.6939     C
C       0.1453   0.7843   0.6939     C
C       0.1461   0.4096   0.8444     C
C       0.1461   0.5904   0.8444     C
O       0.1488   0.2572   0.7067     O
O       0.1488   0.7428   0.7067     O
N        0.149   0.3389   0.3522     N
N        0.149   0.6611   0.3522     N
H       0.1492   0.1277   0.1869     H
H       0.1492   0.8723   0.1869     H
H       0.1511   0.1789   0.3323     H
H       0.1511   0.8211   0.3323     H
C       0.1513   0.1697   0.3863     C
O       0.1513   0.2454   0.4232     O
O       0.1513   0.7546   0.4232     O
C       0.1513   0.8303   0.3863     C
N       0.1523   0.3502   0.7547     N
N       0.1523   0.6498   0.7547     N
C       0.1547   0.1827     0.76     C
C       0.1547   0.8173     0.76     C
H       0.1612   0.2028   0.8025     H
H       0.1612   0.7972   0.8025     H
O       0.1613   0.4488   0.1507     O
O       0.1613   0.5512   0.1507     O
O       0.1616   0.4519    0.979     O
O       0.1616   0.5481    0.979     O
Ru     0.16247      0.5   0.0653    Ru
C        0.164   0.3882   0.2332     C
C        0.164   0.6118   0.2332     C
O       0.1643   0.0507    0.231     O
O       0.1643   0.9493    0.231     O
O        0.166   0.0504   0.5184     O
O        0.166   0.9496   0.5184     O
H       0.1679   0.1637   0.7435     H
H       0.1679   0.8363   0.7435     H
H       0.1681   0.1638   0.4079     H
H       0.1681   0.8362   0.4079     H
C       0.1682   0.3977   0.8858     C
C       0.1682   0.6023   0.8858     C
O       0.1707      0.0   0.3826     O
C       0.1714   0.3257    0.332     C
C       0.1714   0.6743    0.332     C
O        0.172   0.3242   0.4974     O
O        0.172   0.6758   0.4974     O
C       0.1736   0.3382   0.7945     C
C       0.1736   0.6618   0.7945     C
C       0.1742   0.4168   0.1738     C
C       0.1742   0.5832   0.1738     C
C       0.1772   0.4249   0.9586     C
C       0.1772   0.5751   0.9586     C
O       0.1782   0.3176   0.6168     O
O       0.1782   0.6824   0.6168     O
C       0.1783   0.3524   0.2715     C
C       0.1783   0.6476   0.2715     C
H       0.1808   0.3014   0.3571     H
H       0.1808   0.6986   0.3571     H
C        0.182   0.3614   0.8605     C
C        0.182   0.6386   0.8605     C
H        0.183   0.3133   0.7777     H
H        0.183   0.6867   0.7777     H
Ru     0.18535      0.0  0.28518    Ru
C       0.1863   0.3182   0.5535     C
C       0.1863   0.6818   0.5535     C
Ru     0.18696      0.0   0.4754    Ru
H       0.1937   0.3466   0.2539     H
H       0.1937   0.6534   0.2539     H
O       0.1947   0.4109   0.1557     O
O       0.1947   0.5891   0.1557     O
H       0.1966    0.353   0.8906     H
H       0.1966    0.647   0.8906     H
O       0.1969    0.414   0.9913     O
O       0.1969    0.586   0.9913     O
O      0.19943      0.5   0.0797     O
N       0.2054      0.0   0.1869     N
N       0.2061      0.0   0.5794     N
H       0.2067   0.0699   0.1769     H
H       0.2067   0.9301   0.1769     H
O       0.2076   0.0501   0.3187     O
O       0.2076   0.9499   0.3187     O
H       0.2082   0.0698   0.5901     H
H       0.2082   0.9302   0.5901     H
O       0.2105   0.0515   0.4444     O
O       0.2105   0.9485   0.4444     O
C       0.2116   0.0415   0.1555     C
C       0.2116   0.9585   0.1555     C
C       0.2134   0.3284   0.5655     C
C       0.2134   0.6716   0.5655     C
C       0.2135   0.0415   0.6137     C
C       0.2135   0.9585   0.6137     C
C       0.2157   0.0728   0.3802     C
C       0.2157   0.9272   0.3802     C
H       0.2162   0.3554   0.5993     H
H       0.2162   0.6446   0.5993     H
Ru     0.21758  0.43881  0.08526    Ru
Ru     0.21758  0.56119  0.08526    Ru
H       0.2185   0.3357   0.5148     H
H       0.2185   0.6643   0.5148     H
H        0.223   0.3022   0.5877     H
H        0.223   0.6978   0.5877     H
C       0.2265   0.0421    0.095     C
C       0.2265   0.9579    0.095     C
H       0.2273   0.1372   0.3674     H
H       0.2273   0.8628   0.3674     H
C       0.2285   0.0416   0.6832     C
C       0.2285   0.9584   0.6832     C
H       0.2318   0.0705   0.0754     H
H       0.2318   0.9295   0.0754     H
C       0.2325      0.0   0.0623     C
C        0.233   0.1091   0.3951     C
C        0.233   0.8909   0.3951     C
H       0.2336   0.0702   0.7064     H
H       0.2336   0.9298   0.7064     H
H       0.2357   0.1157   0.4504     H
H       0.2357   0.8843   0.4504     H
C       0.2362      0.0   0.7184     C
O       0.2407   0.4625   0.1762     O
O       0.2407   0.5375   0.1762     O
O       0.2425   0.4605   0.0149     O
O       0.2425   0.5395   0.0149     O
C       0.2469      0.5   0.9922     C
H       0.2482   0.0986   0.3766     H
H       0.2482   0.9014   0.3766     H
C       0.2486      0.5   0.2003     C
C       0.2514      0.0   0.7997     C
H       0.2518   0.4014   0.6234     H
H       0.2518   0.5986   0.6234     H
C       0.2531      0.0   0.0078     C
O       0.2575   0.0395   0.9851     O
O       0.2575   0.9605   0.9851     O
O       0.2593   0.0375   0.8238     O
O       0.2593   0.9625   0.8238     O
C       0.2638      0.5   0.2816     C
H       0.2643   0.3843   0.5496     H
H       0.2643   0.6157   0.5496     H
H       0.2664   0.4298   0.2936     H
H       0.2664   0.5702   0.2936     H
C        0.267   0.3909   0.6049     C
C        0.267   0.6091   0.6049     C
C       0.2675      0.5   0.9377     C
H       0.2682   0.4295   0.9246     H
H       0.2682   0.5705   0.9246     H
C       0.2715   0.4584   0.3168     C
C       0.2715   0.5416   0.3168     C
H       0.2727   0.3628   0.6326     H
H       0.2727   0.6372   0.6326     H
C       0.2735   0.4579    0.905     C
C       0.2735   0.5421    0.905     C
H        0.277   0.1978   0.4123     H
H        0.277   0.8022   0.4123     H
H       0.2815   0.1643   0.4852     H
H       0.2815   0.8357   0.4852     H
Ru     0.28242  0.06119  0.91474    Ru
Ru     0.28242  0.93881  0.91474    Ru
H       0.2838   0.1446   0.4007     H
H       0.2838   0.8554   0.4007     H
C       0.2843   0.4272   0.6198     C
C       0.2843   0.5728   0.6198     C
C       0.2865   0.4585   0.3863     C
C       0.2865   0.5415   0.3863     C
C       0.2866   0.1716   0.4345     C
C       0.2866   0.8284   0.4345     C
C       0.2884   0.4585   0.8445     C
C       0.2884   0.5415   0.8445     C
O       0.2895   0.4485   0.5556     O
O       0.2895   0.5515   0.5556     O
H       0.2918   0.4302   0.4099     H
H       0.2918   0.5698   0.4099     H
O       0.2924   0.4499   0.6813     O
O       0.2924   0.5501   0.6813     O
H       0.2933   0.4301   0.8231     H
H       0.2933   0.5699   0.8231     H
N       0.2939      0.5   0.4206     N
N       0.2946      0.5   0.8131     N
O      0.30057      0.0   0.9203     O
O       0.3031    0.086   0.0087     O
O       0.3031    0.914   0.0087     O
H       0.3034    0.147   0.1094     H
H       0.3034    0.853   0.1094     H
O       0.3053   0.0891   0.8443     O
O       0.3053   0.9109   0.8443     O
H       0.3063   0.1534   0.7461     H
H       0.3063   0.8466   0.7461     H
Ru     0.31304      0.5   0.5246    Ru
C       0.3137   0.1818   0.4465     C
C       0.3137   0.8182   0.4465     C
Ru     0.31465      0.5  0.71482    Ru
H        0.317   0.1867   0.2223     H
H        0.317   0.8133   0.2223     H
C        0.318   0.1386   0.1395     C
C        0.318   0.8614   0.1395     C
H       0.3192   0.1986   0.6429     H
H       0.3192   0.8014   0.6429     H
C       0.3217   0.1476   0.7285     C
C       0.3217   0.8524   0.7285     C
O       0.3218   0.1824   0.3832     O
O       0.3218   0.8176   0.3832     O
C       0.3228   0.0751   0.0414     C
C       0.3228   0.9249   0.0414     C
C       0.3258   0.0832   0.8262     C
C       0.3258   0.9168   0.8262     C
C       0.3264   0.1618   0.2055     C
C       0.3264   0.8382   0.2055     C
O        0.328   0.1758   0.5026     O
O        0.328   0.8242   0.5026     O
C       0.3286   0.1743    0.668     C
C       0.3286   0.8257    0.668     C
O       0.3293      0.5   0.6174     O
C       0.3318   0.1023   0.1142     C
C       0.3318   0.8977   0.1142     C
H       0.3319   0.3362   0.5921     H
H       0.3319   0.6638   0.5921     H
H       0.3321   0.3363   0.2565     H
H       0.3321   0.6637   0.2565     H
O        0.334   0.4496   0.4816     O
O        0.334   0.5504   0.4816     O
O       0.3357   0.4493    0.769     O
O       0.3357   0.5507    0.769     O
C        0.336   0.1118   0.7668     C
C        0.336   0.8882   0.7668     C
Ru     0.33753      0.0   0.9347    Ru
O       0.3384   0.0481    0.021     O
O       0.3384   0.9519    0.021     O
O       0.3387   0.0512   0.8493     O
O       0.3387   0.9488   0.8493     O
H       0.3388   0.2972   0.1975     H
H       0.3388   0.7028   0.1975     H
C       0.3453   0.3173     0.24     C
C       0.3453   0.6827     0.24     C
N       0.3477   0.1498   0.2453     N
N       0.3477   0.8502   0.2453     N
O       0.3487   0.2546   0.5768     O
C       0.3487   0.3303   0.6137     C
C       0.3487   0.6697   0.6137     C
O       0.3487   0.7454   0.5768     O
H       0.3489   0.3211   0.6677     H
H       0.3489   0.6789   0.6677     H
H       0.3508   0.3723   0.8131     H
H       0.3508   0.6277   0.8131     H
N        0.351   0.1611   0.6478     N
N        0.351   0.8389   0.6478     N
O       0.3512   0.2428   0.2933     O
O       0.3512   0.7572   0.2933     O
C       0.3539   0.0904   0.1556     C
C       0.3539   0.9096   0.1556     C
C       0.3547   0.2843   0.3061     C
C       0.3547   0.7157   0.3061     C
C       0.3556   0.4337   0.7573     C
C       0.3556   0.4393   0.4954     C
C       0.3556   0.5607   0.4954     C
C       0.3556   0.5663   0.7573     C
H       0.3578   0.4121   0.3859     H
H       0.3578   0.5879   0.3859     H
C       0.3579   0.1014   0.7423     C
H       0.3579   0.3374   0.2227     H
H       0.3579   0.6626   0.2227     H
C       0.3579   0.8986   0.7423     C
H       0.3583   0.3585   0.6102     H
H       0.3583   0.6415   0.6102     H
C       0.3588   0.2911   0.5692     C
C       0.3588   0.7089   0.5692     C
Ru     0.35929  0.18358   0.3508    Ru
Ru     0.35929  0.81642   0.3508    Ru
C       0.3617   0.1142   0.2214     C
C       0.3617   0.8858   0.2214     C
Ru     0.36211  0.18957  0.54234    Ru
Ru     0.36211  0.81043  0.54234    Ru
H        0.363   0.3739   0.4518     H
H        0.363   0.6261   0.4518     H
H       0.3636   0.0659   0.1391     H
H       0.3636   0.9341   0.1391     H
C        0.365   0.3916   0.8057     C
C        0.365   0.6084   0.8057     C
C       0.3657   0.1272   0.6805     C
C       0.3657   0.8728   0.6805     C
C       0.3658   0.4061   0.4376     C
C       0.3658   0.5939   0.4376     C
Ru     0.36585      0.5  0.63257    Ru
O       0.3668   0.1196   0.3891     O
O       0.3668   0.8804   0.3891     O
O       0.3673   0.2981   0.3644     O
O       0.3673   0.7019   0.3644     O
H       0.3674   0.0773   0.7671     H
H       0.3674   0.9227   0.7671     H
O       0.3687   0.4484   0.5521     O
O       0.3687   0.5516   0.5521     O
O        0.369   0.4495   0.7143     O
O        0.369   0.5505   0.7143     O
O       0.3702   0.2137   0.4511     O
O       0.3702   0.7863   0.4511     O
H       0.3731   0.4008    0.856     H
H       0.3731   0.5992    0.856     H
C       0.3735   0.1074   0.4527     C
C       0.3735   0.8926   0.4527     C
H       0.3736   0.0384   0.4903     H
H       0.3736   0.9616   0.4903     H
O        0.374   0.3001   0.5285     O
O        0.374   0.6999   0.5285     O
O        0.375   0.1242   0.5173     O
O        0.375   0.8758   0.5173     O
H       0.3763   0.1063    0.252     H
H       0.3763   0.8937    0.252     H
H       0.3764   0.3741   0.7775     H
H       0.3764   0.6259   0.7775     H
H       0.3808   0.1209   0.6619     H
H       0.3808   0.8791   0.6619     H
H       0.3818   0.0443   0.4056     H
H       0.3818   0.9557   0.4056     H
C       0.3829   0.0575   0.4575     C
C       0.3829   0.9425   0.4575     C
H       0.3833   0.4115   0.4383     H
H       0.3833   0.5885   0.4383     H
Ru     0.39095  0.26634  0.44528    Ru
Ru     0.39095  0.73366  0.44528    Ru
O       0.3935   0.1788   0.3207     O
O       0.3935   0.8212   0.3207     O
O       0.3936   0.1995   0.6018     O
O       0.3936   0.8005   0.6018     O
H          0.4   0.0582   0.4792     H
H          0.4   0.9418   0.4792     H
N       0.4049      0.5   0.6445     N
H       0.4077      0.5   0.5297     H
H       0.4079     0.33   0.3252     H
H       0.4079     0.67   0.3252     H
H       0.4084      0.5   0.7626     H
C       0.4112   0.2056   0.3326     C
C       0.4112   0.7944   0.3326     C
O       0.4114   0.2426   0.3659     O
O       0.4114   0.7574   0.3659     O
C       0.4122   0.2152   0.5844     C
C       0.4122   0.7848   0.5844     C
N       0.4128   0.3258   0.4423     N
N       0.4128   0.6742   0.4423     N
O       0.4166   0.2393   0.5258     O
O       0.4166   0.7607   0.5258     O
C       0.4167   0.3424   0.3702     C
C       0.4167      0.5    0.579     C
C       0.4167   0.6576   0.3702     C
C        0.417      0.5   0.7182     C
H       0.4216   0.3324   0.5578     H
H       0.4216   0.6676   0.5578     H
C       0.4249   0.3439   0.5089     C
C       0.4249   0.6561   0.5089     C
H       0.4257   0.2088   0.2256     H
H       0.4257   0.7912   0.2256     H
C       0.4316   0.2013   0.2789     C
C       0.4316   0.7987   0.2789     C
C       0.4335    0.378   0.3644     C
C       0.4335    0.622   0.3644     C
H       0.4336   0.2313   0.6871     H
H       0.4336   0.7687   0.6871     H
C       0.4363   0.2155   0.6391     C
H       0.4363   0.3899   0.3155     H
H       0.4363   0.6101   0.3155     H
C       0.4363   0.7845   0.6391     C
H       0.4376   0.1694   0.2817     H
H       0.4376   0.8306   0.2817     H
H         0.44   0.1828   0.6498     H
H         0.44   0.8172   0.6498     H
C       0.4418   0.3794   0.5021     C
C       0.4418   0.6206   0.5021     C
C       0.4423      0.5   0.5863     C
C       0.4425      0.5   0.7244     C
H       0.4448   0.2224   0.2969     H
H       0.4448   0.7776   0.2969     H
C       0.4459   0.3961   0.4309     C
C       0.4459   0.6039   0.4309     C
H       0.4499     0.23   0.6165     H
H       0.4499     0.77   0.6165     H
H       0.4508   0.3914   0.5471     H
H       0.4508   0.6086   0.5471     H
H       0.4509      0.5   0.5421     H
H       0.4516      0.5   0.7735     H
C       0.4543      0.5   0.6584     C
C       0.4632   0.4342   0.4165     C
C       0.4632   0.5658   0.4165     C
O       0.4651   0.4453    0.347     O
O       0.4651   0.5547    0.347     O
O       0.4739   0.4489   0.4793     O
O       0.4739   0.5511   0.4793     O
Co     0.47485      0.5   0.2989    Co
C       0.4821      0.5   0.6722     C
O       0.4897      0.5   0.7397     O
O       0.4926      0.5   0.6149     O
Co         0.5      0.5      0.5    Co
O       0.5074      0.5   0.3851     O
O       0.5103      0.5   0.2603     O
C       0.5179      0.5   0.3278     C
Co     0.52515      0.5   0.7011    Co
O       0.5261   0.4489   0.5207     O
O       0.5261   0.5511   0.5207     O
O       0.5349   0.4453    0.653     O
O       0.5349   0.5547    0.653     O
C       0.5368   0.4342   0.5835     C
C       0.5368   0.5658   0.5835     C
C       0.5457      0.5   0.3416     C
H       0.5484      0.5   0.2265     H
H       0.5491      0.5   0.4579     H
H       0.5492   0.3914   0.4529     H
H       0.5492   0.6086   0.4529     H
H       0.5501     0.23   0.3835     H
H       0.5501     0.77   0.3835     H
C       0.5541   0.3961   0.5691     C
C       0.5541   0.6039   0.5691     C
H       0.5552   0.2224   0.7031     H
H       0.5552   0.7776   0.7031     H
C       0.5575      0.5   0.2756     C
C       0.5577      0.5   0.4137     C
C       0.5582   0.3794   0.4979     C
C       0.5582   0.6206   0.4979     C
H         0.56   0.1828   0.3502     H
H         0.56   0.8172   0.3502     H
H       0.5624   0.1694   0.7183     H
H       0.5624   0.8306   0.7183     H
C       0.5637   0.2155   0.3609     C
H       0.5637   0.3899   0.6845     H
H       0.5637   0.6101   0.6845     H
C       0.5637   0.7845   0.3609     C
H       0.5664   0.2313   0.3129     H
H       0.5664   0.7687   0.3129     H
C       0.5665    0.378   0.6356     C
C       0.5665    0.622   0.6356     C
C       0.5684   0.2013   0.7211     C
C       0.5684   0.7987   0.7211     C
H       0.5743   0.2088   0.7744     H
H       0.5743   0.7912   0.7744     H
C       0.5751   0.3439   0.4911     C
C       0.5751   0.6561   0.4911     C
H       0.5784   0.3324   0.4422     H
H       0.5784   0.6676   0.4422     H
C        0.583      0.5   0.2818     C
C       0.5833   0.3424   0.6298     C
C       0.5833      0.5    0.421     C
C       0.5833   0.6576   0.6298     C
O       0.5834   0.2393   0.4742     O
O       0.5834   0.7607   0.4742     O
N       0.5872   0.3258   0.5577     N
N       0.5872   0.6742   0.5577     N
C       0.5878   0.2152   0.4156     C
C       0.5878   0.7848   0.4156     C
O       0.5886   0.2426   0.6341     O
O       0.5886   0.7574   0.6341     O
C       0.5888   0.2056   0.6674     C
C       0.5888   0.7944   0.6674     C
H       0.5916      0.5   0.2374     H
H       0.5921     0.33   0.6748     H
H       0.5921     0.67   0.6748     H
H       0.5923      0.5   0.4703     H
N       0.5951      0.5   0.3555     N
H          0.6   0.0582   0.5208     H
H          0.6   0.9418   0.5208     H
O       0.6064   0.1995   0.3982     O
O       0.6064   0.8005   0.3982     O
O       0.6065   0.1788   0.6793     O
O       0.6065   0.8212   0.6793     O
Ru     0.60905  0.26634  0.55472    Ru
Ru     0.60905  0.73366  0.55472    Ru
H       0.6167   0.4115   0.5617     H
H       0.6167   0.5885   0.5617     H
C       0.6171   0.0575   0.5425     C
C       0.6171   0.9425   0.5425     C
H       0.6182   0.0443   0.5944     H
H       0.6182   0.9557   0.5944     H
H       0.6192   0.1209   0.3381     H
H       0.6192   0.8791   0.3381     H
H       0.6236   0.3741   0.2225     H
H       0.6236   0.6259   0.2225     H
H       0.6237   0.1063    0.748     H
H       0.6237   0.8937    0.748     H
O        0.625   0.1242   0.4827     O
O        0.625   0.8758   0.4827     O
O        0.626   0.3001   0.4715     O
O        0.626   0.6999   0.4715     O
H       0.6264   0.0384   0.5097     H
H       0.6264   0.9616   0.5097     H
C       0.6265   0.1074   0.5473     C
C       0.6265   0.8926   0.5473     C
H       0.6269   0.4008    0.144     H
H       0.6269   0.5992    0.144     H
O       0.6298   0.2137   0.5489     O
O       0.6298   0.7863   0.5489     O
O        0.631   0.4495   0.2857     O
O        0.631   0.5505   0.2857     O
O       0.6313   0.4484   0.4479     O
O       0.6313   0.5516   0.4479     O
H       0.6326   0.0773   0.2329     H
H       0.6326   0.9227   0.2329     H
O       0.6327   0.2981   0.6356     O
O       0.6327   0.7019   0.6356     O
O       0.6332   0.1196   0.6109     O
O       0.6332   0.8804   0.6109     O
Ru     0.63415      0.5  0.36743    Ru
C       0.6342   0.4061   0.5624     C
C       0.6342   0.5939   0.5624     C
C       0.6343   0.1272   0.3195     C
C       0.6343   0.8728   0.3195     C
C        0.635   0.3916   0.1943     C
C        0.635   0.6084   0.1943     C
H       0.6364   0.0659   0.8609     H
H       0.6364   0.9341   0.8609     H
H        0.637   0.3739   0.5482     H
H        0.637   0.6261   0.5482     H
Ru     0.63789  0.18957  0.45766    Ru
Ru     0.63789  0.81043  0.45766    Ru
C       0.6383   0.1142   0.7786     C
C       0.6383   0.8858   0.7786     C
Ru     0.64071  0.18358   0.6492    Ru
Ru     0.64071  0.81642   0.6492    Ru
C       0.6412   0.2911   0.4308     C
C       0.6412   0.7089   0.4308     C
H       0.6417   0.3585   0.3898     H
H       0.6417   0.6415   0.3898     H
C       0.6421   0.1014   0.2577     C
H       0.6421   0.3374   0.7773     H
H       0.6421   0.6626   0.7773     H
C       0.6421   0.8986   0.2577     C
H       0.6422   0.4121   0.6141     H
H       0.6422   0.5879   0.6141     H
C       0.6444   0.4337   0.2427     C
C       0.6444   0.4393   0.5046     C
C       0.6444   0.5607   0.5046     C
C       0.6444   0.5663   0.2427     C
C       0.6453   0.2843   0.6939     C
C       0.6453   0.7157   0.6939     C
C       0.6461   0.0904   0.8444     C
C       0.6461   0.9096   0.8444     C
O       0.6488   0.2428   0.7067     O
O       0.6488   0.7572   0.7067     O
N        0.649   0.1611   0.3522     N
N        0.649   0.8389   0.3522     N
H       0.6492   0.3723   0.1869     H
H       0.6492   0.6277   0.1869     H
H       0.6511   0.3211   0.3323     H
H       0.6511   0.6789   0.3323     H
O       0.6513   0.2546   0.4232     O
C       0.6513   0.3303   0.3863     C
C       0.6513   0.6697   0.3863     C
O       0.6513   0.7454   0.4232     O
N       0.6523   0.1498   0.7547     N
N       0.6523   0.8502   0.7547     N
C       0.6547   0.3173     0.76     C
C       0.6547   0.6827     0.76     C
H       0.6612   0.2972   0.8025     H
H       0.6612   0.7028   0.8025     H
O       0.6613   0.0512   0.1507     O
O       0.6613   0.9488   0.1507     O
O       0.6616   0.0481    0.979     O
O       0.6616   0.9519    0.979     O
Ru     0.66247      0.0   0.0653    Ru
C        0.664   0.1118   0.2332     C
C        0.664   0.8882   0.2332     C
O       0.6643   0.4493    0.231     O
O       0.6643   0.5507    0.231     O
O        0.666   0.4496   0.5184     O
O        0.666   0.5504   0.5184     O
H       0.6679   0.3363   0.7435     H
H       0.6679   0.6637   0.7435     H
H       0.6681   0.3362   0.4079     H
H       0.6681   0.6638   0.4079     H
C       0.6682   0.1023   0.8858     C
C       0.6682   0.8977   0.8858     C
O       0.6707      0.5   0.3826     O
C       0.6714   0.1743    0.332     C
C       0.6714   0.8257    0.332     C
O        0.672   0.1758   0.4974     O
O        0.672   0.8242   0.4974     O
C       0.6736   0.1618   0.7945     C
C       0.6736   0.8382   0.7945     C
C       0.6742   0.0832   0.1738     C
C       0.6742   0.9168   0.1738     C
C       0.6772   0.0751   0.9586     C
C       0.6772   0.9249   0.9586     C
O       0.6782   0.1824   0.6168     O
O       0.6782   0.8176   0.6168     O
C       0.6783   0.1476   0.2715     C
C       0.6783   0.8524   0.2715     C
H       0.6808   0.1986   0.3571     H
H       0.6808   0.8014   0.3571     H
C        0.682   0.1386   0.8605     C
C        0.682   0.8614   0.8605     C
H        0.683   0.1867   0.7777     H
H        0.683   0.8133   0.7777     H
Ru     0.68535      0.5  0.28518    Ru
C       0.6863   0.1818   0.5535     C
C       0.6863   0.8182   0.5535     C
Ru     0.68696      0.5   0.4754    Ru
H       0.6937   0.1534   0.2539     H
H       0.6937   0.8466   0.2539     H
O       0.6947   0.0891   0.1557     O
O       0.6947   0.9109   0.1557     O
H       0.6966    0.147   0.8906     H
H       0.6966    0.853   0.8906     H
O       0.6969    0.086   0.9913     O
O       0.6969    0.914   0.9913     O
O      0.69943      0.0   0.0797     O
N       0.7054      0.5   0.1869     N
N       0.7061      0.5   0.5794     N
H       0.7067   0.4301   0.1769     H
H       0.7067   0.5699   0.1769     H
O       0.7076   0.4499   0.3187     O
O       0.7076   0.5501   0.3187     O
H       0.7082   0.4302   0.5901     H
H       0.7082   0.5698   0.5901     H
O       0.7105   0.4485   0.4444     O
O       0.7105   0.5515   0.4444     O
C       0.7116   0.4585   0.1555     C
C       0.7116   0.5415   0.1555     C
C       0.7134   0.1716   0.5655     C
C       0.7134   0.8284   0.5655     C
C       0.7135   0.4585   0.6137     C
C       0.7135   0.5415   0.6137     C
C       0.7157   0.4272   0.3802     C
C       0.7157   0.5728   0.3802     C
H       0.7162   0.1446   0.5993     H
H       0.7162   0.8554   0.5993     H
Ru     0.71758  0.06119  0.08526    Ru
Ru     0.71758  0.93881  0.08526    Ru
H       0.7185   0.1643   0.5148     H
H       0.7185   0.8357   0.5148     H
H        0.723   0.1978   0.5877     H
H        0.723   0.8022   0.5877     H
C       0.7265   0.4579    0.095     C
C       0.7265   0.5421    0.095     C
H       0.7273   0.3628   0.3674     H
H       0.7273   0.6372   0.3674     H
C       0.7285   0.4584   0.6832     C
C       0.7285   0.5416   0.6832     C
H       0.7318   0.4295   0.0754     H
H       0.7318   0.5705   0.0754     H
C       0.7325      0.5   0.0623     C
C        0.733   0.3909   0.3951     C
C        0.733   0.6091   0.3951     C
H       0.7336   0.4298   0.7064     H
H       0.7336   0.5702   0.7064     H
H       0.7357   0.3843   0.4504     H
H       0.7357   0.6157   0.4504     H
C       0.7362      0.5   0.7184     C
O       0.7407   0.0375   0.1762     O
O       0.7407   0.9625   0.1762     O
O       0.7425   0.0395   0.0149     O
O       0.7425   0.9605   0.0149     O
C       0.7469      0.0   0.9922     C
H       0.7482   0.4014   0.3766     H
H       0.7482   0.5986   0.3766     H
C       0.7486      0.0   0.2003     C
C       0.7514      0.5   0.7997     C
H       0.7518   0.0986   0.6234     H
H       0.7518   0.9014   0.6234     H
C       0.7531      0.5   0.0078     C
O       0.7575   0.4605   0.9851     O
O       0.7575   0.5395   0.9851     O
O       0.7593   0.4625   0.8238     O
O       0.7593   0.5375   0.8238     O
C       0.7638      0.0   0.2816     C
H       0.7643   0.1157   0.5496     H
H       0.7643   0.8843   0.5496     H
H       0.7664   0.0702   0.2936     H
H       0.7664   0.9298   0.2936     H
C        0.767   0.1091   0.6049     C
C        0.767   0.8909   0.6049     C
C       0.7675      0.0   0.9377     C
H       0.7682   0.0705   0.9246     H
H       0.7682   0.9295   0.9246     H
C       0.7715   0.0416   0.3168     C
C       0.7715   0.9584   0.3168     C
H       0.7727   0.1372   0.6326     H
H       0.7727   0.8628   0.6326     H
C       0.7735   0.0421    0.905     C
C       0.7735   0.9579    0.905     C
H        0.777   0.3022   0.4123     H
H        0.777   0.6978   0.4123     H
H       0.7815   0.3357   0.4852     H
H       0.7815   0.6643   0.4852     H
Ru     0.78242  0.43881  0.91474    Ru
Ru     0.78242  0.56119  0.91474    Ru
H       0.7838   0.3554   0.4007     H
H       0.7838   0.6446   0.4007     H
C       0.7843   0.0728   0.6198     C
C       0.7843   0.9272   0.6198     C
C       0.7865   0.0415   0.3863     C
C       0.7865   0.9585   0.3863     C
C       0.7866   0.3284   0.4345     C
C       0.7866   0.6716   0.4345     C
C       0.7884   0.0415   0.8445     C
C       0.7884   0.9585   0.8445     C
O       0.7895   0.0515   0.5556     O
O       0.7895   0.9485   0.5556     O
H       0.7918   0.0698   0.4099     H
H       0.7918   0.9302   0.4099     H
O       0.7924   0.0501   0.6813     O
O       0.7924   0.9499   0.6813     O
H       0.7933   0.0699   0.8231     H
H       0.7933   0.9301   0.8231     H
N       0.7939      0.0   0.4206     N
N       0.7946      0.0   0.8131     N
O      0.80057      0.5   0.9203     O
O       0.8031    0.414   0.0087     O
O       0.8031    0.586   0.0087     O
H       0.8034    0.353   0.1094     H
H       0.8034    0.647   0.1094     H
O       0.8053   0.4109   0.8443     O
O       0.8053   0.5891   0.8443     O
H       0.8063   0.3466   0.7461     H
H       0.8063   0.6534   0.7461     H
Ru     0.81304      0.0   0.5246    Ru
C       0.8137   0.3182   0.4465     C
C       0.8137   0.6818   0.4465     C
Ru     0.81465      0.0  0.71482    Ru
H        0.817   0.3133   0.2223     H
H        0.817   0.6867   0.2223     H
C        0.818   0.3614   0.1395     C
C        0.818   0.6386   0.1395     C
H       0.8192   0.3014   0.6429     H
H       0.8192   0.6986   0.6429     H
C       0.8217   0.3524   0.7285     C
C       0.8217   0.6476   0.7285     C
O       0.8218   0.3176   0.3832     O
O       0.8218   0.6824   0.3832     O
C       0.8228   0.4249   0.0414     C
C       0.8228   0.5751   0.0414     C
C       0.8258   0.4168   0.8262     C
C       0.8258   0.5832   0.8262     C
C       0.8264   0.3382   0.2055     C
C       0.8264   0.6618   0.2055     C
O        0.828   0.3242   0.5026     O
O        0.828   0.6758   0.5026     O
C       0.8286   0.3257    0.668     C
C       0.8286   0.6743    0.668     C
O       0.8293      0.0   0.6174     O
C       0.8318   0.3977   0.1142     C
C       0.8318   0.6023   0.1142     C
H       0.8319   0.1638   0.5921     H
H       0.8319   0.8362   0.5921     H
H       0.8321   0.1637   0.2565     H
H       0.8321   0.8363   0.2565     H
O        0.834   0.0504   0.4816     O
O        0.834   0.9496   0.4816     O
O       0.8357   0.0507    0.769     O
O       0.8357   0.9493    0.769     O
C        0.836   0.3882   0.7668     C
C        0.836   0.6118   0.7668     C
Ru     0.83753      0.5   0.9347    Ru
O       0.8384   0.4519    0.021     O
O       0.8384   0.5481    0.021     O
O       0.8387   0.4488   0.8493     O
O       0.8387   0.5512   0.8493     O
H       0.8388   0.2028   0.1975     H
H       0.8388   0.7972   0.1975     H
C       0.8453   0.1827     0.24     C
C       0.8453   0.8173     0.24     C
N       0.8477   0.3502   0.2453     N
N       0.8477   0.6498   0.2453     N
C       0.8487   0.1697   0.6137     C
O       0.8487   0.2454   0.5768     O
O       0.8487   0.7546   0.5768     O
C       0.8487   0.8303   0.6137     C
H       0.8489   0.1789   0.6677     H
H       0.8489   0.8211   0.6677     H
H       0.8508   0.1277   0.8131     H
H       0.8508   0.8723   0.8131     H
N        0.851   0.3389   0.6478     N
N        0.851   0.6611   0.6478     N
O       0.8512   0.2572   0.2933     O
O       0.8512   0.7428   0.2933     O
C       0.8539   0.4096   0.1556     C
C       0.8539   0.5904   0.1556     C
C       0.8547   0.2157   0.3061     C
C       0.8547   0.7843   0.3061     C
C       0.8556   0.0607   0.4954     C
C       0.8556   0.0663   0.7573     C
C       0.8556   0.9337   0.7573     C
C       0.8556   0.9393   0.4954     C
H       0.8578   0.0879   0.3859     H
H       0.8578   0.9121   0.3859     H
H       0.8579   0.1626   0.2227     H
C       0.8579   0.3986   0.7423     C
C       0.8579   0.6014   0.7423     C
H       0.8579   0.8374   0.2227     H
H       0.8583   0.1415   0.6102     H
H       0.8583   0.8585   0.6102     H
C       0.8588   0.2089   0.5692     C
C       0.8588   0.7911   0.5692     C
Ru     0.85929  0.31642   0.3508    Ru
Ru     0.85929  0.68358   0.3508    Ru
C       0.8617   0.3858   0.2214     C
C       0.8617   0.6142   0.2214     C
Ru     0.86211  0.31043  0.54234    Ru
Ru     0.86211  0.68957  0.54234    Ru
H        0.863   0.1261   0.4518     H
H        0.863   0.8739   0.4518     H
H       0.8636   0.4341   0.1391     H
H       0.8636   0.5659   0.1391     H
C        0.865   0.1084   0.8057     C
C        0.865   0.8916   0.8057     C
C       0.8657   0.3728   0.6805     C
C       0.8657   0.6272   0.6805     C
C       0.8658   0.0939   0.4376     C
C       0.8658   0.9061   0.4376     C
Ru     0.86585      0.0  0.63257    Ru
O       0.8668   0.3804   0.3891     O
O       0.8668   0.6196   0.3891     O
O       0.8673   0.2019   0.3644     O
O       0.8673   0.7981   0.3644     O
H       0.8674   0.4227   0.7671     H
H       0.8674   0.5773   0.7671     H
O       0.8687   0.0516   0.5521     O
O       0.8687   0.9484   0.5521     O
O        0.869   0.0505   0.7143     O
O        0.869   0.9495   0.7143     O
O       0.8702   0.2863   0.4511     O
O       0.8702   0.7137   0.4511     O
H       0.8731   0.0992    0.856     H
H       0.8731   0.9008    0.856     H
C       0.8735   0.3926   0.4527     C
C       0.8735   0.6074   0.4527     C
H       0.8736   0.4616   0.4903     H
H       0.8736   0.5384   0.4903     H
O        0.874   0.1999   0.5285     O
O        0.874   0.8001   0.5285     O
O        0.875   0.3758   0.5173     O
O        0.875   0.6242   0.5173     O
H       0.8763   0.3937    0.252     H
H       0.8763   0.6063    0.252     H
H       0.8764   0.1259   0.7775     H
H       0.8764   0.8741   0.7775     H
H       0.8808   0.3791   0.6619     H
H       0.8808   0.6209   0.6619     H
H       0.8818   0.4557   0.4056     H
H       0.8818   0.5443   0.4056     H
C       0.8829   0.4425   0.4575     C
C       0.8829   0.5575   0.4575     C
H       0.8833   0.0885   0.4383     H
H       0.8833   0.9115   0.4383     H
Ru     0.89095  0.23366  0.44528    Ru
Ru     0.89095  0.76634  0.44528    Ru
O       0.8935   0.3212   0.3207     O
O       0.8935   0.6788   0.3207     O
O       0.8936   0.3005   0.6018     O
O       0.8936   0.6995   0.6018     O
H          0.9   0.4418   0.4792     H
H          0.9   0.5582   0.4792     H
N       0.9049      0.0   0.6445     N
H       0.9077      0.0   0.5297     H
H       0.9079     0.17   0.3252     H
H       0.9079     0.83   0.3252     H
H       0.9084      0.0   0.7626     H
C       0.9112   0.2944   0.3326     C
C       0.9112   0.7056   0.3326     C
O       0.9114   0.2574   0.3659     O
O       0.9114   0.7426   0.3659     O
C       0.9122   0.2848   0.5844     C
C       0.9122   0.7152   0.5844     C
N       0.9128   0.1742   0.4423     N
N       0.9128   0.8258   0.4423     N
O       0.9166   0.2607   0.5258     O
O       0.9166   0.7393   0.5258     O
C       0.9167      0.0    0.579     C
C       0.9167   0.1576   0.3702     C
C       0.9167   0.8424   0.3702     C
C        0.917      0.0   0.7182     C
H       0.9216   0.1676   0.5578     H
H       0.9216   0.8324   0.5578     H
C       0.9249   0.1561   0.5089     C
C       0.9249   0.8439   0.5089     C
H       0.9257   0.2912   0.2256     H
H       0.9257   0.7088   0.2256     H
C       0.9316   0.2987   0.2789     C
C       0.9316   0.7013   0.2789     C
C       0.9335    0.122   0.3644     C
C       0.9335    0.878   0.3644     C
H       0.9336   0.2687   0.6871     H
H       0.9336   0.7313   0.6871     H
H       0.9363   0.1101   0.3155     H
C       0.9363   0.2845   0.6391     C
C       0.9363   0.7155   0.6391     C
H       0.9363   0.8899   0.3155     H
H       0.9376   0.3306   0.2817     H
H       0.9376   0.6694   0.2817     H
H         0.94   0.3172   0.6498     H
H         0.94   0.6828   0.6498     H
C       0.9418   0.1206   0.5021     C
C       0.9418   0.8794   0.5021     C
C       0.9423      0.0   0.5863     C
C       0.9425      0.0   0.7244     C
H       0.9448   0.2776   0.2969     H
H       0.9448   0.7224   0.2969     H
C       0.9459   0.1039   0.4309     C
C       0.9459   0.8961   0.4309     C
H       0.9499     0.27   0.6165     H
H       0.9499     0.73   0.6165     H
H       0.9508   0.1086   0.5471     H
H       0.9508   0.8914   0.5471     H
H       0.9509      0.0   0.5421     H
H       0.9516      0.0   0.7735     H
C       0.9543      0.0   0.6584     C
C       0.9632   0.0658   0.4165     C
C       0.9632   0.9342   0.4165     C
O       0.9651   0.0547    0.347     O
O       0.9651   0.9453    0.347     O
O       0.9739   0.0511   0.4793     O
O       0.9739   0.9489   0.4793     O
Co     0.97485      0.0   0.2989    Co
C       0.9821      0.0   0.6722     C
O       0.9897      0.0   0.7397     O
O       0.9926      0.0   0.6149     O
