data_I
_chemical_name_common  '/home/zhangsd/repos/MofS-CGCNN/ML/data/SSD/clean_cifs/TOZHAR_clean'
_cell_length_a  8.22210
_cell_length_b  9.44100
_cell_length_c 11.93200
_cell_angle_alpha 90.00000
_cell_angle_beta  90.00000
_cell_angle_gamma 90.00000
_space_group_name_H-M_alt      'P 1'


loop_
_space_group_symop_operation_xyz
  'x, y, z' 

loop_
_atom_site_label
_atom_site_fract_x
_atom_site_fract_y
_atom_site_fract_z
_atom_site_type_symbol
C       0.0239   0.5547    0.539     C
C       0.0239   0.9453    0.039     C
C       0.0261   0.6495   0.7129     C
C       0.0261   0.8505   0.2129     C
H       0.0409   0.0351   0.9831     H
H       0.0409   0.4649   0.4831     H
H       0.0615    0.679   0.7931     H
H       0.0615    0.821   0.2931     H
N       0.0906   0.5545   0.6403     N
N       0.0906   0.9455   0.1403     N
H       0.2672   0.2093   0.4447     H
H       0.2672   0.2907   0.9447     H
Ag      0.2946   0.1106   0.1818    Ag
Ag      0.2946   0.3894   0.6818    Ag
C       0.3503    0.229    0.918     C
C       0.3503    0.271    0.418     C
N       0.4043   0.2368   0.8131     N
N       0.4043   0.2632   0.3131     N
N       0.4069   0.1398   0.9948     N
N       0.4069   0.3602   0.4948     N
C       0.5239   0.0547    0.961     C
C       0.5239   0.4453    0.461     C
C       0.5261   0.1495   0.7871     C
C       0.5261   0.3505   0.2871     C
H       0.5409   0.5351   0.5169     H
H       0.5409   0.9649   0.0169     H
H       0.5615    0.179   0.7069     H
H       0.5615    0.321   0.2069     H
N       0.5906   0.0545   0.8597     N
N       0.5906   0.4455   0.3597     N
H       0.7672   0.7093   0.0553     H
H       0.7672   0.7907   0.5553     H
Ag      0.7946   0.6106   0.3182    Ag
Ag      0.7946   0.8894   0.8182    Ag
C       0.8503    0.729    0.582     C
C       0.8503    0.771    0.082     C
N       0.9043   0.7368   0.6869     N
N       0.9043   0.7632   0.1869     N
N       0.9069   0.6398   0.5052     N
N       0.9069   0.8602   0.0052     N
