data_I
_chemical_name_common  '/home/zhangsd/repos/MofS-CGCNN/ML/data/SSD/clean_cifs/TUKCUZ_clean'
_cell_length_a  9.81200
_cell_length_b 14.28300
_cell_length_c 19.57200
_cell_angle_alpha 90.00000
_cell_angle_beta  96.94100
_cell_angle_gamma 90.00000
_space_group_name_H-M_alt      'P 1'


loop_
_space_group_symop_operation_xyz
  'x, y, z' 

loop_
_atom_site_label
_atom_site_fract_x
_atom_site_fract_y
_atom_site_fract_z
_atom_site_type_symbol
C       0.0056   0.8882   0.6545     C
H       0.0057   0.2611   0.5965     H
H       0.0102   0.8351   0.8455     H
C       0.0162   0.6609   0.0689     C
O       0.0172   0.2253  0.79322     O
C       0.0227   0.4845   0.3198     C
N       0.0249   0.4336  0.26004     N
C       0.0252   0.6344   0.0033     C
H       0.0268   0.5999   0.8702     H
C       0.0339   0.2484   0.7333     C
H        0.044   0.1463   0.3804     H
N       0.0443   0.0374  0.31424     N
O       0.0483   0.1834  0.18494     O
H       0.0526   0.0423   0.7648     H
C       0.0574   0.9929   0.7342     C
C       0.0612   0.4244     0.14     C
C       0.0666   0.6359    0.738     C
C       0.0724   0.5565   0.6459     C
H        0.076   0.5365   0.3337     H
C       0.0787   0.7279   0.3879     C
H       0.0839   0.6816   0.7718     H
H       0.0863   0.6899   0.0975     H
O       0.0864    0.749   0.5331     O
C       0.0914   0.7337    0.318     C
H       0.0963   0.5366   0.6037     H
N       0.0989   0.4062   0.0201     N
H          0.1   0.6421   0.9788     H
H       0.1061   0.1708   0.0583     H
N       0.1101    0.361   0.9127     N
C       0.1106   0.4495   0.2069     C
N       0.1284   0.6313   0.6823     N
N       0.1326   0.8707   0.6795     N
C       0.1458   0.4363   0.0887     C
O       0.1507   0.2588   0.7152     O
C       0.1667   0.9368    0.729     C
H       0.1678   0.9828   0.4308     H
C       0.1688   0.1966   0.1585     C
C       0.1768   0.4017   0.9676     C
C       0.1803   0.9989   0.3292     C
C       0.1814   0.1881   0.0891     C
C       0.1838   0.7069   0.5105     C
C       0.1928   0.7057   0.4344     C
C       0.2164   0.7189   0.2953     C
O       0.2196   0.1699  0.95025     O
C       0.2242   0.9742   0.3964     C
H       0.2246   0.7238   0.2486     H
H       0.2285   0.0031   0.2316     H
H        0.234   0.9245   0.5302     H
Cd     0.23402  0.25048  0.84863    Cd
C       0.2394   0.4867   0.2234     C
H        0.248   0.4424   0.7449     H
H        0.252   0.9424   0.7551     H
C       0.2606   0.9867   0.2766     C
Cd     0.26598  0.75048  0.65137    Cd
H        0.266   0.4245   0.9698     H
H       0.2715   0.5031   0.2684     H
H       0.2754   0.2238   0.2514     H
C       0.2758   0.4742   0.1036     C
O       0.2804   0.6699  0.54975     O
C       0.2836   0.2189   0.2047     C
C       0.3072   0.2057   0.0656     C
C       0.3162   0.2069   0.9895     C
C       0.3186   0.6881   0.4109     C
C       0.3197   0.4989   0.1708     C
C       0.3232   0.9017   0.5324     C
C       0.3312   0.6966   0.3415     C
H       0.3322   0.4828   0.0692     H
C       0.3333   0.4368    0.771     C
O       0.3493   0.7588   0.7848     O
C       0.3542   0.9363   0.4113     C
N       0.3674   0.3707   0.8205     N
N       0.3716   0.1313   0.8177     N
C       0.3894   0.9495   0.2931     C
N       0.3899    0.861   0.5873     N
H       0.3939   0.6708   0.4417     H
H          0.4   0.1421   0.5212     H
N       0.4011   0.9062   0.4799     N
H       0.4037   0.0366   0.8963     H
C       0.4086   0.2337    0.182     C
O       0.4136    0.249   0.9669     O
H       0.4137   0.1899   0.4025     H
H       0.4161   0.1816   0.7282     H
C       0.4213   0.2279   0.1121     C
H        0.424   0.0365   0.1663     H
C       0.4276   0.0565   0.8541     C
C       0.4334   0.1359    0.762     C
C       0.4388   0.9244     0.36     C
C       0.4426   0.4929   0.7658     C
H       0.4474   0.5423   0.7352     H
O       0.4517   0.6834  0.31506     O
N       0.4557   0.5374  0.18576     N
H        0.456   0.6463   0.1196     H
C       0.4661   0.7484   0.7667     C
H       0.4732   0.0999   0.6298     H
C       0.4748   0.1344   0.4967     C
N       0.4751   0.9336  0.23996     N
C       0.4773   0.9845   0.1802     C
O       0.4828   0.7253  0.70678     O
C       0.4838   0.1609   0.4311     C
H       0.4898   0.3351   0.6545     H
H       0.4943   0.7611   0.9035     H
C       0.4944   0.3882   0.8455     C
C       0.5056   0.6118   0.1545     C
H       0.5057   0.2389   0.0965     H
H       0.5102   0.6649   0.3455     H
C       0.5162   0.8391   0.5689     C
O       0.5172   0.2747  0.29322     O
C       0.5227   0.0155   0.8198     C
N       0.5249   0.0664  0.76004     N
C       0.5252   0.8656   0.5033     C
H       0.5268   0.9001   0.3702     H
C       0.5339   0.2516   0.2333     C
H        0.544   0.3537   0.8804     H
N       0.5443   0.4626  0.81424     N
O       0.5483   0.3166  0.68494     O
H       0.5526   0.4577   0.2648     H
C       0.5574   0.5071   0.2342     C
C       0.5612   0.0756     0.64     C
C       0.5666   0.8641    0.238     C
C       0.5724   0.9435   0.1459     C
H        0.576   0.9635   0.8337     H
C       0.5787   0.7721   0.8879     C
H       0.5839   0.8184   0.2718     H
H       0.5863   0.8101   0.5975     H
O       0.5864    0.751   0.0331     O
C       0.5914   0.7663    0.818     C
H       0.5963   0.9634   0.1037     H
N       0.5989   0.0938   0.5201     N
H          0.6   0.8579   0.4788     H
H       0.6061   0.3292   0.5583     H
N       0.6101    0.139   0.4127     N
C       0.6106   0.0505   0.7069     C
N       0.6284   0.8687   0.1823     N
N       0.6326   0.6293   0.1795     N
C       0.6458   0.0637   0.5887     C
O       0.6507   0.2412   0.2152     O
C       0.6667   0.5632    0.229     C
H       0.6678   0.5172   0.9308     H
C       0.6688   0.3034   0.6585     C
C       0.6768   0.0983   0.4676     C
C       0.6803   0.5011   0.8292     C
C       0.6814   0.3119   0.5891     C
C       0.6838   0.7931   0.0105     C
C       0.6928   0.7943   0.9344     C
C       0.7164   0.7811   0.7953     C
O       0.7196   0.3301  0.45025     O
C       0.7242   0.5258   0.8964     C
H       0.7246   0.7762   0.7486     H
H       0.7285   0.4969   0.7316     H
H        0.734   0.5755   0.0302     H
Cd     0.73402  0.24952  0.34863    Cd
C       0.7394   0.0133   0.7234     C
H        0.748   0.0576   0.2449     H
H        0.752   0.5576   0.2551     H
C       0.7606   0.5133   0.7766     C
Cd     0.76598  0.74952  0.15137    Cd
H        0.766   0.0755   0.4698     H
H       0.7715   0.9969   0.7684     H
H       0.7754   0.2762   0.7514     H
C       0.7758   0.0258   0.6036     C
O       0.7804   0.8301  0.04975     O
C       0.7836   0.2811   0.7047     C
C       0.8072   0.2943   0.5656     C
C       0.8162   0.2931   0.4895     C
C       0.8186   0.8119   0.9109     C
C       0.8197   0.0011   0.6708     C
C       0.8232   0.5983   0.0324     C
C       0.8312   0.8034   0.8415     C
H       0.8322   0.0172   0.5692     H
C       0.8333   0.0632    0.271     C
O       0.8493   0.7412   0.2848     O
C       0.8542   0.5637   0.9113     C
N       0.8674   0.1293   0.3205     N
N       0.8716   0.3687   0.3177     N
C       0.8894   0.5505   0.7931     C
N       0.8899    0.639   0.0873     N
H       0.8939   0.8292   0.9417     H
H          0.9   0.3579   0.0212     H
N       0.9011   0.5938   0.9799     N
H       0.9037   0.4634   0.3963     H
C       0.9086   0.2663    0.682     C
O       0.9136    0.251   0.4669     O
H       0.9137   0.3101   0.9025     H
H       0.9161   0.3184   0.2282     H
C       0.9213   0.2721   0.6121     C
H        0.924   0.4635   0.6663     H
C       0.9276   0.4435   0.3541     C
C       0.9334   0.3641    0.262     C
C       0.9388   0.5756     0.86     C
C       0.9426   0.0071   0.2658     C
H       0.9474   0.9577   0.2352     H
O       0.9517   0.8166  0.81506     O
N       0.9557   0.9626  0.68576     N
H        0.956   0.8537   0.6196     H
C       0.9661   0.7516   0.2667     C
H       0.9732   0.4001   0.1298     H
C       0.9748   0.3656   0.9967     C
N       0.9751   0.5664  0.73996     N
C       0.9773   0.5155   0.6802     C
O       0.9828   0.7747  0.20678     O
C       0.9838   0.3391   0.9311     C
H       0.9898   0.1649   0.1545     H
H       0.9943   0.7389   0.4035     H
C       0.9944   0.1118   0.3455     C
