data_I
_chemical_name_common  '/home/zhangsd/repos/MofS-CGCNN/ML/data/SSD/clean_cifs/TUKCOT_clean'
_cell_length_a  9.04200
_cell_length_b  9.04200
_cell_length_c 27.23100
_cell_angle_alpha 90.00000
_cell_angle_beta  90.00000
_cell_angle_gamma 90.00000
_space_group_name_H-M_alt      'P 1'


loop_
_space_group_symop_operation_xyz
  'x, y, z' 

loop_
_atom_site_label
_atom_site_fract_x
_atom_site_fract_y
_atom_site_fract_z
_atom_site_type_symbol
N       0.0034   0.4435  0.67231     N
C       0.0196   0.7037  0.16429     C
N       0.0342   0.5414  0.01942     N
H       0.0468   0.6215   0.9501     H
H       0.0776   0.6637   0.4639     H
C       0.0852    0.216  0.68694     C
C       0.0919   0.6132  0.98068     C
H       0.0947   0.1136   0.6868     H
H       0.0967   0.7428   0.1458     H
C       0.1083   0.5299  0.52268     C
H       0.1136   0.9053   0.4368     H
H       0.1205   0.5139   0.0888     H
C        0.122   0.4513  0.70016     C
C        0.131   0.5533  0.05748     C
C       0.1435    0.638  0.48874     C
H       0.1635   0.5391   0.7114     H
H        0.175   0.4166   0.5825     H
N       0.1755   0.3157  0.71029     N
Cd     0.18552  0.38249  0.19968    Cd
C       0.2025   0.4883  0.55977     C
C        0.216   0.9148  0.43694     C
N       0.2207   0.6701  0.99207     N
C        0.246   0.6344  0.04024     C
H       0.2572   0.0967   0.3958     H
C         0.28    0.707  0.49278     C
H       0.2904   0.4735   0.7809     H
C        0.293     0.28  0.74278     C
C       0.2963   0.0196  0.41429     C
H       0.3045   0.6232   0.3723     H
H       0.3079   0.5786   0.8575     H
N       0.3157   0.8245  0.46029     N
H       0.3179   0.4153   0.4299     H
H        0.329   0.6615   0.0583     H
N       0.3299   0.2207  0.24207     N
C       0.3348   0.3809   0.7791     C
H       0.3363   0.0776   0.7139     H
H       0.3385    0.329   0.3083     H
C       0.3406   0.5566  0.56237     C
C        0.362   0.1435  0.73874     C
C       0.3656    0.246  0.29024     C
N       0.3729   0.4752  0.15239     N
H       0.3768   0.3045   0.6223     H
H       0.3785   0.0468   0.2001     H
C       0.3809   0.6652   0.5291     C
Cd     0.38249  0.81448  0.94968    Cd
C       0.3831   0.5578  0.37602     C
C       0.3868   0.0919  0.23068     C
C       0.3914   0.4426  0.40782     C
C       0.4028   0.5551  0.86811     C
H       0.4153   0.6821   0.1799     H
H       0.4166    0.825   0.3325     H
H       0.4214   0.3079   0.1075     H
N       0.4415   0.5148  0.60023     N
C       0.4422   0.3831  0.62602     C
C       0.4426   0.6086  0.15782     C
C       0.4434   0.3406  0.81237     C
N       0.4435   0.9966  0.42231     N
C       0.4449   0.4028  0.11811     C
C       0.4467    0.131  0.30748     C
C       0.4513    0.878  0.45016     C
N       0.4586   0.0342  0.26942     N
H       0.4609   0.1635   0.9614     H
C       0.4701   0.1083  0.77268     C
H       0.4735   0.7096   0.5309     H
N       0.4752   0.6271  0.90239     N
N       0.4852   0.4415  0.85023     N
H       0.4861   0.1205   0.3388     H
C       0.4883   0.7975  0.30977     C
C       0.5117   0.2025  0.80977     C
H       0.5139   0.8795   0.8388     H
N       0.5148   0.5585  0.35023     N
N       0.5248   0.3729  0.40239     N
H       0.5265   0.2904   0.0309     H
C       0.5299   0.8917  0.27268     C
H       0.5391   0.8365   0.4614     H
N       0.5414   0.9658  0.76942     N
C       0.5487    0.122  0.95016     C
C       0.5533    0.869  0.80748     C
C       0.5551   0.5972  0.61811     C
N       0.5565   0.0034  0.92231     N
C       0.5566   0.6594  0.31237     C
C       0.5574   0.3914  0.65782     C
C       0.5578   0.6169  0.12602     C
N       0.5585   0.4852  0.10023     N
H       0.5786   0.6921   0.6075     H
H       0.5834    0.175   0.8325     H
H       0.5847   0.3179   0.6799     H
C       0.5972   0.4449  0.36811     C
C       0.6086   0.5574  0.90782     C
C       0.6132   0.9081  0.73068     C
C       0.6169   0.4422  0.87602     C
Cd     0.61751  0.18552  0.44968    Cd
C       0.6191   0.3348   0.0291     C
H       0.6215   0.9532   0.7001     H
H       0.6232   0.6955   0.1223     H
N       0.6271   0.5248  0.65239     N
C       0.6344    0.754  0.79024     C
C        0.638   0.8565  0.23874     C
C       0.6594   0.4434  0.06237     C
H       0.6615    0.671   0.8083     H
H       0.6637   0.9224   0.2139     H
C       0.6652   0.6191   0.2791     C
N       0.6701   0.7793  0.74207     N
H        0.671   0.3385   0.5583     H
H       0.6821   0.5847   0.9299     H
N       0.6843   0.1755  0.96029     N
H       0.6921   0.4214   0.3575     H
H       0.6955   0.3768   0.8723     H
C       0.7037   0.9804  0.91429     C
C        0.707     0.72  0.24278     C
H       0.7096   0.5265   0.2809     H
C         0.72    0.293  0.99278     C
H       0.7428   0.9033   0.8958     H
C        0.754   0.3656  0.54024     C
N       0.7793   0.3299  0.49207     N
C        0.784   0.0852  0.93694     C
C       0.7975   0.5117  0.05977     C
Cd     0.81448  0.61751  0.69968    Cd
N       0.8245   0.6843  0.21029     N
H        0.825   0.5834   0.0825     H
H       0.8365   0.4609   0.2114     H
C       0.8565    0.362  0.98874     C
C        0.869   0.4467  0.55748     C
C        0.878   0.5487  0.20016     C
H       0.8795   0.4861   0.5888     H
H       0.8864   0.0947   0.9368     H
C       0.8917   0.4701  0.02268     C
H       0.9033   0.2572   0.6458     H
H       0.9053   0.8864   0.1868     H
C       0.9081   0.3868  0.48068     C
C       0.9148    0.784  0.18694     C
H       0.9224   0.3363   0.9639     H
H       0.9532   0.3785   0.4501     H
N       0.9658   0.4586  0.51942     N
C       0.9804   0.2963  0.66429     C
N       0.9966   0.5565  0.17231     N
