data_I
_chemical_name_common  '/home/zhangsd/repos/MofS-CGCNN/ML/data/SSD/clean_cifs/TUVDIX_clean'
_cell_length_a 15.51200
_cell_length_b 15.51200
_cell_length_c 15.64500
_cell_angle_alpha 90.00000
_cell_angle_beta  90.00000
_cell_angle_gamma 120.00000
_space_group_name_H-M_alt      'P 1'


loop_
_space_group_symop_operation_xyz
  'x, y, z' 

loop_
_atom_site_label
_atom_site_fract_x
_atom_site_fract_y
_atom_site_fract_z
_atom_site_type_symbol
Mn         0.0      0.5      0.0    Mn
Mn         0.0      0.5      0.5    Mn
H       0.0535   0.2863   0.3414     H
H       0.0535   0.2863   0.6586     H
H       0.0535   0.7672   0.1586     H
H       0.0535   0.7672   0.8414     H
O       0.0609   0.4441   0.4049     O
O       0.0609   0.4441   0.5951     O
O       0.0609   0.6168   0.0951     O
O       0.0609   0.6168   0.9049     O
H      0.10035   0.2007     0.25     H
H      0.10035   0.2007     0.75     H
H      0.10035  0.89965     0.25     H
H      0.10035  0.89965     0.75     H
C       0.1071   0.3204   0.3044     C
C       0.1071   0.3204   0.6956     C
C       0.1071   0.7867   0.1956     C
C       0.1071   0.7867   0.8044     C
C      0.13495   0.2699     0.25     C
C      0.13495   0.2699     0.75     C
C      0.13495  0.86505     0.25     C
C      0.13495  0.86505     0.75     C
C       0.1363   0.4875   0.3606     C
C       0.1363   0.4875   0.6394     C
C       0.1363   0.6488   0.1394     C
C       0.1363   0.6488   0.8606     C
C       0.1603   0.4236   0.3034     C
C       0.1603   0.4236   0.6966     C
C       0.1603   0.7367   0.1966     C
C       0.1603   0.7367   0.8034     C
O       0.1968   0.5807   0.3573     O
O       0.1968   0.5807   0.6427     O
O       0.1968   0.6161   0.1427     O
O       0.1968   0.6161   0.8573     O
H       0.2007  0.10035     0.25     H
H       0.2007  0.10035     0.75     H
C       0.2133   0.3204   0.1956     C
C       0.2133   0.3204   0.8044     C
C       0.2133   0.8929   0.3044     C
C       0.2133   0.8929   0.6956     C
H       0.2328   0.2863   0.1586     H
H       0.2328   0.2863   0.8414     H
H       0.2328   0.9465   0.3414     H
H       0.2328   0.9465   0.6586     H
N       0.2372   0.4744     0.25     N
N       0.2372   0.4744     0.75     N
N       0.2372   0.7628     0.25     N
N       0.2372   0.7628     0.75     N
C       0.2633   0.4236   0.1966     C
C       0.2633   0.4236   0.8034     C
C       0.2633   0.8397   0.3034     C
C       0.2633   0.8397   0.6966     C
C       0.2699  0.13495     0.25     C
C       0.2699  0.13495     0.75     C
H       0.2863   0.0535   0.1586     H
H       0.2863   0.0535   0.8414     H
H       0.2863   0.2328   0.3414     H
H       0.2863   0.2328   0.6586     H
C       0.3204   0.1071   0.1956     C
C       0.3204   0.1071   0.8044     C
C       0.3204   0.2133   0.3044     C
C       0.3204   0.2133   0.6956     C
Pr     0.33333  0.66666     0.25    Pr
Pr     0.33333  0.66666     0.75    Pr
C       0.3512   0.4875   0.1394     C
C       0.3512   0.4875   0.8606     C
C       0.3512   0.8637   0.3606     C
C       0.3512   0.8637   0.6394     C
O       0.3832   0.4441   0.0951     O
O       0.3832   0.4441   0.9049     O
O       0.3832   0.9391   0.4049     O
O       0.3832   0.9391   0.5951     O
O       0.3839   0.5807   0.1427     O
O       0.3839   0.5807   0.8573     O
O       0.3839   0.8032   0.3573     O
O       0.3839   0.8032   0.6427     O
O       0.4193   0.6161   0.3573     O
O       0.4193   0.6161   0.6427     O
O       0.4193   0.8032   0.1427     O
O       0.4193   0.8032   0.8573     O
C       0.4236   0.1603   0.1966     C
C       0.4236   0.1603   0.8034     C
C       0.4236   0.2633   0.3034     C
C       0.4236   0.2633   0.6966     C
O       0.4441   0.0609   0.0951     O
O       0.4441   0.0609   0.9049     O
O       0.4441   0.3832   0.4049     O
O       0.4441   0.3832   0.5951     O
N       0.4744   0.2372     0.25     N
N       0.4744   0.2372     0.75     N
C       0.4875   0.1363   0.1394     C
C       0.4875   0.1363   0.8606     C
C       0.4875   0.3512   0.3606     C
C       0.4875   0.3512   0.6394     C
Mn         0.5     -0.0      0.0    Mn
Mn         0.5     -0.0      0.5    Mn
Mn         0.5      0.5      0.0    Mn
Mn         0.5      0.5      0.5    Mn
C       0.5125   0.6488   0.3606     C
C       0.5125   0.6488   0.6394     C
C       0.5125   0.8637   0.1394     C
C       0.5125   0.8637   0.8606     C
N       0.5256   0.7628     0.25     N
N       0.5256   0.7628     0.75     N
O       0.5559   0.6168   0.4049     O
O       0.5559   0.6168   0.5951     O
O       0.5559   0.9391   0.0951     O
O       0.5559   0.9391   0.9049     O
C       0.5764   0.7367   0.3034     C
C       0.5764   0.7367   0.6966     C
C       0.5764   0.8397   0.1966     C
C       0.5764   0.8397   0.8034     C
O       0.5807   0.1968   0.1427     O
O       0.5807   0.1968   0.8573     O
O       0.5807   0.3839   0.3573     O
O       0.5807   0.3839   0.6427     O
O       0.6161   0.1968   0.3573     O
O       0.6161   0.1968   0.6427     O
O       0.6161   0.4193   0.1427     O
O       0.6161   0.4193   0.8573     O
O       0.6168   0.0609   0.4049     O
O       0.6168   0.0609   0.5951     O
O       0.6168   0.5559   0.0951     O
O       0.6168   0.5559   0.9049     O
C       0.6488   0.1363   0.3606     C
C       0.6488   0.1363   0.6394     C
C       0.6488   0.5125   0.1394     C
C       0.6488   0.5125   0.8606     C
Pr     0.66667  0.33334     0.25    Pr
Pr     0.66667  0.33334     0.75    Pr
C       0.6796   0.7867   0.3044     C
C       0.6796   0.7867   0.6956     C
C       0.6796   0.8929   0.1956     C
C       0.6796   0.8929   0.8044     C
H       0.7137   0.7672   0.3414     H
H       0.7137   0.7672   0.6586     H
H       0.7137   0.9465   0.1586     H
H       0.7137   0.9465   0.8414     H
C       0.7301  0.86505     0.25     C
C       0.7301  0.86505     0.75     C
C       0.7367   0.1603   0.3034     C
C       0.7367   0.1603   0.6966     C
C       0.7367   0.5764   0.1966     C
C       0.7367   0.5764   0.8034     C
N       0.7628   0.2372     0.25     N
N       0.7628   0.2372     0.75     N
N       0.7628   0.5256     0.25     N
N       0.7628   0.5256     0.75     N
H       0.7672   0.0535   0.3414     H
H       0.7672   0.0535   0.6586     H
H       0.7672   0.7137   0.1586     H
H       0.7672   0.7137   0.8414     H
C       0.7867   0.1071   0.3044     C
C       0.7867   0.1071   0.6956     C
C       0.7867   0.6796   0.1956     C
C       0.7867   0.6796   0.8044     C
H       0.7993  0.89965     0.25     H
H       0.7993  0.89965     0.75     H
O       0.8032   0.3839   0.1427     O
O       0.8032   0.3839   0.8573     O
O       0.8032   0.4193   0.3573     O
O       0.8032   0.4193   0.6427     O
C       0.8397   0.2633   0.1966     C
C       0.8397   0.2633   0.8034     C
C       0.8397   0.5764   0.3034     C
C       0.8397   0.5764   0.6966     C
C       0.8637   0.3512   0.1394     C
C       0.8637   0.3512   0.8606     C
C       0.8637   0.5125   0.3606     C
C       0.8637   0.5125   0.6394     C
C      0.86505  0.13495     0.25     C
C      0.86505  0.13495     0.75     C
C      0.86505   0.7301     0.25     C
C      0.86505   0.7301     0.75     C
C       0.8929   0.2133   0.1956     C
C       0.8929   0.2133   0.8044     C
C       0.8929   0.6796   0.3044     C
C       0.8929   0.6796   0.6956     C
H      0.89965  0.10035     0.25     H
H      0.89965  0.10035     0.75     H
H      0.89965   0.7993     0.25     H
H      0.89965   0.7993     0.75     H
O       0.9391   0.3832   0.0951     O
O       0.9391   0.3832   0.9049     O
O       0.9391   0.5559   0.4049     O
O       0.9391   0.5559   0.5951     O
H       0.9465   0.2328   0.1586     H
H       0.9465   0.2328   0.8414     H
H       0.9465   0.7137   0.3414     H
H       0.9465   0.7137   0.6586     H
