data_I
_chemical_name_common  '/home/zhangsd/repos/MofS-CGCNN/ML/data/SSD/clean_cifs/TUVDOD_clean'
_cell_length_a 15.30700
_cell_length_b 15.30700
_cell_length_c 15.69500
_cell_angle_alpha 90.00000
_cell_angle_beta  90.00000
_cell_angle_gamma 120.00000
_space_group_name_H-M_alt      'P 1'


loop_
_space_group_symop_operation_xyz
  'x, y, z' 

loop_
_atom_site_label
_atom_site_fract_x
_atom_site_fract_y
_atom_site_fract_z
_atom_site_type_symbol
Mn         0.0      0.5      0.0    Mn
Mn         0.0      0.5      0.5    Mn
H       0.0549   0.2894   0.3428     H
H       0.0549   0.2894   0.6572     H
H       0.0549   0.7655   0.1572     H
H       0.0549   0.7655   0.8428     H
O      0.06456  0.44866  0.40657     O
O      0.06456  0.44866  0.59343     O
O      0.06456   0.6159  0.09343     O
O      0.06456   0.6159  0.90657     O
H       0.1005    0.201     0.25     H
H       0.1005    0.201     0.75     H
H       0.1005   0.8995     0.25     H
H       0.1005   0.8995     0.75     H
C       0.1084   0.3235   0.3051     C
C       0.1084   0.3235   0.6949     C
C       0.1084   0.7849   0.1949     C
C       0.1084   0.7849   0.8051     C
C      0.13555   0.2711     0.25     C
C      0.13555   0.2711     0.75     C
C      0.13555  0.86445     0.25     C
C      0.13555  0.86445     0.75     C
C         0.14   0.4925   0.3596     C
C         0.14   0.4925   0.6404     C
C         0.14   0.6475   0.1404     C
C         0.14   0.6475   0.8596     C
C       0.1617   0.4269   0.3034     C
C       0.1617   0.4269   0.6966     C
C       0.1617   0.7348   0.1966     C
C       0.1617   0.7348   0.8034     C
O      0.19918  0.58593  0.35581     O
O      0.19918  0.58593  0.64419     O
O      0.19918  0.61325  0.14419     O
O      0.19918  0.61325  0.85581     O
H        0.201   0.1005     0.25     H
H        0.201   0.1005     0.75     H
C       0.2151   0.3235   0.1949     C
C       0.2151   0.3235   0.8051     C
C       0.2151   0.8916   0.3051     C
C       0.2151   0.8916   0.6949     C
H       0.2345   0.2894   0.1572     H
H       0.2345   0.2894   0.8428     H
H       0.2345   0.9451   0.3428     H
H       0.2345   0.9451   0.6572     H
N      0.23937  0.47874     0.25     N
N      0.23937  0.47874     0.75     N
N      0.23937  0.76063     0.25     N
N      0.23937  0.76063     0.75     N
C       0.2652   0.4269   0.1966     C
C       0.2652   0.4269   0.8034     C
C       0.2652   0.8383   0.3034     C
C       0.2652   0.8383   0.6966     C
C       0.2711  0.13555     0.25     C
C       0.2711  0.13555     0.75     C
H       0.2894   0.0549   0.1572     H
H       0.2894   0.0549   0.8428     H
H       0.2894   0.2345   0.3428     H
H       0.2894   0.2345   0.6572     H
C       0.3235   0.1084   0.1949     C
C       0.3235   0.1084   0.8051     C
C       0.3235   0.2151   0.3051     C
C       0.3235   0.2151   0.6949     C
Gd     0.33333  0.66666     0.25    Gd
Gd     0.33333  0.66666     0.75    Gd
C       0.3525   0.4925   0.1404     C
C       0.3525   0.4925   0.8596     C
C       0.3525     0.86   0.3596     C
C       0.3525     0.86   0.6404     C
O       0.3841  0.44866  0.09343     O
O       0.3841  0.44866  0.90657     O
O       0.3841  0.93544  0.40657     O
O       0.3841  0.93544  0.59343     O
O      0.38675  0.58593  0.14419     O
O      0.38675  0.58593  0.85581     O
O      0.38675  0.80082  0.35581     O
O      0.38675  0.80082  0.64419     O
O      0.41407  0.61325  0.35581     O
O      0.41407  0.61325  0.64419     O
O      0.41407  0.80082  0.14419     O
O      0.41407  0.80082  0.85581     O
C       0.4269   0.1617   0.1966     C
C       0.4269   0.1617   0.8034     C
C       0.4269   0.2652   0.3034     C
C       0.4269   0.2652   0.6966     C
O      0.44866  0.06456  0.09343     O
O      0.44866  0.06456  0.90657     O
O      0.44866   0.3841  0.40657     O
O      0.44866   0.3841  0.59343     O
N      0.47874  0.23937     0.25     N
N      0.47874  0.23937     0.75     N
C       0.4925     0.14   0.1404     C
C       0.4925     0.14   0.8596     C
C       0.4925   0.3525   0.3596     C
C       0.4925   0.3525   0.6404     C
Mn         0.5      0.0      0.0    Mn
Mn         0.5      0.0      0.5    Mn
Mn         0.5      0.5      0.0    Mn
Mn         0.5      0.5      0.5    Mn
C       0.5075   0.6475   0.3596     C
C       0.5075   0.6475   0.6404     C
C       0.5075     0.86   0.1404     C
C       0.5075     0.86   0.8596     C
N      0.52126  0.76063     0.25     N
N      0.52126  0.76063     0.75     N
O      0.55134   0.6159  0.40657     O
O      0.55134   0.6159  0.59343     O
O      0.55134  0.93544  0.09343     O
O      0.55134  0.93544  0.90657     O
C       0.5731   0.7348   0.3034     C
C       0.5731   0.7348   0.6966     C
C       0.5731   0.8383   0.1966     C
C       0.5731   0.8383   0.8034     C
O      0.58593  0.19918  0.14419     O
O      0.58593  0.19918  0.85581     O
O      0.58593  0.38675  0.35581     O
O      0.58593  0.38675  0.64419     O
O      0.61325  0.19918  0.35581     O
O      0.61325  0.19918  0.64419     O
O      0.61325  0.41407  0.14419     O
O      0.61325  0.41407  0.85581     O
O       0.6159  0.06456  0.40657     O
O       0.6159  0.06456  0.59343     O
O       0.6159  0.55134  0.09343     O
O       0.6159  0.55134  0.90657     O
C       0.6475     0.14   0.3596     C
C       0.6475     0.14   0.6404     C
C       0.6475   0.5075   0.1404     C
C       0.6475   0.5075   0.8596     C
Gd     0.66667  0.33334     0.25    Gd
Gd     0.66667  0.33334     0.75    Gd
C       0.6765   0.7849   0.3051     C
C       0.6765   0.7849   0.6949     C
C       0.6765   0.8916   0.1949     C
C       0.6765   0.8916   0.8051     C
H       0.7106   0.7655   0.3428     H
H       0.7106   0.7655   0.6572     H
H       0.7106   0.9451   0.1572     H
H       0.7106   0.9451   0.8428     H
C       0.7289  0.86445     0.25     C
C       0.7289  0.86445     0.75     C
C       0.7348   0.1617   0.3034     C
C       0.7348   0.1617   0.6966     C
C       0.7348   0.5731   0.1966     C
C       0.7348   0.5731   0.8034     C
N      0.76063  0.23937     0.25     N
N      0.76063  0.23937     0.75     N
N      0.76063  0.52126     0.25     N
N      0.76063  0.52126     0.75     N
H       0.7655   0.0549   0.3428     H
H       0.7655   0.0549   0.6572     H
H       0.7655   0.7106   0.1572     H
H       0.7655   0.7106   0.8428     H
C       0.7849   0.1084   0.3051     C
C       0.7849   0.1084   0.6949     C
C       0.7849   0.6765   0.1949     C
C       0.7849   0.6765   0.8051     C
H        0.799   0.8995     0.25     H
H        0.799   0.8995     0.75     H
O      0.80082  0.38675  0.14419     O
O      0.80082  0.38675  0.85581     O
O      0.80082  0.41407  0.35581     O
O      0.80082  0.41407  0.64419     O
C       0.8383   0.2652   0.1966     C
C       0.8383   0.2652   0.8034     C
C       0.8383   0.5731   0.3034     C
C       0.8383   0.5731   0.6966     C
C         0.86   0.3525   0.1404     C
C         0.86   0.3525   0.8596     C
C         0.86   0.5075   0.3596     C
C         0.86   0.5075   0.6404     C
C      0.86445  0.13555     0.25     C
C      0.86445  0.13555     0.75     C
C      0.86445   0.7289     0.25     C
C      0.86445   0.7289     0.75     C
C       0.8916   0.2151   0.1949     C
C       0.8916   0.2151   0.8051     C
C       0.8916   0.6765   0.3051     C
C       0.8916   0.6765   0.6949     C
H       0.8995   0.1005     0.25     H
H       0.8995   0.1005     0.75     H
H       0.8995    0.799     0.25     H
H       0.8995    0.799     0.75     H
O      0.93544   0.3841  0.09343     O
O      0.93544   0.3841  0.90657     O
O      0.93544  0.55134  0.40657     O
O      0.93544  0.55134  0.59343     O
H       0.9451   0.2345   0.1572     H
H       0.9451   0.2345   0.8428     H
H       0.9451   0.7106   0.3428     H
H       0.9451   0.7106   0.6572     H
