data_I
_chemical_name_common  '/home/zhangsd/repos/MofS-CGCNN/ML/data/SSD/clean_cifs/UBOGAV_clean'
_cell_length_a  9.59500
_cell_length_b 10.33000
_cell_length_c 13.67000
_cell_angle_alpha 75.70200
_cell_angle_beta  88.85400
_cell_angle_gamma 65.34500
_space_group_name_H-M_alt      'P 1'


loop_
_space_group_symop_operation_xyz
  'x, y, z' 

loop_
_atom_site_label
_atom_site_fract_x
_atom_site_fract_y
_atom_site_fract_z
_atom_site_type_symbol
U          0.0      0.0      0.0     U
O       0.0061   0.4121   0.9458     O
C       0.0084   0.4129   0.7472     C
C       0.0097   0.5483   0.7062     C
C       0.0413   0.2282   0.4347     C
O       0.0537   0.7935   0.6117     O
H       0.0606    0.584   0.7444     H
C       0.0611   0.3669   0.3892     C
O       0.0713   0.1674   0.8973     O
C       0.0722   0.6379   0.3078     C
H       0.0745   0.7309   0.2808     H
P       0.0898   0.3114  0.87525     P
Cu     0.09792  0.96519  0.57957    Cu
O       0.0988    0.921   0.3735     O
O       0.1225    0.146   0.5173     O
C       0.1445   0.4144   0.4418     C
C       0.1468   0.5505   0.4006     C
H       0.1997   0.3542   0.5056     H
H       0.2016   0.5838   0.4378     H
H       0.2317   0.8517   0.2274     H
U      0.23419  0.44979  0.00052     U
C       0.2353   0.8563   0.4182     C
O       0.2527   0.8393   0.0414     O
O       0.2561   0.2887    0.889     O
O       0.2703   0.8632   0.5062     O
H       0.3035   0.5163   0.5966     H
O       0.3128   0.5661   0.0966     O
C       0.3253   0.7758   0.2632     C
C       0.3589   0.7646   0.3655     C
H       0.3686   0.5062   0.7618     H
P       0.3744   0.6829   0.0866     P
C        0.399   0.4428   0.6317     C
C       0.4274   0.6771    0.214     C
C       0.4368   0.4343   0.7305     C
H       0.4798   0.3457   0.5148     H
O       0.4884   0.3459   0.9749     O
C       0.4958   0.6591    0.417     C
C       0.5042   0.3409    0.583     C
O       0.5116   0.6541   0.0251     O
H       0.5202   0.6543   0.4852     H
C       0.5632   0.5657   0.2695     C
C       0.5726   0.3229    0.786     C
C        0.601   0.5572   0.3683     C
P       0.6256   0.3171   0.9134     P
H       0.6314   0.4938   0.2382     H
C       0.6411   0.2354   0.6345     C
C       0.6747   0.2242   0.7368     C
O       0.6872   0.4339   0.9034     O
H       0.6965   0.4837   0.4034     H
O       0.7297   0.1368   0.4938     O
O       0.7439   0.7113    0.111     O
O       0.7473   0.1607   0.9586     O
C       0.7647   0.1437   0.5818     C
U      0.76581  0.55021  0.99948     U
H       0.7683   0.1483   0.7726     H
H       0.7984   0.4162   0.5622     H
H       0.8003   0.6458   0.4944     H
C       0.8532   0.4495   0.5994     C
C       0.8555   0.5856   0.5582     C
O       0.8775    0.854   0.4827     O
O       0.9012    0.079   0.6265     O
Cu     0.90208  0.03481  0.42043    Cu
P       0.9102   0.6886  0.12475     P
H       0.9255   0.2691   0.7192     H
C       0.9278   0.3621   0.6922     C
O       0.9287   0.8326   0.1027     O
C       0.9389   0.6331   0.6108     C
H       0.9394    0.416   0.2556     H
O       0.9463   0.2065   0.3883     O
C       0.9587   0.7718   0.5653     C
C       0.9903   0.4517   0.2938     C
C       0.9916   0.5871   0.2528     C
O       0.9939   0.5879   0.0542     O
