data_I
_chemical_name_common  '/home/zhangsd/repos/MofS-CGCNN/ML/data/SSD/clean_cifs/UFISUY_clean'
_cell_length_a 14.98600
_cell_length_b 23.55200
_cell_length_c  9.05100
_cell_angle_alpha 90.00000
_cell_angle_beta  90.00000
_cell_angle_gamma 90.00000
_space_group_name_H-M_alt      'P 1'


loop_
_space_group_symop_operation_xyz
  'x, y, z' 

loop_
_atom_site_label
_atom_site_fract_x
_atom_site_fract_y
_atom_site_fract_z
_atom_site_type_symbol
O          0.0      0.0    0.772     O
O          0.0      0.5    0.272     O
O       0.0145  0.07097   0.4947     O
O       0.0145  0.57097   0.9947     O
O       0.0191  0.38005   0.2539     O
O       0.0191  0.88005   0.7539     O
C       0.0453  0.39158   0.9953     C
C       0.0453  0.89158   0.4953     C
C       0.0618  0.36221   0.1447     C
C       0.0618  0.86221   0.6447     C
Cl     0.06853  0.24569   0.8489    Cl
Cl     0.06853  0.74569   0.3489    Cl
Fe     0.07179  0.05425  0.69772    Fe
Fe     0.07179  0.55425  0.19772    Fe
O       0.0908  0.37505   0.8901     O
O       0.0908  0.87505   0.3901     O
O       0.1185  0.32291   0.1461     O
O       0.1185  0.82291   0.6461     O
O       0.1315  0.07291   0.8961     O
O       0.1315  0.57291   0.3961     O
O       0.1592  0.12505   0.6401     O
O       0.1592  0.62505   0.1401     O
Fe     0.17821  0.30425  0.94772    Fe
Fe     0.17821  0.80425  0.44772    Fe
Cl     0.18147  0.49569   0.0989    Cl
Cl     0.18147  0.99569   0.5989    Cl
C       0.1882  0.11221   0.8947     C
C       0.1882  0.61221   0.3947     C
C       0.2047  0.14158   0.7453     C
C       0.2047  0.64158   0.2453     C
O       0.2309  0.13005   0.0039     O
O       0.2309  0.63005   0.5039     O
O       0.2355  0.32097   0.7447     O
O       0.2355  0.82097   0.2447     O
O         0.25     0.25    0.022     O
O         0.25     0.75    0.522     O
O       0.2645  0.17903   0.7447     O
O       0.2645  0.67903   0.2447     O
O       0.2691  0.36995   0.0039     O
O       0.2691  0.86995   0.5039     O
C       0.2953  0.35842   0.7453     C
C       0.2953  0.85842   0.2453     C
C       0.3118  0.38779   0.8947     C
C       0.3118  0.88779   0.3947     C
Cl     0.31853  0.00431   0.0989    Cl
Cl     0.31853  0.50431   0.5989    Cl
Fe     0.32179  0.19575  0.94772    Fe
Fe     0.32179  0.69575  0.44772    Fe
O       0.3408  0.37495   0.6401     O
O       0.3408  0.87495   0.1401     O
O       0.3685  0.42709   0.8961     O
O       0.3685  0.92709   0.3961     O
O       0.3815  0.17709   0.1461     O
O       0.3815  0.67709   0.6461     O
O       0.4092  0.12495   0.8901     O
O       0.4092  0.62495   0.3901     O
Fe     0.42821  0.44575  0.69772    Fe
Fe     0.42821  0.94575  0.19772    Fe
Cl     0.43147  0.25431   0.8489    Cl
Cl     0.43147  0.75431   0.3489    Cl
C       0.4382  0.13779   0.1447     C
C       0.4382  0.63779   0.6447     C
C       0.4547  0.10842   0.9953     C
C       0.4547  0.60842   0.4953     C
O       0.4809  0.11995   0.2539     O
O       0.4809  0.61995   0.7539     O
O       0.4855  0.42903   0.4947     O
O       0.4855  0.92903   0.9947     O
O          0.5      0.0    0.272     O
O          0.5      0.5    0.772     O
O       0.5145  0.07097   0.9947     O
O       0.5145  0.57097   0.4947     O
O       0.5191  0.38005   0.7539     O
O       0.5191  0.88005   0.2539     O
C       0.5453  0.39158   0.4953     C
C       0.5453  0.89158   0.9953     C
C       0.5618  0.36221   0.6447     C
C       0.5618  0.86221   0.1447     C
Cl     0.56853  0.24569   0.3489    Cl
Cl     0.56853  0.74569   0.8489    Cl
Fe     0.57179  0.05425  0.19772    Fe
Fe     0.57179  0.55425  0.69772    Fe
O       0.5908  0.37505   0.3901     O
O       0.5908  0.87505   0.8901     O
O       0.6185  0.32291   0.6461     O
O       0.6185  0.82291   0.1461     O
O       0.6315  0.07291   0.3961     O
O       0.6315  0.57291   0.8961     O
O       0.6592  0.12505   0.1401     O
O       0.6592  0.62505   0.6401     O
Fe     0.67821  0.30425  0.44772    Fe
Fe     0.67821  0.80425  0.94772    Fe
Cl     0.68147  0.49569   0.5989    Cl
Cl     0.68147  0.99569   0.0989    Cl
C       0.6882  0.11221   0.3947     C
C       0.6882  0.61221   0.8947     C
C       0.7047  0.14158   0.2453     C
C       0.7047  0.64158   0.7453     C
O       0.7309  0.13005   0.5039     O
O       0.7309  0.63005   0.0039     O
O       0.7355  0.32097   0.2447     O
O       0.7355  0.82097   0.7447     O
O         0.75     0.25    0.522     O
O         0.75     0.75    0.022     O
O       0.7645  0.17903   0.2447     O
O       0.7645  0.67903   0.7447     O
O       0.7691  0.36995   0.5039     O
O       0.7691  0.86995   0.0039     O
C       0.7953  0.35842   0.2453     C
C       0.7953  0.85842   0.7453     C
C       0.8118  0.38779   0.3947     C
C       0.8118  0.88779   0.8947     C
Cl     0.81853  0.00431   0.5989    Cl
Cl     0.81853  0.50431   0.0989    Cl
Fe     0.82179  0.19575  0.44772    Fe
Fe     0.82179  0.69575  0.94772    Fe
O       0.8408  0.37495   0.1401     O
O       0.8408  0.87495   0.6401     O
O       0.8685  0.42709   0.3961     O
O       0.8685  0.92709   0.8961     O
O       0.8815  0.17709   0.6461     O
O       0.8815  0.67709   0.1461     O
O       0.9092  0.12495   0.3901     O
O       0.9092  0.62495   0.8901     O
Fe     0.92821  0.44575  0.19772    Fe
Fe     0.92821  0.94575  0.69772    Fe
Cl     0.93147  0.25431   0.3489    Cl
Cl     0.93147  0.75431   0.8489    Cl
C       0.9382  0.13779   0.6447     C
C       0.9382  0.63779   0.1447     C
C       0.9547  0.10842   0.4953     C
C       0.9547  0.60842   0.9953     C
O       0.9809  0.11995   0.7539     O
O       0.9809  0.61995   0.2539     O
O       0.9855  0.42903   0.9947     O
O       0.9855  0.92903   0.4947     O
