data_I
_chemical_name_common  '/home/zhangsd/repos/MofS-CGCNN/ML/data/SSD/clean_cifs/UFITEJ_clean'
_cell_length_a  9.64450
_cell_length_b 14.74700
_cell_length_c 12.31000
_cell_angle_alpha 90.00000
_cell_angle_beta  108.45700
_cell_angle_gamma 90.00000
_space_group_name_H-M_alt      'P 1'


loop_
_space_group_symop_operation_xyz
  'x, y, z' 

loop_
_atom_site_label
_atom_site_fract_x
_atom_site_fract_y
_atom_site_fract_z
_atom_site_type_symbol
O       0.0107   0.1455    0.077     O
O       0.0107   0.8545    0.577     O
O        0.059   0.0341   0.9697     O
O        0.059   0.9659   0.4697     O
C       0.0907   0.1842   0.5044     C
C       0.0907   0.8158   0.0044     C
O         0.14   0.2342   0.5892     O
O         0.14   0.7658   0.0892     O
O       0.1439   0.1115   0.3495     O
O       0.1439   0.8885   0.8495     O
C        0.191   0.1667   0.4312     C
C        0.191   0.8333   0.9312     C
O       0.2291   0.3878   0.4885     O
O       0.2291   0.6122   0.9885     O
H       0.2338   0.3493   0.7481     H
H       0.2338   0.6507   0.2481     H
O       0.2729    0.498   0.3787     O
O       0.2729    0.502   0.8787     O
O       0.3098   0.2079   0.4589     O
O       0.3098   0.7921   0.9589     O
C       0.3113    0.437   0.4527     C
C       0.3113    0.563   0.9527     C
O       0.3215   0.3597   0.7337     O
O       0.3215   0.6403   0.2337     O
Fe      0.3409  0.28969  0.60724    Fe
Fe      0.3409  0.71031  0.10724    Fe
Fe     0.44516  0.44703  0.83709    Fe
Fe     0.44516  0.55297  0.33709    Fe
Cl      0.4656  0.44904   0.2084    Cl
Cl      0.4656  0.55096   0.7084    Cl
O       0.4672   0.3531    0.972     O
O       0.4672   0.6469    0.472     O
C       0.4733    0.418   0.5041     C
C       0.4733    0.582   0.0041     C
Cl      0.4947  0.18488   0.7163    Cl
Cl      0.4947  0.81512   0.2163    Cl
O       0.5107   0.3545    0.577     O
O       0.5107   0.6455    0.077     O
O        0.559   0.4659   0.4697     O
O        0.559   0.5341   0.9697     O
C       0.5907   0.3158   0.0044     C
C       0.5907   0.6842   0.5044     C
O         0.64   0.2658   0.0892     O
O         0.64   0.7342   0.5892     O
O       0.6439   0.3885   0.8495     O
O       0.6439   0.6115   0.3495     O
C        0.691   0.3333   0.9312     C
C        0.691   0.6667   0.4312     C
O       0.7291   0.1122   0.9885     O
O       0.7291   0.8878   0.4885     O
H       0.7338   0.1507   0.2481     H
H       0.7338   0.8493   0.7481     H
O       0.7729    0.002   0.8787     O
O       0.7729    0.998   0.3787     O
O       0.8098   0.2921   0.9589     O
O       0.8098   0.7079   0.4589     O
C       0.8113    0.063   0.9527     C
C       0.8113    0.937   0.4527     C
O       0.8215   0.1403   0.2337     O
O       0.8215   0.8597   0.7337     O
Fe      0.8409  0.21031  0.10724    Fe
Fe      0.8409  0.78969  0.60724    Fe
Fe     0.94516  0.05297  0.33709    Fe
Fe     0.94516  0.94703  0.83709    Fe
Cl      0.9656  0.05096   0.7084    Cl
Cl      0.9656  0.94904   0.2084    Cl
O       0.9672   0.1469    0.472     O
O       0.9672   0.8531    0.972     O
C       0.9733    0.082   0.0041     C
C       0.9733    0.918   0.5041     C
Cl      0.9947  0.31512   0.2163    Cl
Cl      0.9947  0.68488   0.7163    Cl
