data_I
_chemical_name_common  '/home/zhangsd/repos/MofS-CGCNN/ML/data/SSD/clean_cifs/UFUNAK_clean'
_cell_length_a  4.92130
_cell_length_b 10.80110
_cell_length_c 12.80970
_cell_angle_alpha 91.32620
_cell_angle_beta  101.07500
_cell_angle_gamma 83.07990
_space_group_name_H-M_alt      'P 1'


loop_
_space_group_symop_operation_xyz
  'x, y, z' 

loop_
_atom_site_label
_atom_site_fract_x
_atom_site_fract_y
_atom_site_fract_z
_atom_site_type_symbol
C      0.03927   0.0557  0.47414     C
N      0.04971   0.1719  0.89142     N
Cu     0.05619  0.78433  0.22658    Cu
C      0.06404   0.5911  0.93088     C
C      0.07825   0.9936   0.3823     C
H       0.0787   0.0918   0.1356     H
H       0.0988   0.3664   0.4544     H
H       0.1208   0.1293   0.4934     H
C      0.13316   0.0911  0.06912     C
N      0.15829   0.6719  0.10858     N
C      0.18296    0.576  0.36032     C
H       0.1869   0.0266   0.3394     H
O      0.20248   0.3939  0.79036     O
C      0.25239   0.4003  0.49498     C
C      0.27307   0.0943  0.87374     C
O      0.28557   0.6718  0.33794     O
C      0.30958   0.5101  0.94976     C
H       0.3227   0.0948   0.8064     H
H       0.3333   0.2717   0.6104     H
C      0.33979   0.5086  0.46178     C
C      0.35982   0.0101  0.05024     C
C      0.38685   0.4213   0.8643     C
C      0.39444   0.3441  0.58808     C
C      0.39933   0.5943  0.12626     C
O      0.41212   0.8939  0.20964     O
C      0.43059   0.0144  0.95058     C
C      0.48001   0.5144  0.04942     C
H       0.5163   0.5948   0.1936     H
C      0.52255   0.9213   0.1357     C
C      0.56513   0.5557  0.52586     C
H       0.5862   0.9627   0.9356     H
N       0.6165   0.3879   0.6486     N
H       0.6274   0.6293   0.5066     H
H       0.6444   0.8664   0.5456     H
O      0.64525   0.3822   0.8765     O
H       0.6506   0.4627   0.0644     H
O      0.66313   0.0355  0.68986     O
C      0.69595   0.4936   0.6177     C
H       0.7229   0.7717   0.3896     H
C      0.75741   0.9003  0.50502     C
O      0.76875   0.8822   0.1235     O
C      0.80636   0.8441  0.41192     C
C      0.82264    0.076  0.63968     C
Cu     0.82961  0.28433  0.77342    Cu
H       0.8353   0.7271   0.9962     H
H       0.8391   0.2271   0.0038     H
H       0.8475   0.5266   0.6606     H
C      0.87801   0.0086  0.53822     C
H       0.9431   0.5918   0.8644     H
O      0.94763   0.1718  0.66206     O
N       0.9679   0.8879   0.3514     N
O      0.97327   0.5355  0.31014     O
C      0.98827   0.1708  0.98914     C
C      0.99913   0.6708  0.01086     C
