data_I
_chemical_name_common  '/home/zhangsd/repos/MofS-CGCNN/ML/data/SSD/clean_cifs/UHISOU_clean'
_cell_length_a  6.90070
_cell_length_b  7.47220
_cell_length_c  8.25210
_cell_angle_alpha 90.22700
_cell_angle_beta  108.67000
_cell_angle_gamma 93.33200
_space_group_name_H-M_alt      'P 1'


loop_
_space_group_symop_operation_xyz
  'x, y, z' 

loop_
_atom_site_label
_atom_site_fract_x
_atom_site_fract_y
_atom_site_fract_z
_atom_site_type_symbol
Mg         0.0      0.0      0.0    Mg
O      0.16376  0.22634  0.11849     O
O      0.26324  0.87625  0.04164     O
C       0.3467  0.23849  0.21637     C
C      0.41748  0.10773  0.35876     C
C       0.4219  0.84363  0.16004     C
H       0.4238   0.2907   0.5409     H
O      0.45067  0.26448  0.85359     O
C      0.45441  0.17385  0.52441     C
C       0.4634  0.93171  0.33339     C
O      0.47861  0.35781  0.20938     O
Mg         0.5      0.5      0.0    Mg
O      0.52139  0.64219  0.79062     O
C       0.5366  0.06829  0.66661     C
C      0.54559  0.82615  0.47559     C
O      0.54933  0.73552  0.14641     O
H       0.5762   0.7093   0.4591     H
C       0.5781  0.15637  0.83996     C
C      0.58252  0.89227  0.64124     C
C       0.6533  0.76151  0.78363     C
O      0.73676  0.12375  0.95836     O
O      0.83624  0.77366  0.88151     O
