data_I
_chemical_name_common  '/home/zhangsd/repos/MofS-CGCNN/ML/data/SSD/clean_cifs/UJOJIO02_clean'
_cell_length_a 13.51140
_cell_length_b 13.51140
_cell_length_c  8.05890
_cell_angle_alpha 90.00000
_cell_angle_beta  90.00000
_cell_angle_gamma 120.00000
_space_group_name_H-M_alt      'P 1'


loop_
_space_group_symop_operation_xyz
  'x, y, z' 

loop_
_atom_site_label
_atom_site_fract_x
_atom_site_fract_y
_atom_site_fract_z
_atom_site_type_symbol
H       0.0169   0.5563   0.3004     H
C      0.03282   0.6804   0.1551     C
Mn     0.03561  0.69753  0.54568    Mn
H       0.0438   0.6472    0.055     H
O      0.04843   0.2289   0.9065     O
O      0.05717  0.81372  0.74514     O
N      0.06082  0.63294   0.3022     N
H       0.0839   0.7624   0.1506     H
H       0.0887   0.2864   0.4391     H
C       0.0911  0.34533   0.6635     C
C      0.10942  0.26635   0.7799     C
N       0.1315  0.63182   0.6904     N
H       0.1342   0.6501   0.2947     H
N       0.1352  0.45571   0.1058     N
H       0.1362   0.4227   0.7086     H
N      0.13887  0.34674   0.4997     N
H       0.1553   0.4112   0.4448     H
C      0.15693  0.89058   0.7799     C
O      0.18047  0.95157   0.9065     O
O      0.18628  0.24345  0.74514     O
H       0.1977   0.9113   0.4391     H
C      0.20586  0.64593   0.7765     C
N      0.20787  0.86113   0.4997     N
C      0.21258  0.53511   0.0488     C
O       0.2289  0.18047   0.4065     O
H       0.2376   0.3215   0.1506     H
O      0.24345  0.05717  0.24514     O
C      0.25423   0.9089   0.6635     C
H       0.2559   0.8447   0.4448     H
C      0.26635  0.15693   0.2799     C
H       0.2864   0.1977   0.9391     H
H       0.2865   0.8638   0.7086     H
Mn     0.30247  0.33808  0.54568    Mn
C       0.3196  0.35242   0.1551     C
N      0.32051   0.8648   0.1058     N
H       0.3215   0.0839   0.6506     H
C      0.32253  0.78742   0.0488     C
Mn     0.33333  0.66667  0.92125    Mn
Mn     0.33808  0.03561  0.04568    Mn
C      0.34533  0.25423   0.1635     C
N      0.34674  0.20787   0.9997     N
H       0.3499   0.4841   0.2947     H
C      0.35242  0.03282   0.6551     C
H       0.3528   0.3966    0.055     H
C      0.35407  0.55993   0.7765     C
N      0.36706  0.42788   0.3022     N
N      0.36818  0.49968   0.6904     N
H       0.3966   0.0438    0.555     H
H       0.4112   0.2559   0.9448     H
H       0.4227   0.2865   0.2086     H
N      0.42788  0.06082   0.8022     N
C      0.44007  0.79414   0.7765     C
H       0.4437   0.4606   0.3004     H
N      0.45571  0.32051   0.6058     N
H       0.4606   0.0169   0.8004     H
C      0.46489  0.67747   0.0488     C
H       0.4841   0.1342   0.7947     H
N      0.49968   0.1315   0.1904     N
N      0.50032   0.8685   0.6904     N
H       0.5159   0.8658   0.2947     H
C      0.53511  0.32253   0.5488     C
H       0.5394   0.9831   0.3004     H
N      0.54429  0.67949   0.1058     N
H       0.5563   0.5394   0.8004     H
C      0.55993  0.20586   0.2765     C
N      0.57212  0.93918   0.3022     N
H       0.5773   0.7135   0.7086     H
H       0.5888   0.7441   0.4448     H
H       0.6034   0.9562    0.055     H
N      0.63182  0.50032   0.1904     N
N      0.63294  0.57212   0.8022     N
C      0.64593  0.44007   0.2765     C
H       0.6472   0.6034    0.555     H
C      0.64758  0.96718   0.1551     C
H       0.6501   0.5159   0.7947     H
N      0.65326  0.79213   0.4997     N
C      0.65467  0.74577   0.6635     C
Mn     0.66192  0.96439  0.54568    Mn
Mn     0.66667  0.33333  0.42125    Mn
C      0.67747  0.21258   0.5488     C
H       0.6785   0.9161   0.1506     H
N      0.67949   0.1352   0.6058     N
C       0.6804  0.64758   0.6551     C
Mn     0.69753  0.66192  0.04568    Mn
H       0.7135   0.1362   0.2086     H
H       0.7136   0.8023   0.4391     H
C      0.73365  0.84307   0.7799     C
H       0.7441   0.1553   0.9448     H
C      0.74577   0.0911   0.1635     C
O      0.75655  0.94283  0.74514     O
H       0.7624   0.6785   0.6506     H
O       0.7711  0.81953   0.9065     O
C      0.78742  0.46489   0.5488     C
N      0.79213  0.13887   0.9997     N
C      0.79414  0.35407   0.2765     C
H       0.8023   0.0887   0.9391     H
O      0.81372  0.75655  0.24514     O
O      0.81953  0.04843   0.4065     O
C      0.84307  0.10942   0.2799     C
H       0.8447   0.5888   0.9448     H
N      0.86113  0.65326   0.9997     N
H       0.8638   0.5773   0.2086     H
N       0.8648  0.54429   0.6058     N
H       0.8658   0.3499   0.7947     H
N       0.8685  0.36818   0.1904     N
C      0.89058  0.73365   0.2799     C
C       0.9089  0.65467   0.1635     C
H       0.9113   0.7136   0.9391     H
H       0.9161   0.2376   0.6506     H
N      0.93918  0.36706   0.8022     N
O      0.94283  0.18628  0.24514     O
O      0.95157   0.7711   0.4065     O
H       0.9562   0.3528    0.555     H
Mn     0.96439  0.30247  0.04568    Mn
C      0.96718   0.3196   0.6551     C
H       0.9831   0.4437   0.8004     H
