data_I
_chemical_name_common  '/home/zhangsd/repos/MofS-CGCNN/ML/data/SSD/clean_cifs/UJOJIO_clean'
_cell_length_a 13.51600
_cell_length_b 13.51600
_cell_length_c  8.05330
_cell_angle_alpha 90.00000
_cell_angle_beta  90.00000
_cell_angle_gamma 120.00000
_space_group_name_H-M_alt      'P 1'


loop_
_space_group_symop_operation_xyz
  'x, y, z' 

loop_
_atom_site_label
_atom_site_fract_x
_atom_site_fract_y
_atom_site_fract_z
_atom_site_type_symbol
H       0.0184   0.5571   0.3014     H
C       0.0332   0.6799   0.1556     C
Mn     0.03678  0.69837  0.54518    Mn
H       0.0441   0.6463   0.0559     H
O      0.04764  0.22904   0.9055     O
O      0.05813   0.8133   0.7459     O
N      0.06179   0.6337   0.3026     N
H       0.0842   0.7619   0.1502     H
H        0.088    0.287    0.439     H
C       0.0908   0.3458   0.6633     C
C       0.1091   0.2671   0.7793     C
N       0.1322   0.6322   0.6913     N
N       0.1341   0.4554   0.1037     N
H       0.1353   0.6514   0.2948     H
H        0.136   0.4232   0.7085     H
N       0.1383   0.3473   0.4996     N
H       0.1548   0.4118   0.4448     H
C        0.158   0.8909   0.7793     C
O       0.1814  0.95236   0.9055     O
O       0.1867  0.24483   0.7459     O
H        0.199    0.912    0.439     H
C       0.2063   0.6463   0.7771     C
N        0.209   0.8617   0.4996     N
C      0.21179   0.5345   0.0486     C
O      0.22904   0.1814   0.4055     O
H       0.2381   0.3223   0.1502     H
O      0.24483  0.05813   0.2459     O
C        0.255   0.9092   0.6633     C
H        0.257   0.8452   0.4448     H
C       0.2671    0.158   0.2793     C
H        0.287    0.199    0.939     H
H       0.2872    0.864   0.7085     H
Mn     0.30163  0.33841  0.54518    Mn
C       0.3201   0.3533   0.1556     C
N       0.3213   0.8659   0.1037     N
H       0.3223   0.0842   0.6502     H
C      0.32271  0.78821   0.0486     C
Mn     0.33333  0.66667  0.92263    Mn
Mn     0.33841  0.03678  0.04518    Mn
C       0.3458    0.255   0.1633     C
N       0.3473    0.209   0.9996     N
H       0.3486   0.4839   0.2948     H
C       0.3533   0.0332   0.6556     C
H       0.3537   0.3978   0.0559     H
C       0.3537     0.56   0.7771     C
N       0.3663  0.42809   0.3026     N
N       0.3678      0.5   0.6913     N
H       0.3978   0.0441   0.5559     H
H       0.4118    0.257   0.9448     H
H       0.4232   0.2872   0.2085     H
N      0.42809  0.06179   0.8026     N
C         0.44   0.7937   0.7771     C
H       0.4429   0.4613   0.3014     H
N       0.4554   0.3213   0.6037     N
H       0.4613   0.0184   0.8014     H
C       0.4655  0.67729   0.0486     C
H       0.4839   0.1353   0.7948     H
N          0.5   0.1322   0.1913     N
N          0.5   0.8678   0.6913     N
H       0.5161   0.8647   0.2948     H
C       0.5345  0.32271   0.5486     C
H       0.5387   0.9816   0.3014     H
N       0.5446   0.6787   0.1037     N
H       0.5571   0.5387   0.8014     H
C         0.56   0.2063   0.2771     C
N      0.57191  0.93821   0.3026     N
H       0.5768   0.7128   0.7085     H
H       0.5882    0.743   0.4448     H
H       0.6022   0.9559   0.0559     H
N       0.6322      0.5   0.1913     N
N       0.6337  0.57191   0.8026     N
C       0.6463     0.44   0.2771     C
H       0.6463   0.6022   0.5559     H
C       0.6467   0.9668   0.1556     C
H       0.6514   0.5161   0.7948     H
N       0.6527    0.791   0.4996     N
C       0.6542    0.745   0.6633     C
Mn     0.66159  0.96322  0.54518    Mn
Mn     0.66667  0.33333  0.42263    Mn
C      0.67729  0.21179   0.5486     C
H       0.6777   0.9158   0.1502     H
N       0.6787   0.1341   0.6037     N
C       0.6799   0.6467   0.6556     C
Mn     0.69837  0.66159  0.04518    Mn
H       0.7128    0.136   0.2085     H
H        0.713    0.801    0.439     H
C       0.7329    0.842   0.7793     C
H        0.743   0.1548   0.9448     H
C        0.745   0.0908   0.1633     C
O      0.75517  0.94187   0.7459     O
H       0.7619   0.6777   0.6502     H
O      0.77096   0.8186   0.9055     O
C      0.78821   0.4655   0.5486     C
N        0.791   0.1383   0.9996     N
C       0.7937   0.3537   0.2771     C
H        0.801    0.088    0.939     H
O       0.8133  0.75517   0.2459     O
O       0.8186  0.04764   0.4055     O
C        0.842   0.1091   0.2793     C
H       0.8452   0.5882   0.9448     H
N       0.8617   0.6527   0.9996     N
H        0.864   0.5768   0.2085     H
H       0.8647   0.3486   0.7948     H
N       0.8659   0.5446   0.6037     N
N       0.8678   0.3678   0.1913     N
C       0.8909   0.7329   0.2793     C
C       0.9092   0.6542   0.1633     C
H        0.912    0.713    0.939     H
H       0.9158   0.2381   0.6502     H
N      0.93821   0.3663   0.8026     N
O      0.94187   0.1867   0.2459     O
O      0.95236  0.77096   0.4055     O
H       0.9559   0.3537   0.5559     H
Mn     0.96322  0.30163  0.04518    Mn
C       0.9668   0.3201   0.6556     C
H       0.9816   0.4429   0.8014     H
