data_I
_chemical_name_common  '/home/zhangsd/repos/MofS-CGCNN/ML/data/SSD/clean_cifs/UJOKIP05_clean'
_cell_length_a 13.54160
_cell_length_b 13.54160
_cell_length_c  8.11400
_cell_angle_alpha 90.00000
_cell_angle_beta  90.00000
_cell_angle_gamma 120.00000
_space_group_name_H-M_alt      'P 1'


loop_
_space_group_symop_operation_xyz
  'x, y, z' 

loop_
_atom_site_label
_atom_site_fract_x
_atom_site_fract_y
_atom_site_fract_z
_atom_site_type_symbol
H       0.0163   0.5613   0.3034     H
C       0.0346   0.6854   0.1605     C
Mn     0.03612   0.7047  0.54425    Mn
H       0.0467   0.6531   0.0611     H
O       0.0501   0.2264   0.9075     O
O       0.0541   0.8162   0.7443     O
N        0.061   0.6376   0.3047     N
H       0.0831   0.2792   0.4411     H
H       0.0858   0.7672   0.1575     H
C       0.0867    0.339   0.6646     C
C       0.1071   0.2611   0.7808     C
N       0.1306   0.6374   0.6902     N
H       0.1324   0.4165   0.7081     H
N       0.1327   0.4512   0.1116     N
N       0.1335   0.3397   0.5005     N
H        0.134   0.6538   0.2979     H
H       0.1496   0.4037   0.4455     H
C        0.154   0.8929   0.7808     C
O       0.1763   0.9499   0.9075     O
O       0.1838   0.2379   0.7443     O
H       0.1961   0.9169   0.4411     H
C        0.201   0.6472   0.7732     C
N       0.2062   0.8665   0.5005     N
C       0.2105   0.5309   0.0607     C
O       0.2264   0.1763   0.4075     O
H       0.2328   0.3186   0.1575     H
O       0.2379   0.0541   0.2443     O
C       0.2523   0.9133   0.6646     C
H       0.2541   0.8504   0.4455     H
C       0.2611    0.154   0.2808     C
H       0.2792   0.1961   0.9411     H
H       0.2841   0.8676   0.7081     H
Mn      0.2953  0.33142  0.54425    Mn
C       0.3146   0.3492   0.1605     C
N       0.3185   0.8673   0.1116     N
H       0.3186   0.0858   0.6575     H
C       0.3204   0.7895   0.0607     C
Mn     0.33142  0.03612  0.04425    Mn
Cr     0.33333  0.66667   0.9235    Cr
C        0.339   0.2523   0.1646     C
N       0.3397   0.2062   0.0005     N
H       0.3462   0.4802   0.2979     H
H       0.3469   0.3936   0.0611     H
C       0.3492   0.0346   0.6605     C
C       0.3528   0.5538   0.7732     C
N       0.3624   0.4234   0.3047     N
N       0.3626   0.4932   0.6902     N
H       0.3936   0.0467   0.5611     H
H       0.4037   0.2541   0.9455     H
H       0.4165   0.2841   0.2081     H
N       0.4234    0.061   0.8047     N
H       0.4387    0.455   0.3034     H
C       0.4462    0.799   0.7732     C
N       0.4512   0.3185   0.6116     N
H        0.455   0.0163   0.8034     H
C       0.4691   0.6796   0.0607     C
H       0.4802    0.134   0.7979     H
N       0.4932   0.1306   0.1902     N
N       0.5068   0.8694   0.6902     N
H       0.5198    0.866   0.2979     H
C       0.5309   0.3204   0.5607     C
H        0.545   0.9837   0.3034     H
N       0.5488   0.6815   0.1116     N
C       0.5538    0.201   0.2732     C
H       0.5613    0.545   0.8034     H
N       0.5766    0.939   0.3047     N
H       0.5835   0.7159   0.7081     H
H       0.5963   0.7459   0.4455     H
H       0.6064   0.9533   0.0611     H
N       0.6374   0.5068   0.1902     N
N       0.6376   0.5766   0.8047     N
C       0.6472   0.4462   0.2732     C
C       0.6508   0.9654   0.1605     C
H       0.6531   0.6064   0.5611     H
H       0.6538   0.5198   0.7979     H
N       0.6603   0.7938   0.5005     N
C        0.661   0.7477   0.6646     C
Cr     0.66667  0.33333   0.4235    Cr
Mn     0.66858  0.96388  0.54425    Mn
C       0.6796   0.2105   0.5607     C
H       0.6814   0.9142   0.1575     H
N       0.6815   0.1327   0.6116     N
C       0.6854   0.6508   0.6605     C
Mn      0.7047  0.66858  0.04425    Mn
H       0.7159   0.1324   0.2081     H
H       0.7208   0.8039   0.4411     H
C       0.7389    0.846   0.7808     C
H       0.7459   0.1496   0.9455     H
C       0.7477   0.0867   0.1646     C
O       0.7621   0.9459   0.7443     O
H       0.7672   0.6814   0.6575     H
O       0.7736   0.8237   0.9075     O
C       0.7895   0.4691   0.5607     C
N       0.7938   0.1335   0.0005     N
C        0.799   0.3528   0.2732     C
H       0.8039   0.0831   0.9411     H
O       0.8162   0.7621   0.2443     O
O       0.8237   0.0501   0.4075     O
C        0.846   0.1071   0.2808     C
H       0.8504   0.5963   0.9455     H
H        0.866   0.3462   0.7979     H
N       0.8665   0.6603   0.0005     N
N       0.8673   0.5488   0.6116     N
H       0.8676   0.5835   0.2081     H
N       0.8694   0.3626   0.1902     N
C       0.8929   0.7389   0.2808     C
C       0.9133    0.661   0.1646     C
H       0.9142   0.2328   0.6575     H
H       0.9169   0.7208   0.9411     H
N        0.939   0.3624   0.8047     N
O       0.9459   0.1838   0.2443     O
O       0.9499   0.7736   0.4075     O
H       0.9533   0.3469   0.5611     H
Mn     0.96388   0.2953  0.04425    Mn
C       0.9654   0.3146   0.6605     C
H       0.9837   0.4387   0.8034     H
