data_I
_chemical_name_common  '/home/zhangsd/repos/MofS-CGCNN/ML/data/SSD/clean_cifs/UJOKIP04_clean'
_cell_length_a 13.55540
_cell_length_b 13.55540
_cell_length_c  8.13510
_cell_angle_alpha 90.00000
_cell_angle_beta  90.00000
_cell_angle_gamma 120.00000
_space_group_name_H-M_alt      'P 1'


loop_
_space_group_symop_operation_xyz
  'x, y, z' 

loop_
_atom_site_label
_atom_site_fract_x
_atom_site_fract_y
_atom_site_fract_z
_atom_site_type_symbol
H       0.0163   0.5621   0.3034     H
C       0.0351   0.6864   0.1615     C
Mn     0.03645   0.7053   0.5445    Mn
H       0.0477   0.6547   0.0621     H
O         0.05   0.2268   0.9073     O
O       0.0546   0.8171   0.7449     O
N       0.0612   0.6383    0.305     N
H       0.0815    0.278   0.4422     H
H       0.0859   0.7682   0.1593     H
C       0.0863    0.339   0.6655     C
C       0.1066   0.2612   0.7813     C
N       0.1308   0.6384   0.6909     N
H       0.1319   0.4166   0.7084     H
N       0.1321   0.3388   0.5006     N
N       0.1328   0.4521   0.1111     N
H       0.1339   0.6541   0.2981     H
H       0.1478   0.4025   0.4452     H
C       0.1546   0.8934   0.7813     C
O       0.1768     0.95   0.9073     O
O       0.1829   0.2375   0.7449     O
H       0.1965   0.9185   0.4422     H
C       0.2015    0.648   0.7728     C
N       0.2067   0.8679   0.5006     N
C       0.2103   0.5313   0.0595     C
O       0.2268   0.1768   0.4073     O
H       0.2318   0.3177   0.1593     H
O       0.2375   0.0546   0.2449     O
C       0.2527   0.9137   0.6655     C
H       0.2547   0.8522   0.4452     H
C       0.2612   0.1546   0.2813     C
H        0.278   0.1965   0.9422     H
H       0.2847   0.8681   0.7084     H
Mn      0.2947  0.33115   0.5445    Mn
C       0.3136   0.3487   0.1615     C
H       0.3177   0.0859   0.6593     H
N       0.3193   0.8672   0.1111     N
C        0.321   0.7897   0.0595     C
Mn     0.33115  0.03645   0.0445    Mn
Cr     0.33333  0.66667    0.923    Cr
N       0.3388   0.2067   0.0006     N
C        0.339   0.2527   0.1655     C
H       0.3453    0.393   0.0621     H
H       0.3459   0.4798   0.2981     H
C       0.3487   0.0351   0.6615     C
C        0.352   0.5535   0.7728     C
N       0.3616   0.4924   0.6909     N
N       0.3617   0.4229    0.305     N
H        0.393   0.0477   0.5621     H
H       0.4025   0.2547   0.9452     H
H       0.4166   0.2847   0.2084     H
N       0.4229   0.0612    0.805     N
H       0.4379   0.4542   0.3034     H
C       0.4465   0.7985   0.7728     C
N       0.4521   0.3193   0.6111     N
H       0.4542   0.0163   0.8034     H
C       0.4687    0.679   0.0595     C
H       0.4798   0.1339   0.7981     H
N       0.4924   0.1308   0.1909     N
N       0.5076   0.8692   0.6909     N
H       0.5202   0.8661   0.2981     H
C       0.5313    0.321   0.5595     C
H       0.5458   0.9837   0.3034     H
N       0.5479   0.6807   0.1111     N
C       0.5535   0.2015   0.2728     C
H       0.5621   0.5458   0.8034     H
N       0.5771   0.9388    0.305     N
H       0.5834   0.7153   0.7084     H
H       0.5975   0.7453   0.4452     H
H        0.607   0.9523   0.0621     H
N       0.6383   0.5771    0.805     N
N       0.6384   0.5076   0.1909     N
C        0.648   0.4465   0.2728     C
C       0.6513   0.9649   0.1615     C
H       0.6541   0.5202   0.7981     H
H       0.6547    0.607   0.5621     H
C        0.661   0.7473   0.6655     C
N       0.6612   0.7933   0.5006     N
Cr     0.66667  0.33333    0.423    Cr
Mn     0.66885  0.96355   0.5445    Mn
C        0.679   0.2103   0.5595     C
N       0.6807   0.1328   0.6111     N
H       0.6823   0.9141   0.1593     H
C       0.6864   0.6513   0.6615     C
Mn      0.7053  0.66885   0.0445    Mn
H       0.7153   0.1319   0.2084     H
H        0.722   0.8035   0.4422     H
C       0.7388   0.8454   0.7813     C
H       0.7453   0.1478   0.9452     H
C       0.7473   0.0863   0.1655     C
O       0.7625   0.9454   0.7449     O
H       0.7682   0.6823   0.6593     H
O       0.7732   0.8232   0.9073     O
C       0.7897   0.4687   0.5595     C
N       0.7933   0.1321   0.0006     N
C       0.7985    0.352   0.2728     C
H       0.8035   0.0815   0.9422     H
O       0.8171   0.7625   0.2449     O
O       0.8232     0.05   0.4073     O
C       0.8454   0.1066   0.2813     C
H       0.8522   0.5975   0.9452     H
H       0.8661   0.3459   0.7981     H
N       0.8672   0.5479   0.6111     N
N       0.8679   0.6612   0.0006     N
H       0.8681   0.5834   0.2084     H
N       0.8692   0.3616   0.1909     N
C       0.8934   0.7388   0.2813     C
C       0.9137    0.661   0.1655     C
H       0.9141   0.2318   0.6593     H
H       0.9185    0.722   0.9422     H
N       0.9388   0.3617    0.805     N
O       0.9454   0.1829   0.2449     O
O         0.95   0.7732   0.4073     O
H       0.9523   0.3453   0.5621     H
Mn     0.96355   0.2947   0.0445    Mn
C       0.9649   0.3136   0.6615     C
H       0.9837   0.4379   0.8034     H
