data_I
_chemical_name_common  '/home/zhangsd/repos/MofS-CGCNN/ML/data/SSD/clean_cifs/UKIQOV_clean'
_cell_length_a 18.43100
_cell_length_b 18.43100
_cell_length_c 40.52000
_cell_angle_alpha 90.00000
_cell_angle_beta  90.00000
_cell_angle_gamma 120.00000
_space_group_name_H-M_alt      'P 1'


loop_
_space_group_symop_operation_xyz
  'x, y, z' 

loop_
_atom_site_label
_atom_site_fract_x
_atom_site_fract_y
_atom_site_fract_z
_atom_site_type_symbol
O       0.0095   0.1317  0.71525     O
O       0.0095   0.1317  0.78475     O
O       0.0095   0.8778  0.71525     O
O       0.0095   0.8778  0.78475     O
H       0.0114   0.2234   0.6732     H
H       0.0114   0.2234   0.8268     H
H       0.0114    0.788   0.6732     H
H       0.0114    0.788   0.8268     H
O       0.0264   0.4379  0.54332     O
O       0.0264   0.4379  0.95668     O
O       0.0264   0.5885  0.54332     O
O       0.0264   0.5885  0.95668     O
H       0.0436   0.2892   0.6199     H
H       0.0436   0.2892   0.8801     H
H       0.0436   0.7544   0.6199     H
H       0.0436   0.7544   0.8801     H
Cu     0.04786  0.52393  0.02601    Cu
Cu     0.04786  0.52393  0.47399    Cu
Co     0.05813  0.11626     0.25    Co
Co     0.05813  0.94187     0.25    Co
C       0.0605   0.2336   0.6628     C
C       0.0605   0.2336   0.8372     C
C       0.0605   0.8269   0.6628     C
C       0.0605   0.8269   0.8372     C
H       0.0746   0.3672   0.5826     H
H       0.0746   0.3672   0.9174     H
H       0.0746   0.7074   0.5826     H
H       0.0746   0.7074   0.9174     H
C       0.0768   0.1536   0.7043     C
C       0.0768   0.1536   0.7957     C
C       0.0768   0.9232   0.7043     C
C       0.0768   0.9232   0.7957     C
C       0.0832   0.2805   0.6306     C
C       0.0832   0.2805   0.8694     C
C       0.0832   0.8027   0.6306     C
C       0.0832   0.8027   0.8694     C
C       0.0911   0.4492   0.5266     C
C       0.0911   0.4492   0.9734     C
C       0.0911   0.6419   0.5266     C
C       0.0911   0.6419   0.9734     C
C       0.1039   0.2078    0.676     C
C       0.1039   0.2078    0.824     C
C       0.1039   0.8961    0.676     C
C       0.1039   0.8961    0.824     C
O       0.1097   0.4815  0.00233     O
O       0.1097   0.4815  0.49767     O
O       0.1097   0.6282  0.00233     O
O       0.1097   0.6282  0.49767     O
Co     0.11626  0.05813     0.75    Co
O       0.1222   0.1317  0.71525     O
O       0.1222   0.1317  0.78475     O
O       0.1222   0.9905  0.71525     O
O       0.1222   0.9905  0.78475     O
C        0.125   0.3804  0.57245     C
C        0.125   0.3804  0.92755     C
C        0.125   0.7446  0.57245     C
C        0.125   0.7446  0.92755     C
O       0.1317   0.0095  0.21525     O
O       0.1317   0.0095  0.28475     O
O       0.1317   0.1222  0.21525     O
O       0.1317   0.1222  0.28475     O
C       0.1457   0.4235   0.5429     C
C       0.1457   0.4235   0.9571     C
C       0.1457   0.7222   0.5429     C
C       0.1457   0.7222   0.9571     C
C       0.1536   0.0768   0.2043     C
C       0.1536   0.0768   0.2957     C
C        0.154    0.308    0.618     C
C        0.154    0.308    0.882     C
C        0.154    0.846    0.618     C
C        0.154    0.846    0.882     C
C       0.1731   0.2336   0.6628     C
C       0.1731   0.2336   0.8372     C
C       0.1731   0.9395   0.6628     C
C       0.1731   0.9395   0.8372     C
C        0.178    0.356   0.5876     C
C        0.178    0.356   0.9124     C
C        0.178    0.822   0.5876     C
C        0.178    0.822   0.9124     C
C       0.1973   0.2805   0.6306     C
C       0.1973   0.2805   0.8694     C
C       0.1973   0.9168   0.6306     C
C       0.1973   0.9168   0.8694     C
C       0.2078   0.1039    0.176     C
C       0.2078   0.1039    0.324     C
H        0.212   0.2234   0.6732     H
H        0.212   0.2234   0.8268     H
H        0.212   0.9886   0.6732     H
H        0.212   0.9886   0.8268     H
C       0.2221   0.4442   0.5286     C
C       0.2221   0.4442   0.9714     C
C       0.2221   0.7779   0.5286     C
C       0.2221   0.7779   0.9714     C
H       0.2234   0.0114   0.1732     H
H       0.2234   0.0114   0.3268     H
H       0.2234    0.212   0.1732     H
H       0.2234    0.212   0.3268     H
C       0.2336   0.0605   0.1628     C
C       0.2336   0.0605   0.3372     C
C       0.2336   0.1731   0.1628     C
C       0.2336   0.1731   0.3372     C
H       0.2365    0.473   0.5086     H
H       0.2365    0.473   0.9914     H
H       0.2365   0.7635   0.5086     H
H       0.2365   0.7635   0.9914     H
H       0.2456   0.2892   0.6199     H
H       0.2456   0.2892   0.8801     H
H       0.2456   0.9564   0.6199     H
H       0.2456   0.9564   0.8801     H
C       0.2554   0.3804  0.57245     C
C       0.2554   0.3804  0.92755     C
C       0.2554    0.875  0.57245     C
C       0.2554    0.875  0.92755     C
C       0.2778   0.4235   0.5429     C
C       0.2778   0.4235   0.9571     C
C       0.2778   0.8543   0.5429     C
C       0.2778   0.8543   0.9571     C
C       0.2805   0.0832   0.1306     C
C       0.2805   0.0832   0.3694     C
C       0.2805   0.1973   0.1306     C
C       0.2805   0.1973   0.3694     C
H       0.2892   0.0436   0.1199     H
H       0.2892   0.0436   0.3801     H
H       0.2892   0.2456   0.1199     H
H       0.2892   0.2456   0.3801     H
H       0.2926   0.3672   0.5826     H
H       0.2926   0.3672   0.9174     H
H       0.2926   0.9254   0.5826     H
H       0.2926   0.9254   0.9174     H
C        0.308    0.154    0.118     C
C        0.308    0.154    0.382     C
C        0.356    0.178   0.0876     C
C        0.356    0.178   0.4124     C
C       0.3581   0.4492   0.5266     C
C       0.3581   0.4492   0.9734     C
C       0.3581   0.9089   0.5266     C
C       0.3581   0.9089   0.9734     C
H       0.3672   0.0746   0.0826     H
H       0.3672   0.0746   0.4174     H
H       0.3672   0.2926   0.0826     H
H       0.3672   0.2926   0.4174     H
O       0.3718   0.4815  0.00233     O
O       0.3718   0.4815  0.49767     O
O       0.3718   0.8903  0.00233     O
O       0.3718   0.8903  0.49767     O
C       0.3804    0.125  0.07245     C
C       0.3804    0.125  0.42755     C
C       0.3804   0.2554  0.07245     C
C       0.3804   0.2554  0.42755     C
O       0.4115   0.4379  0.54332     O
O       0.4115   0.4379  0.95668     O
O       0.4115   0.9736  0.54332     O
O       0.4115   0.9736  0.95668     O
C       0.4235   0.1457   0.0429     C
C       0.4235   0.1457   0.4571     C
C       0.4235   0.2778   0.0429     C
C       0.4235   0.2778   0.4571     C
O       0.4379   0.0264  0.04332     O
O       0.4379   0.0264  0.45668     O
O       0.4379   0.4115  0.04332     O
O       0.4379   0.4115  0.45668     O
C       0.4442   0.2221   0.0286     C
C       0.4442   0.2221   0.4714     C
C       0.4492   0.0911   0.0266     C
C       0.4492   0.0911   0.4734     C
C       0.4492   0.3581   0.0266     C
C       0.4492   0.3581   0.4734     C
H        0.473   0.2365   0.0086     H
H        0.473   0.2365   0.4914     H
Cu     0.47607  0.52393  0.02601    Cu
Cu     0.47607  0.52393  0.47399    Cu
Cu     0.47607  0.95214  0.02601    Cu
Cu     0.47607  0.95214  0.47399    Cu
O       0.4815   0.1097  0.50233     O
O       0.4815   0.1097  0.99767     O
O       0.4815   0.3718  0.50233     O
O       0.4815   0.3718  0.99767     O
O       0.5185   0.6282  0.00233     O
O       0.5185   0.6282  0.49767     O
O       0.5185   0.8903  0.00233     O
O       0.5185   0.8903  0.49767     O
Cu     0.52393  0.04786  0.52601    Cu
Cu     0.52393  0.04786  0.97399    Cu
Cu     0.52393  0.47607  0.52601    Cu
Cu     0.52393  0.47607  0.97399    Cu
H        0.527   0.7635   0.5086     H
H        0.527   0.7635   0.9914     H
C       0.5508   0.6419   0.5266     C
C       0.5508   0.6419   0.9734     C
C       0.5508   0.9089   0.5266     C
C       0.5508   0.9089   0.9734     C
C       0.5558   0.7779   0.5286     C
C       0.5558   0.7779   0.9714     C
O       0.5621   0.5885  0.54332     O
O       0.5621   0.5885  0.95668     O
O       0.5621   0.9736  0.54332     O
O       0.5621   0.9736  0.95668     O
C       0.5765   0.7222   0.5429     C
C       0.5765   0.7222   0.9571     C
C       0.5765   0.8543   0.5429     C
C       0.5765   0.8543   0.9571     C
O       0.5885   0.0264  0.04332     O
O       0.5885   0.0264  0.45668     O
O       0.5885   0.5621  0.04332     O
O       0.5885   0.5621  0.45668     O
C       0.6196   0.7446  0.57245     C
C       0.6196   0.7446  0.92755     C
C       0.6196    0.875  0.57245     C
C       0.6196    0.875  0.92755     C
O       0.6282   0.1097  0.50233     O
O       0.6282   0.1097  0.99767     O
O       0.6282   0.5185  0.50233     O
O       0.6282   0.5185  0.99767     O
H       0.6328   0.7074   0.5826     H
H       0.6328   0.7074   0.9174     H
H       0.6328   0.9254   0.5826     H
H       0.6328   0.9254   0.9174     H
C       0.6419   0.0911   0.0266     C
C       0.6419   0.0911   0.4734     C
C       0.6419   0.5508   0.0266     C
C       0.6419   0.5508   0.4734     C
C        0.644    0.822   0.5876     C
C        0.644    0.822   0.9124     C
C        0.692    0.846    0.618     C
C        0.692    0.846    0.882     C
H       0.7074   0.0746   0.0826     H
H       0.7074   0.0746   0.4174     H
H       0.7074   0.6328   0.0826     H
H       0.7074   0.6328   0.4174     H
H       0.7108   0.7544   0.6199     H
H       0.7108   0.7544   0.8801     H
H       0.7108   0.9564   0.6199     H
H       0.7108   0.9564   0.8801     H
C       0.7195   0.8027   0.6306     C
C       0.7195   0.8027   0.8694     C
C       0.7195   0.9168   0.6306     C
C       0.7195   0.9168   0.8694     C
C       0.7222   0.1457   0.0429     C
C       0.7222   0.1457   0.4571     C
C       0.7222   0.5765   0.0429     C
C       0.7222   0.5765   0.4571     C
C       0.7446    0.125  0.07245     C
C       0.7446    0.125  0.42755     C
C       0.7446   0.6196  0.07245     C
C       0.7446   0.6196  0.42755     C
H       0.7544   0.0436   0.1199     H
H       0.7544   0.0436   0.3801     H
H       0.7544   0.7108   0.1199     H
H       0.7544   0.7108   0.3801     H
H       0.7635   0.2365   0.0086     H
H       0.7635   0.2365   0.4914     H
H       0.7635    0.527   0.0086     H
H       0.7635    0.527   0.4914     H
C       0.7664   0.8269   0.6628     C
C       0.7664   0.8269   0.8372     C
C       0.7664   0.9395   0.6628     C
C       0.7664   0.9395   0.8372     C
H       0.7766    0.788   0.6732     H
H       0.7766    0.788   0.8268     H
H       0.7766   0.9886   0.6732     H
H       0.7766   0.9886   0.8268     H
C       0.7779   0.2221   0.0286     C
C       0.7779   0.2221   0.4714     C
C       0.7779   0.5558   0.0286     C
C       0.7779   0.5558   0.4714     C
H        0.788   0.0114   0.1732     H
H        0.788   0.0114   0.3268     H
H        0.788   0.7766   0.1732     H
H        0.788   0.7766   0.3268     H
C       0.7922   0.8961    0.676     C
C       0.7922   0.8961    0.824     C
C       0.8027   0.0832   0.1306     C
C       0.8027   0.0832   0.3694     C
C       0.8027   0.7195   0.1306     C
C       0.8027   0.7195   0.3694     C
C        0.822    0.178   0.0876     C
C        0.822    0.178   0.4124     C
C        0.822    0.644   0.0876     C
C        0.822    0.644   0.4124     C
C       0.8269   0.0605   0.1628     C
C       0.8269   0.0605   0.3372     C
C       0.8269   0.7664   0.1628     C
C       0.8269   0.7664   0.3372     C
C        0.846    0.154    0.118     C
C        0.846    0.154    0.382     C
C        0.846    0.692    0.118     C
C        0.846    0.692    0.382     C
C       0.8464   0.9232   0.7043     C
C       0.8464   0.9232   0.7957     C
C       0.8543   0.2778   0.0429     C
C       0.8543   0.2778   0.4571     C
C       0.8543   0.5765   0.0429     C
C       0.8543   0.5765   0.4571     C
O       0.8683   0.8778  0.71525     O
O       0.8683   0.8778  0.78475     O
O       0.8683   0.9905  0.71525     O
O       0.8683   0.9905  0.78475     O
C        0.875   0.2554  0.07245     C
C        0.875   0.2554  0.42755     C
C        0.875   0.6196  0.07245     C
C        0.875   0.6196  0.42755     C
O       0.8778   0.0095  0.21525     O
O       0.8778   0.0095  0.28475     O
O       0.8778   0.8683  0.21525     O
O       0.8778   0.8683  0.28475     O
Co     0.88374  0.94187     0.25    Co
O       0.8903   0.3718  0.50233     O
O       0.8903   0.3718  0.99767     O
O       0.8903   0.5185  0.50233     O
O       0.8903   0.5185  0.99767     O
C       0.8961   0.1039    0.176     C
C       0.8961   0.1039    0.324     C
C       0.8961   0.7922    0.176     C
C       0.8961   0.7922    0.324     C
C       0.9089   0.3581   0.0266     C
C       0.9089   0.3581   0.4734     C
C       0.9089   0.5508   0.0266     C
C       0.9089   0.5508   0.4734     C
C       0.9168   0.1973   0.1306     C
C       0.9168   0.1973   0.3694     C
C       0.9168   0.7195   0.1306     C
C       0.9168   0.7195   0.3694     C
C       0.9232   0.0768   0.2043     C
C       0.9232   0.0768   0.2957     C
C       0.9232   0.8464   0.2043     C
C       0.9232   0.8464   0.2957     C
H       0.9254   0.2926   0.0826     H
H       0.9254   0.2926   0.4174     H
H       0.9254   0.6328   0.0826     H
H       0.9254   0.6328   0.4174     H
C       0.9395   0.1731   0.1628     C
C       0.9395   0.1731   0.3372     C
C       0.9395   0.7664   0.1628     C
C       0.9395   0.7664   0.3372     C
Co     0.94187  0.05813     0.75    Co
Co     0.94187  0.88374     0.75    Co
Cu     0.95214  0.47607  0.52601    Cu
Cu     0.95214  0.47607  0.97399    Cu
H       0.9564   0.2456   0.1199     H
H       0.9564   0.2456   0.3801     H
H       0.9564   0.7108   0.1199     H
H       0.9564   0.7108   0.3801     H
O       0.9736   0.4115  0.04332     O
O       0.9736   0.4115  0.45668     O
O       0.9736   0.5621  0.04332     O
O       0.9736   0.5621  0.45668     O
H       0.9886    0.212   0.1732     H
H       0.9886    0.212   0.3268     H
H       0.9886   0.7766   0.1732     H
H       0.9886   0.7766   0.3268     H
O       0.9905   0.1222  0.21525     O
O       0.9905   0.1222  0.28475     O
O       0.9905   0.8683  0.21525     O
O       0.9905   0.8683  0.28475     O
