data_I
_chemical_name_common  '/home/zhangsd/repos/MofS-CGCNN/ML/data/SSD/clean_cifs/UKUPIB_clean'
_cell_length_a 14.61500
_cell_length_b 16.58500
_cell_length_c 20.55900
_cell_angle_alpha 99.33000
_cell_angle_beta  107.46000
_cell_angle_gamma 100.74000
_space_group_name_H-M_alt      'P 1'


loop_
_space_group_symop_operation_xyz
  'x, y, z' 

loop_
_atom_site_label
_atom_site_fract_x
_atom_site_fract_y
_atom_site_fract_z
_atom_site_type_symbol
Mn         0.0      0.0      0.0    Mn
C       0.0007   0.1559   0.4617     C
C       0.0025   0.9202   0.5199     C
O       0.0049   0.6913   0.5837     O
O       0.0061   0.9885  0.88763     O
O       0.0073   0.4215   0.2443     O
Mn     0.00992  0.39337   0.3437    Mn
H       0.0151   0.4766   0.8385     H
O       0.0159   0.7079    0.823     O
O       0.0159   0.7536   0.6894     O
C       0.0162   0.6313   0.8131     C
C       0.0163   0.7575   0.6273     C
H       0.0217   0.2067    0.497     H
C       0.0271   0.8412   0.6091     C
C       0.0318   0.9951   0.5729     C
C       0.0331   0.0772   0.5537     C
O       0.0441   0.3514   0.8924     O
C       0.0488   0.5192   0.8804     C
O       0.0515   0.8963   0.8213     O
C       0.0555   0.9142   0.6615     C
C        0.057   0.6023   0.8792     C
C       0.0582   0.9915   0.6422     C
O       0.0584   0.1431    0.601     O
Mn     0.06038  0.22073  0.23775    Mn
H       0.0634   0.2562   0.9784     H
C       0.0702   0.9599   0.8646     C
H       0.0726   0.9118   0.7094     H
O       0.0779   0.1332   0.0389     O
H       0.0787   0.0422   0.6775     H
C       0.0836   0.4062   0.9476     C
C       0.0914    0.497    0.945     C
C       0.0998   0.2993   0.0195     C
C       0.1045   0.6651   0.9423     C
H       0.1062   0.7227   0.9426     H
C       0.1118   0.1914   0.0915     C
C       0.1197   0.3863   0.0162     C
O       0.1299   0.9554   0.0262     O
O       0.1306   0.1813   0.1532     O
C       0.1345   0.2794   0.0834     C
C       0.1417   0.5602   0.0054     C
O       0.1456    0.137  0.28454     O
C       0.1475   0.6424    0.002     C
H       0.1484   0.1138     0.95     H
Mn     0.14861  0.06266  0.18266    Mn
H       0.1597   0.1891   0.4052     H
O       0.1635   0.4052   0.3744     O
C       0.1709    0.449   0.0745     C
C       0.1753   0.0142   0.8961     C
C       0.1831   0.5389   0.0729     C
H       0.1832   0.6853   0.0434     H
C       0.1879   0.3433   0.1414     C
O       0.1924   0.3208   0.2915     O
C       0.1986   0.0912   0.9392     C
H       0.2058   0.8473   0.9824     H
C       0.2068   0.4275   0.1394     C
H       0.2132   0.3291   0.1851     H
C       0.2172    0.985   0.0691     C
C       0.2177   0.3858   0.3401     C
H       0.2201     0.28   0.5187     H
C       0.2269   0.2207   0.4231     C
H       0.2338   0.9285   0.8475     H
O       0.2358   0.5941   0.1263     O
O       0.2399   0.0388    0.126     O
C       0.2407   0.1562   0.3128     C
H       0.2433     0.47   0.1809     H
C       0.2508    0.982   0.8789     C
C       0.2609   0.2763   0.4906     C
C       0.2735   0.8756   0.0064     C
C       0.2822   0.2102   0.3837     C
O       0.2908   0.1298   0.2789     O
C       0.2978   0.9514   0.0531     C
C       0.2985   0.1377    0.968     C
H       0.3074   0.5205   0.4464     H
H       0.3143   0.1924   0.9975     H
C       0.3183   0.4427    0.361     C
H       0.3312   0.7855   0.9613     H
O        0.347   0.3969    0.619     O
C       0.3476   0.8387   0.9931     C
C       0.3486   0.0277   0.9071     C
C       0.3499   0.5109   0.4204     C
H       0.3563   0.3888    0.282     H
C       0.3603    0.326   0.5133     C
C       0.3733   0.1069   0.9551     C
C       0.3784   0.4339   0.3225     C
C       0.3811   0.2562    0.408     C
C       0.3943   0.9935   0.0883     C
C        0.397   0.3903   0.5799     C
O       0.4049   0.9238    0.848     O
H       0.4102   0.0452   0.1219     H
C       0.4194   0.3144   0.4727     C
H       0.4221   0.2478   0.3807     H
O       0.4245   0.6463   0.5368     O
C       0.4257   0.9912   0.8907     C
C        0.444   0.8825   0.0278     C
C        0.445   0.5637   0.4402     C
C       0.4703    0.488   0.3401     C
C        0.471   0.9601   0.0746     C
C       0.4751   0.1547   0.9857     C
C       0.4768   0.6318   0.5019     C
H       0.4889   0.5203   0.6874     H
C       0.4975    0.445   0.6013     C
O       0.4978   0.2244   0.0279     O
O       0.5022   0.7756   0.9721     O
C       0.5025    0.555   0.3987     C
H       0.5111   0.4797   0.3126     H
C       0.5232   0.3682   0.4981     C
C       0.5249   0.8453   0.0143     C
C        0.529   0.0399   0.9254     C
C       0.5297    0.512   0.6599     C
C        0.555   0.4363   0.5598     C
C        0.556   0.1175   0.9722     C
C       0.5743   0.0088   0.1093     C
O       0.5755   0.3537   0.4632     O
H       0.5779   0.7522   0.6193     H
C       0.5806   0.6856   0.5273     C
H       0.5898   0.9548   0.8781     H
O       0.5951   0.0762    0.152     O
C        0.603   0.6097   0.4201     C
C       0.6057   0.0065   0.9117     C
C       0.6189   0.7438    0.592     C
C       0.6216   0.5661   0.6775     C
C       0.6267   0.8931   0.0449     C
C       0.6397    0.674   0.4867     C
H       0.6437   0.6112    0.718     H
C       0.6501   0.4891   0.5796     C
C       0.6514   0.9723   0.0929     C
C       0.6524   0.1613   0.0069     C
O        0.653   0.6031    0.381     O
H       0.6688   0.2145   0.0387     H
C       0.6817   0.5573    0.639     C
H       0.6857   0.8076   0.0025     H
H       0.6926   0.4795   0.5536     H
C       0.7015   0.8623    0.032     C
C       0.7022   0.0486   0.9469     C
O       0.7092   0.8702   0.7211     O
C       0.7178   0.7898   0.6163     C
C       0.7265   0.1244   0.9936     C
C       0.7391   0.7237   0.5094     C
C       0.7492    0.018   0.1211     C
H       0.7567     0.53   0.8191     H
C       0.7593   0.8438   0.6872     C
O       0.7601   0.9612    0.874     O
O       0.7642   0.4059   0.8737     O
H       0.7662   0.0715   0.1525     H
C       0.7731   0.7793   0.5769     C
H       0.7799     0.72   0.4813     H
C       0.7823   0.6142   0.6599     C
C       0.7828    0.015   0.9309     C
H       0.7868   0.6709   0.8149     H
C       0.7932   0.5725   0.8606     C
H       0.7942   0.1527   0.0176     H
C       0.8014   0.9088   0.0608     C
O       0.8076   0.6792   0.7085     O
C       0.8121   0.6567   0.8586     C
H       0.8168   0.3147   0.9566     H
C       0.8169   0.4611   0.9271     C
C       0.8247   0.9858   0.1039     C
C       0.8291    0.551   0.9255     C
O       0.8365   0.5948   0.6256     O
H       0.8403   0.8109   0.5948     H
Mn     0.85139  0.93734  0.81734    Mn
H       0.8516   0.8862     0.05     H
C       0.8525   0.3576    0.998     C
O       0.8544    0.863  0.71546     O
C       0.8583   0.4398   0.9946     C
C       0.8655   0.7206   0.9166     C
O       0.8694   0.8187   0.8468     O
O       0.8701   0.0446   0.9738     O
C       0.8803   0.6137   0.9838     C
C       0.8882   0.8086   0.9085     C
H       0.8938   0.2773   0.0574     H
C       0.8955   0.3349   0.0577     C
C       0.9002   0.7007   0.9805     C
C       0.9086    0.503    0.055     C
C       0.9164   0.5938   0.0524     C
H       0.9213   0.9578   0.3225     H
O       0.9221   0.8668   0.9611     O
H       0.9274   0.0882   0.2906     H
C       0.9298   0.0401   0.1354     C
H       0.9366   0.7438   0.0216     H
Mn     0.93962  0.77927  0.76225    Mn
O       0.9416   0.8569    0.399     O
C       0.9418   0.0085   0.3578     C
C        0.943   0.3977   0.1208     C
C       0.9445   0.0858   0.3385     C
O       0.9485   0.1037   0.1787     O
C       0.9512   0.4808   0.1196     C
O       0.9559   0.6486   0.1076     O
C       0.9669   0.9228   0.4463     C
C       0.9682   0.0049   0.4271     C
C       0.9729   0.1588   0.3909     C
H       0.9783   0.7933    0.503     H
C       0.9837   0.2425   0.3727     C
C       0.9838   0.3687   0.1869     C
O       0.9841   0.2464   0.3106     O
O       0.9841   0.2921    0.177     O
H       0.9849   0.5234   0.1615     H
Mn     0.99008  0.60663   0.6563    Mn
O       0.9927   0.5785   0.7557     O
O       0.9939   0.0115  0.11237     O
O       0.9951   0.3087   0.4163     O
C       0.9975   0.0798   0.4801     C
C       0.9993   0.8441   0.5383     C
