data_I
_chemical_name_common  '/home/zhangsd/repos/MofS-CGCNN/ML/data/SSD/clean_cifs/UMEKEE_clean'
_cell_length_a 31.92800
_cell_length_b 16.00300
_cell_length_c 10.32900
_cell_angle_alpha 90.00000
_cell_angle_beta  90.00000
_cell_angle_gamma 90.00000
_space_group_name_H-M_alt      'P 1'


loop_
_space_group_symop_operation_xyz
  'x, y, z' 

loop_
_atom_site_label
_atom_site_fract_x
_atom_site_fract_y
_atom_site_fract_z
_atom_site_type_symbol
C      0.00766   0.5149   0.0596     C
C      0.00766   0.9851   0.0596     C
H       0.0097   0.0388   0.7553     H
H       0.0097   0.4612   0.7553     H
C      0.01988   0.0224   0.8357     C
C      0.01988   0.4776   0.8357     C
C      0.05126    0.533   0.0705     C
C      0.05126    0.967   0.0705     C
H       0.0619   0.5521   0.1489     H
H       0.0619   0.9479   0.1489     H
C      0.06221   0.0052   0.8496     C
C      0.06221   0.4948   0.8496     C
C      0.07787   0.5221   0.9676     C
C      0.07787   0.9779   0.9676     C
H       0.0803   0.0123   0.7798     H
H       0.0803   0.4877   0.7798     H
C      0.12363   0.5443   0.9815     C
C      0.12363   0.9557   0.9815     C
O      0.13642   0.5809   0.0835     O
O      0.13642   0.9191   0.0835     O
H       0.1459   0.7013   0.0264     H
H       0.1459   0.7987   0.0264     H
O      0.14739   0.5266   0.8857     O
O      0.14739   0.9734   0.8857     O
N      0.15838     0.75   0.0063     N
H       0.1903   0.5891   0.1941     H
H       0.1903   0.9109   0.1941     H
C      0.19629     0.75   0.9436     C
Zn     0.20653  0.55792  0.89859    Zn
Zn     0.20653  0.94208  0.89859    Zn
N      0.20756   0.5636   0.6216     N
N      0.20756   0.9364   0.6216     N
N      0.21143   0.5638   0.2361     N
N      0.21143   0.9362   0.2361     N
H       0.2144   0.5706   0.3221     H
H       0.2144   0.9294   0.3221     H
N      0.21689   0.6803    0.908     N
N      0.21689   0.8197    0.908     N
N      0.22678   0.5452   0.5144     N
N      0.22678   0.9548   0.5144     N
N       0.2283   0.5266   0.7233     N
N       0.2283   0.9734   0.7233     N
C      0.23901   0.5144   0.1699     C
C      0.23901   0.9856   0.1699     C
N      0.23961   0.5038   0.0404     N
N      0.23961   0.9962   0.0404     N
N       0.2471    0.209   0.3461     N
N       0.2471    0.291   0.3461     N
N       0.2529    0.709   0.8461     N
N       0.2529    0.791   0.8461     N
N      0.26039   0.0038   0.5404     N
N      0.26039   0.4962   0.5404     N
C      0.26099   0.0144   0.6699     C
C      0.26099   0.4856   0.6699     C
N       0.2717   0.0266   0.2233     N
N       0.2717   0.4734   0.2233     N
N      0.27322   0.0452   0.0144     N
N      0.27322   0.4548   0.0144     N
N      0.28311   0.1803    0.408     N
N      0.28311   0.3197    0.408     N
H       0.2856   0.0706   0.8221     H
H       0.2856   0.4294   0.8221     H
N      0.28857   0.0638   0.7361     N
N      0.28857   0.4362   0.7361     N
N      0.29244   0.0636   0.1216     N
N      0.29244   0.4364   0.1216     N
Zn     0.29347  0.05792  0.39859    Zn
Zn     0.29347  0.44208  0.39859    Zn
C      0.30371     0.25   0.4436     C
H       0.3097   0.0891   0.6941     H
H       0.3097   0.4109   0.6941     H
N      0.34162     0.25   0.5063     N
O      0.35261   0.0266   0.3857     O
O      0.35261   0.4734   0.3857     O
H       0.3541   0.2013   0.5264     H
H       0.3541   0.2987   0.5264     H
O      0.36358   0.0809   0.5835     O
O      0.36358   0.4191   0.5835     O
C      0.37637   0.0443   0.4815     C
C      0.37637   0.4557   0.4815     C
H       0.4197   0.5123   0.2798     H
H       0.4197   0.9877   0.2798     H
C      0.42213   0.0221   0.4676     C
C      0.42213   0.4779   0.4676     C
C      0.43779   0.5052   0.3496     C
C      0.43779   0.9948   0.3496     C
H       0.4381   0.0521   0.6489     H
H       0.4381   0.4479   0.6489     H
C      0.44874    0.033   0.5705     C
C      0.44874    0.467   0.5705     C
C      0.48012   0.5224   0.3357     C
C      0.48012   0.9776   0.3357     C
H       0.4903   0.5388   0.2553     H
H       0.4903   0.9612   0.2553     H
C      0.49234   0.0149   0.5596     C
C      0.49234   0.4851   0.5596     C
C      0.50766   0.5149   0.4404     C
C      0.50766   0.9851   0.4404     C
H       0.5097   0.0388   0.7447     H
H       0.5097   0.4612   0.7447     H
C      0.51988   0.0224   0.6643     C
C      0.51988   0.4776   0.6643     C
C      0.55126    0.533   0.4295     C
C      0.55126    0.967   0.4295     C
H       0.5619   0.5521   0.3511     H
H       0.5619   0.9479   0.3511     H
C      0.56221   0.0052   0.6504     C
C      0.56221   0.4948   0.6504     C
C      0.57787   0.5221   0.5324     C
C      0.57787   0.9779   0.5324     C
H       0.5803   0.0123   0.7202     H
H       0.5803   0.4877   0.7202     H
C      0.62363   0.5443   0.5185     C
C      0.62363   0.9557   0.5185     C
O      0.63642   0.5809   0.4165     O
O      0.63642   0.9191   0.4165     O
H       0.6459   0.7013   0.4736     H
H       0.6459   0.7987   0.4736     H
O      0.64739   0.5266   0.6143     O
O      0.64739   0.9734   0.6143     O
N      0.65838     0.75   0.4937     N
H       0.6903   0.5891   0.3059     H
H       0.6903   0.9109   0.3059     H
C      0.69629     0.75   0.5564     C
Zn     0.70653  0.55792  0.60141    Zn
Zn     0.70653  0.94208  0.60141    Zn
N      0.70756   0.5636   0.8784     N
N      0.70756   0.9364   0.8784     N
N      0.71143   0.5638   0.2639     N
N      0.71143   0.9362   0.2639     N
H       0.7144   0.5706   0.1779     H
H       0.7144   0.9294   0.1779     H
N      0.71689   0.6803    0.592     N
N      0.71689   0.8197    0.592     N
N      0.72678   0.5452   0.9856     N
N      0.72678   0.9548   0.9856     N
N       0.7283   0.5266   0.7767     N
N       0.7283   0.9734   0.7767     N
C      0.73901   0.5144   0.3301     C
C      0.73901   0.9856   0.3301     C
N      0.73961   0.5038   0.4596     N
N      0.73961   0.9962   0.4596     N
N       0.7471    0.209   0.1539     N
N       0.7471    0.291   0.1539     N
N       0.7529    0.709   0.6539     N
N       0.7529    0.791   0.6539     N
N      0.76039   0.0038   0.9596     N
N      0.76039   0.4962   0.9596     N
C      0.76099   0.0144   0.8301     C
C      0.76099   0.4856   0.8301     C
N       0.7717   0.0266   0.2767     N
N       0.7717   0.4734   0.2767     N
N      0.77322   0.0452   0.4856     N
N      0.77322   0.4548   0.4856     N
N      0.78311   0.1803    0.092     N
N      0.78311   0.3197    0.092     N
H       0.7856   0.0706   0.6779     H
H       0.7856   0.4294   0.6779     H
N      0.78857   0.0638   0.7639     N
N      0.78857   0.4362   0.7639     N
N      0.79244   0.0636   0.3784     N
N      0.79244   0.4364   0.3784     N
Zn     0.79347  0.05792  0.10141    Zn
Zn     0.79347  0.44208  0.10141    Zn
C      0.80371     0.25   0.0564     C
H       0.8097   0.0891   0.8059     H
H       0.8097   0.4109   0.8059     H
N      0.84162     0.25   0.9937     N
O      0.85261   0.0266   0.1143     O
O      0.85261   0.4734   0.1143     O
H       0.8541   0.2013   0.9736     H
H       0.8541   0.2987   0.9736     H
O      0.86358   0.0809   0.9165     O
O      0.86358   0.4191   0.9165     O
C      0.87637   0.0443   0.0185     C
C      0.87637   0.4557   0.0185     C
H       0.9197   0.5123   0.2202     H
H       0.9197   0.9877   0.2202     H
C      0.92213   0.0221   0.0324     C
C      0.92213   0.4779   0.0324     C
C      0.93779   0.5052   0.1504     C
C      0.93779   0.9948   0.1504     C
H       0.9381   0.0521   0.8511     H
H       0.9381   0.4479   0.8511     H
C      0.94874    0.033   0.9295     C
C      0.94874    0.467   0.9295     C
C      0.98012   0.5224   0.1643     C
C      0.98012   0.9776   0.1643     C
H       0.9903   0.5388   0.2447     H
H       0.9903   0.9612   0.2447     H
C      0.99234   0.0149   0.9404     C
C      0.99234   0.4851   0.9404     C
