data_I
_chemical_name_common  '/home/zhangsd/repos/MofS-CGCNN/ML/data/SSD/clean_cifs/UMELEF_clean'
_cell_length_a 11.25470
_cell_length_b 17.56640
_cell_length_c 16.84960
_cell_angle_alpha 90.00000
_cell_angle_beta  93.47300
_cell_angle_gamma 90.00000
_space_group_name_H-M_alt      'P 1'


loop_
_space_group_symop_operation_xyz
  'x, y, z' 

loop_
_atom_site_label
_atom_site_fract_x
_atom_site_fract_y
_atom_site_fract_z
_atom_site_type_symbol
C       0.0013   0.4444   0.8462     C
C       0.0014   0.5537   0.1835     C
S       0.0041  0.48578  0.11203     S
C       0.0053   0.9698   0.4077     C
H       0.0092   0.9439   0.3597     H
H       0.0098   0.0809   0.0305     H
C       0.0231   0.0498   0.0749     C
C       0.0335    0.481   0.9151     C
C       0.0367   0.0682    0.496     C
S       0.0428   0.5051  0.45223     S
C       0.0463   0.3671   0.8231     C
O        0.047   0.1762   0.7764     O
C       0.0507   0.4422   0.5304     C
O       0.0521    0.351   0.7508     O
O       0.0557   0.1574   0.6009     O
C       0.0579   0.1275   0.8304     C
C        0.058   0.0421   0.4224     C
C       0.0696   0.5335   0.2509     C
O       0.0745   0.3259   0.8793     O
C       0.0772   0.1418   0.5309     C
H        0.079   0.5641   0.2959     H
H       0.0893   0.4614   0.9527     H
C        0.095   0.4294   0.1714     C
S       0.1011  0.99765  0.21052     S
C       0.1012    0.067   0.1379     C
H       0.1017   0.0683   0.3861     H
O       0.1074   0.3241   0.5834     O
C       0.1131   0.3694   0.5245     C
O       0.1157   0.1379   0.8968     O
O       0.1197   0.3426   0.0677     O
C        0.123   0.4622   0.2443     C
O       0.1342   0.1841   0.4848     O
C         0.14   0.3567   0.1397     C
Eu     0.15232  0.24679  0.68949    Eu
O       0.1644   0.3558   0.4627     O
H       0.1716   0.4397   0.2843     H
Eu     0.17831   0.2491  0.96952    Eu
C        0.181   0.1337   0.1467     C
O       0.1883   0.1779   0.0881     O
O       0.2013    0.315   0.1897     O
O       0.2388   0.1442   0.2117     O
O       0.2766   0.2492     0.83     O
O         0.29   0.1421   0.7133     O
Eu     0.30455  0.25448  0.46661    Eu
O        0.309   0.3601   0.9472     O
O       0.3193   0.3251   0.6928     O
O       0.3204   0.1851   0.5935     O
C       0.3389    0.138   0.6488     C
O       0.3561   0.1745   0.9689     O
O       0.3628   0.1381   0.4021     O
C       0.3689   0.3672   0.0114     C
C       0.3704    0.362   0.6409     C
O       0.3711   0.3178   0.0654     O
O       0.3735   0.3394   0.3734     O
O       0.3745   0.3462    0.569     O
Eu     0.37964  0.24515  0.17997    Eu
H        0.381   0.4452   0.7842     H
H       0.3832   0.0492   0.8782     H
H       0.3914   0.4733   0.4501     H
C       0.4153   0.1339   0.0185     C
C       0.4181   0.4672   0.7421     C
C       0.4204    0.133    0.343     C
C       0.4209   0.0729   0.6373     C
C       0.4243   0.3758    0.323     C
C       0.4263   0.4334   0.6698     C
C       0.4326    0.027    0.918     C
S       0.4331  0.00234   0.7072     S
O       0.4385   0.3555   0.2541     O
O       0.4392   0.1502   0.0901     O
C       0.4415   0.4376   0.0248     C
S       0.4432  0.50615  0.95282     S
O        0.444   0.1877   0.2965     O
C       0.4454   0.4905   0.4144     C
C       0.4589     0.06   0.9891     C
C       0.4699   0.4526   0.3482     C
C       0.4731   0.5401   0.7454     C
H       0.4747   0.5712   0.7901     H
H       0.4765   0.9235   0.8655     H
C       0.4773   0.0595   0.3226     C
C       0.4876   0.9548   0.9099     C
C       0.4897   0.0591   0.5756     C
H       0.4938    0.091   0.5318     H
S       0.4943  0.98911    0.392     S
S       0.5057  0.48911    0.608     S
H       0.5062    0.591   0.4682     H
C       0.5103   0.5591   0.4244     C
C       0.5124   0.4548   0.0901     C
C       0.5227   0.5595   0.6774     C
H       0.5235   0.4235   0.1345     H
H       0.5253   0.0712   0.2099     H
C       0.5269   0.0401   0.2546     C
C       0.5301   0.9526   0.6518     C
C       0.5411     0.56   0.0109     C
C       0.5546   0.9905   0.5856     C
O        0.556   0.6877   0.7035     O
S       0.5568  0.00615  0.04718     S
C       0.5585   0.9376   0.9752     C
O       0.5608   0.6502   0.9099     O
O       0.5615   0.8555   0.7459     O
S       0.5669  0.50234   0.2928     S
C       0.5674    0.527    0.082     C
C       0.5737   0.9334   0.3302     C
C       0.5757   0.8758    0.677     C
C       0.5791   0.5729   0.3627     C
C       0.5796    0.633    0.657     C
C       0.5819   0.9672   0.2579     C
C       0.5847   0.6339   0.9815     C
H       0.6086   0.9733   0.5499     H
H       0.6168   0.5492   0.1218     H
H        0.619   0.9452   0.2158     H
Eu     0.62036  0.74515  0.82003    Eu
O       0.6255   0.8462    0.431     O
O       0.6265   0.8394   0.6266     O
O       0.6289   0.8178   0.9346     O
C       0.6296    0.862   0.3591     C
C       0.6311   0.8672   0.9886     C
O       0.6372   0.6381   0.5979     O
O       0.6439   0.6745   0.0311     O
C       0.6611    0.638   0.3512     C
O       0.6796   0.6851   0.4065     O
O       0.6807   0.8251   0.3072     O
O        0.691   0.8601   0.0528     O
Eu     0.69545  0.75448  0.53339    Eu
O         0.71   0.6421   0.2867     O
O       0.7234   0.7492     0.17     O
O       0.7612   0.6442   0.7883     O
O       0.7987    0.815   0.8103     O
O       0.8117   0.6779   0.9119     O
C        0.819   0.6337   0.8533     C
Eu     0.82169   0.7491  0.03048    Eu
H       0.8284   0.9397   0.7157     H
O       0.8356   0.8558   0.5373     O
Eu     0.84768  0.74679  0.31051    Eu
C         0.86   0.8567   0.8603     C
O       0.8658   0.6841   0.5152     O
C        0.877   0.9622   0.7557     C
O       0.8803   0.8426   0.9323     O
O       0.8843   0.6379   0.1032     O
C       0.8869   0.8694   0.4755     C
O       0.8926   0.8241   0.4166     O
H       0.8983   0.5683   0.6139     H
C       0.8988    0.567   0.8621     C
S       0.8989  0.49765  0.78948     S
C        0.905   0.9294   0.8286     C
H       0.9107   0.9614   0.0473     H
H        0.921   0.0641   0.7041     H
C       0.9228   0.6418   0.4691     C
O       0.9255   0.8259   0.1207     O
C       0.9304   0.0335   0.7491     C
C        0.942   0.5421   0.5776     C
C       0.9421   0.6275   0.1696     C
O       0.9443   0.6574   0.3991     O
O       0.9479    0.851   0.2492     O
C       0.9493   0.9422   0.4696     C
O        0.953   0.6762   0.2236     O
C       0.9537   0.8671   0.1769     C
S       0.9572   0.0051  0.54777     S
C       0.9633   0.5682    0.504     C
C       0.9665    0.981   0.0849     C
C       0.9769   0.5498   0.9251     C
H       0.9902   0.5809   0.9695     H
H       0.9908   0.4439   0.6403     H
C       0.9947   0.4698   0.5923     C
S       0.9959  0.98578  0.88797     S
C       0.9986   0.0537   0.8165     C
C       0.9987   0.9444   0.1538     C
