data_I
_chemical_name_common  '/home/zhangsd/repos/MofS-CGCNN/ML/data/SSD/clean_cifs/UMEQAG_clean'
_cell_length_a 17.37780
_cell_length_b 11.64040
_cell_length_c 18.34750
_cell_angle_alpha 90.00000
_cell_angle_beta  110.41300
_cell_angle_gamma 90.00000
_space_group_name_H-M_alt      'P 1'


loop_
_space_group_symop_operation_xyz
  'x, y, z' 

loop_
_atom_site_label
_atom_site_fract_x
_atom_site_fract_y
_atom_site_fract_z
_atom_site_type_symbol
Tb     0.00103  0.08309  0.90541    Tb
Tb     0.00103  0.91691  0.40541    Tb
O      0.07064   0.0916  0.12462     O
O      0.07064   0.9084  0.62462     O
O       0.0781   0.0904  0.72526     O
O       0.0781   0.9096  0.22526     O
O      0.08026   0.0527  0.49489     O
O      0.08026   0.9473  0.99489     O
O      0.08231   0.1794  0.01974     O
O      0.08231   0.8206  0.51974     O
O      0.10109   0.0661  0.85161     O
O      0.10109   0.9339  0.35161     O
C       0.1036   0.1611   0.0921     C
C       0.1036   0.8389   0.5921     C
C       0.1163   0.1118   0.7944     C
C       0.1163   0.8882   0.2944     C
O      0.11692   0.1832   0.5877     O
O      0.11692   0.8168   0.0877     O
C       0.1291    0.131   0.5325     C
C       0.1291    0.869   0.0325     C
H       0.1628   0.2158   0.2511     H
H       0.1628   0.7842   0.7511     H
C       0.1742   0.2286   0.1448     C
C       0.1742   0.7714   0.6448     C
H       0.1812   0.2695   0.7136     H
H       0.1812   0.7305   0.2136     H
C       0.1865   0.1927    0.815     C
C       0.1865   0.8073    0.315     C
C        0.193   0.2461   0.2226     C
C        0.193   0.7539   0.7226     C
H       0.2001   0.0518   0.4246     H
H       0.2001   0.9482   0.9246     H
C       0.2014    0.161   0.5124     C
C       0.2014    0.839   0.0124     C
C       0.2091   0.2641   0.7669     C
C       0.2091   0.7359   0.2669     C
C       0.2263   0.1135   0.4555     C
C       0.2263   0.8865   0.9555     C
S      0.24412  0.29299  0.11034     S
S      0.24412  0.70701  0.61034     S
S      0.25036  0.20477  0.91038     S
S      0.25036  0.79523  0.41038     S
C       0.2635   0.3154   0.2551     C
C       0.2635   0.6846   0.7551     C
S      0.26399  0.27363  0.55926     S
S      0.26399  0.72637  0.05926     S
C       0.2802   0.3291   0.8079     C
C       0.2802   0.6709   0.3079     C
H       0.2839   0.3375   0.3071     H
H       0.2839   0.6625   0.8071     H
C       0.2955   0.1688   0.4497     C
C       0.2955   0.8312   0.9497     C
C       0.2984   0.3464   0.2017     C
C       0.2984   0.6536   0.7017     C
H       0.3045   0.3815   0.7844     H
H       0.3045   0.6185   0.2844     H
C       0.3089   0.3062   0.8858     C
C       0.3089   0.6938   0.3858     C
H       0.3205   0.1473   0.4144     H
H       0.3205   0.8527   0.9144     H
C       0.3228   0.2581   0.5014     C
C       0.3228   0.7419   0.0014     C
C       0.3749   0.4126   0.2165     C
C       0.3749   0.5874   0.7165     C
C       0.3809    0.353   0.9485     C
C       0.3809    0.647   0.4485     C
C       0.3894   0.3401   0.5058     C
C       0.3894   0.6599   0.0058     C
O      0.39592   0.3131  0.01591     O
O      0.39592   0.6869  0.51591     O
O      0.40391    0.463  0.28163     O
O      0.40391    0.537  0.78163     O
O      0.40481    0.417  0.16402     O
O      0.40481    0.583  0.66402     O
O      0.40761    0.414  0.55876     O
O      0.40761    0.586  0.05876     O
O      0.42104   0.3285  0.45394     O
O      0.42104   0.6715  0.95394     O
O      0.42418   0.4314  0.93392     O
O      0.42418   0.5686  0.43392     O
Tb     0.49766  0.43074  0.10114    Tb
Tb     0.49766  0.56926  0.60114    Tb
Tb     0.50234  0.43074  0.39886    Tb
Tb     0.50234  0.56926  0.89886    Tb
O      0.57582   0.4314  0.56608     O
O      0.57582   0.5686  0.06608     O
O      0.57896   0.3285  0.04606     O
O      0.57896   0.6715  0.54606     O
O      0.59239    0.414  0.94124     O
O      0.59239    0.586  0.44124     O
O      0.59519    0.417  0.33598     O
O      0.59519    0.583  0.83598     O
O      0.59609    0.463  0.21837     O
O      0.59609    0.537  0.71837     O
O      0.60408   0.3131  0.48409     O
O      0.60408   0.6869  0.98409     O
C       0.6106   0.3401   0.9942     C
C       0.6106   0.6599   0.4942     C
C       0.6191    0.353   0.5515     C
C       0.6191    0.647   0.0515     C
C       0.6251   0.4126   0.2835     C
C       0.6251   0.5874   0.7835     C
C       0.6772   0.2581   0.9986     C
C       0.6772   0.7419   0.4986     C
H       0.6795   0.1473   0.0856     H
H       0.6795   0.8527   0.5856     H
C       0.6911   0.3062   0.6142     C
C       0.6911   0.6938   0.1142     C
H       0.6955   0.3815   0.7156     H
H       0.6955   0.6185   0.2156     H
C       0.7016   0.3464   0.2983     C
C       0.7016   0.6536   0.7983     C
C       0.7045   0.1688   0.0503     C
C       0.7045   0.8312   0.5503     C
H       0.7161   0.3375   0.1929     H
H       0.7161   0.6625   0.6929     H
C       0.7198   0.3291   0.6921     C
C       0.7198   0.6709   0.1921     C
S      0.73601  0.27363  0.94074     S
S      0.73601  0.72637  0.44074     S
C       0.7365   0.3154   0.2449     C
C       0.7365   0.6846   0.7449     C
S      0.74964  0.20477  0.58962     S
S      0.74964  0.79523  0.08962     S
S      0.75588  0.29299  0.38966     S
S      0.75588  0.70701  0.88966     S
C       0.7737   0.1135   0.0445     C
C       0.7737   0.8865   0.5445     C
C       0.7909   0.2641   0.7331     C
C       0.7909   0.7359   0.2331     C
C       0.7986    0.161   0.9876     C
C       0.7986    0.839   0.4876     C
H       0.7999   0.0518   0.0754     H
H       0.7999   0.9482   0.5754     H
C        0.807   0.2461   0.2774     C
C        0.807   0.7539   0.7774     C
C       0.8135   0.1927    0.685     C
C       0.8135   0.8073    0.185     C
H       0.8188   0.2695   0.7864     H
H       0.8188   0.7305   0.2864     H
C       0.8258   0.2286   0.3552     C
C       0.8258   0.7714   0.8552     C
H       0.8372   0.2158   0.2489     H
H       0.8372   0.7842   0.7489     H
C       0.8709    0.131   0.9675     C
C       0.8709    0.869   0.4675     C
O      0.88308   0.1832   0.9123     O
O      0.88308   0.8168   0.4123     O
C       0.8837   0.1118   0.7056     C
C       0.8837   0.8882   0.2056     C
C       0.8964   0.1611   0.4079     C
C       0.8964   0.8389   0.9079     C
O      0.89891   0.0661  0.64839     O
O      0.89891   0.9339  0.14839     O
O      0.91769   0.1794  0.48026     O
O      0.91769   0.8206  0.98026     O
O      0.91974   0.0527  0.00511     O
O      0.91974   0.9473  0.50511     O
O       0.9219   0.0904  0.77474     O
O       0.9219   0.9096  0.27474     O
O      0.92936   0.0916  0.37538     O
O      0.92936   0.9084  0.87538     O
Tb     0.99897  0.08309  0.59459    Tb
Tb     0.99897  0.91691  0.09459    Tb
