data_I
_chemical_name_common  '/home/zhangsd/repos/MofS-CGCNN/ML/data/SSD/clean_cifs/UMESOW_clean'
_cell_length_a 17.39740
_cell_length_b 11.64530
_cell_length_c 18.37500
_cell_angle_alpha 90.00000
_cell_angle_beta  110.31900
_cell_angle_gamma 90.00000
_space_group_name_H-M_alt      'P 1'


loop_
_space_group_symop_operation_xyz
  'x, y, z' 

loop_
_atom_site_label
_atom_site_fract_x
_atom_site_fract_y
_atom_site_fract_z
_atom_site_type_symbol
Gd     0.00123  0.41644  0.40574    Gd
Gd     0.00123  0.58356  0.90575    Gd
O       0.0707   0.4075  0.62496     O
O       0.0707   0.5925  0.12496     O
O      0.07875    0.408  0.22507     O
O      0.07875    0.592  0.72507     O
O      0.08048   0.4463  0.99606     O
O      0.08048   0.5537  0.49606     O
O      0.08347   0.3199   0.5209     O
O      0.08347   0.6801   0.0209     O
O      0.10149   0.4347  0.35102     O
O      0.10149   0.5653  0.85102     O
C       0.1038   0.3384   0.5921     C
C       0.1038   0.6616   0.0921     C
C       0.1167   0.3883   0.2943     C
C       0.1167   0.6117   0.7943     C
O      0.11729   0.3148  0.08766     O
O      0.11729   0.6852  0.58766     O
C       0.1299   0.3684   0.0334     C
C       0.1299   0.6316   0.5334     C
H       0.1637   0.2854   0.7518     H
H       0.1637   0.7146   0.2518     H
C       0.1746   0.2724    0.645     C
C       0.1746   0.7276    0.145     C
H       0.1827     0.23   0.2143     H
H       0.1827     0.77   0.7143     H
C        0.187   0.3072   0.3155     C
C        0.187   0.6928   0.8155     C
C       0.1939    0.255   0.7234     C
C       0.1939    0.745   0.2234     C
H       0.2003   0.4502   0.9273     H
H       0.2003   0.5498   0.4273     H
C       0.2019    0.339   0.0126     C
C       0.2019    0.661   0.5126     C
C       0.2101   0.2351   0.2675     C
C       0.2101   0.7649   0.7675     C
C       0.2263   0.3879   0.9574     C
C       0.2263   0.6121   0.4574     C
S      0.24421  0.20604  0.61101     S
S      0.24421  0.79396  0.11101     S
S      0.25014  0.29588  0.41066     S
S      0.25014  0.70412  0.91066     S
C       0.2639   0.1863   0.7562     C
C       0.2639   0.8137   0.2562     C
S      0.26493  0.22755  0.05981     S
S      0.26493  0.77245  0.55981     S
C       0.2802   0.1695   0.3086     C
C       0.2802   0.8305   0.8086     C
H       0.2847   0.1653   0.8082     H
H       0.2847   0.8347   0.3082     H
C       0.2962   0.3326    0.951     C
C       0.2962   0.6674    0.451     C
C        0.298   0.1539   0.7025     C
C        0.298   0.8461   0.2025     C
H       0.3041    0.116   0.2854     H
H       0.3041    0.884   0.7854     H
C        0.309   0.1939   0.3866     C
C        0.309   0.8061   0.8866     C
H       0.3206   0.3544   0.9154     H
H       0.3206   0.6456   0.4154     H
C       0.3241   0.2445   0.0022     C
C       0.3241   0.7555   0.5022     C
C       0.3742   0.0863   0.7168     C
C       0.3742   0.9137   0.2168     C
C       0.3798    0.147     0.45     C
C       0.3798    0.853     0.95     C
C       0.3912   0.1633   0.0068     C
C       0.3912   0.8367   0.5068     C
O       0.3945   0.1882  0.51688     O
O       0.3945   0.8118  0.01688     O
O      0.40317   0.0363  0.78175     O
O      0.40317   0.9637  0.28175     O
O      0.40422   0.0806  0.66404     O
O      0.40422   0.9194  0.16404     O
O       0.4097   0.0909   0.0605     O
O       0.4097   0.9091   0.5605     O
O      0.42243   0.1744  0.95522     O
O      0.42243   0.8256  0.45522     O
O      0.42311   0.0675  0.43711     O
O      0.42311   0.9325  0.93711     O
Gd     0.49747  0.06877  0.60053    Gd
Gd     0.49747  0.93123  0.10053    Gd
Gd     0.50253  0.06877  0.89947    Gd
Gd     0.50253  0.93123  0.39947    Gd
O      0.57689   0.0675  0.06289     O
O      0.57689   0.9325  0.56289     O
O      0.57757   0.1744  0.54478     O
O      0.57757   0.8256  0.04478     O
O       0.5903   0.0909   0.4395     O
O       0.5903   0.9091   0.9395     O
O      0.59578   0.0806  0.83596     O
O      0.59578   0.9194  0.33596     O
O      0.59683   0.0363  0.71825     O
O      0.59683   0.9637  0.21825     O
O       0.6055   0.1882  0.98312     O
O       0.6055   0.8118  0.48312     O
C       0.6088   0.1633   0.4932     C
C       0.6088   0.8367   0.9932     C
C       0.6202    0.147     0.05     C
C       0.6202    0.853     0.55     C
C       0.6258   0.0863   0.7832     C
C       0.6258   0.9137   0.2832     C
C       0.6759   0.2445   0.4978     C
C       0.6759   0.7555   0.9978     C
H       0.6794   0.3544   0.5846     H
H       0.6794   0.6456   0.0846     H
C        0.691   0.1939   0.1134     C
C        0.691   0.8061   0.6134     C
H       0.6959    0.116   0.2146     H
H       0.6959    0.884   0.7146     H
C        0.702   0.1539   0.7975     C
C        0.702   0.8461   0.2975     C
C       0.7038   0.3326    0.549     C
C       0.7038   0.6674    0.049     C
H       0.7153   0.1653   0.6918     H
H       0.7153   0.8347   0.1918     H
C       0.7198   0.1695   0.1914     C
C       0.7198   0.8305   0.6914     C
S      0.73507  0.22755  0.44019     S
S      0.73507  0.77245  0.94019     S
C       0.7361   0.1863   0.7438     C
C       0.7361   0.8137   0.2438     C
S      0.74986  0.29588  0.08934     S
S      0.74986  0.70412  0.58934     S
S      0.75579  0.20604  0.88899     S
S      0.75579  0.79396  0.38899     S
C       0.7737   0.3879   0.5426     C
C       0.7737   0.6121   0.0426     C
C       0.7899   0.2351   0.2325     C
C       0.7899   0.7649   0.7325     C
C       0.7981    0.339   0.4874     C
C       0.7981    0.661   0.9874     C
H       0.7997   0.4502   0.5727     H
H       0.7997   0.5498   0.0727     H
C       0.8061    0.255   0.7766     C
C       0.8061    0.745   0.2766     C
C        0.813   0.3072   0.1845     C
C        0.813   0.6928   0.6845     C
H       0.8173     0.23   0.2857     H
H       0.8173     0.77   0.7857     H
C       0.8254   0.2724    0.855     C
C       0.8254   0.7276    0.355     C
H       0.8363   0.2854   0.7482     H
H       0.8363   0.7146   0.2482     H
C       0.8701   0.3684   0.4666     C
C       0.8701   0.6316   0.9666     C
O      0.88271   0.3148  0.41234     O
O      0.88271   0.6852  0.91234     O
C       0.8833   0.3883   0.2057     C
C       0.8833   0.6117   0.7057     C
C       0.8962   0.3384   0.9079     C
C       0.8962   0.6616   0.4079     C
O      0.89851   0.4347  0.14898     O
O      0.89851   0.5653  0.64898     O
O      0.91653   0.3199   0.9791     O
O      0.91653   0.6801   0.4791     O
O      0.91952   0.4463  0.50394     O
O      0.91952   0.5537  0.00394     O
O      0.92125    0.408  0.27493     O
O      0.92125    0.592  0.77493     O
O       0.9293   0.4075  0.87504     O
O       0.9293   0.5925  0.37504     O
Gd     0.99877  0.41644  0.09425    Gd
Gd     0.99877  0.58356  0.59425    Gd
