data_I
_chemical_name_common  '/home/zhangsd/repos/MofS-CGCNN/ML/data/SSD/clean_cifs/UQOWUU_clean'
_cell_length_a 13.98760
_cell_length_b 13.98760
_cell_length_c 16.30930
_cell_angle_alpha 90.00000
_cell_angle_beta  90.00000
_cell_angle_gamma 120.00000
_space_group_name_H-M_alt      'P 1'


loop_
_space_group_symop_operation_xyz
  'x, y, z' 

loop_
_atom_site_label
_atom_site_fract_x
_atom_site_fract_y
_atom_site_fract_z
_atom_site_type_symbol
C       0.0459    0.618     0.75     C
Cu     0.07113  0.62651  0.55991    Cu
Cu     0.07113  0.62651  0.94009    Cu
C       0.0713      0.4     0.25     C
N       0.0744   0.4217   0.0137     N
N       0.0744   0.4217   0.4863     N
H       0.0753   0.2604   0.1003     H
H       0.0753   0.2604   0.3997     H
H         0.08   0.2139   0.0139     H
H         0.08   0.2139   0.4861     H
H       0.0896   0.8123   0.0666     H
H       0.0896   0.8123   0.4334     H
N       0.1024   0.6279   0.6834     N
N       0.1024   0.6279   0.8166     N
C       0.1193   0.2733    0.052     C
C       0.1193   0.2733    0.448     C
N       0.1269   0.5169   0.5307     N
N       0.1269   0.5169   0.9693     N
H       0.1339     0.92   0.0139     H
H       0.1339     0.92   0.4861     H
C       0.1427   0.3812   0.0127     C
C       0.1427   0.3812   0.4873     C
C        0.154   0.8807    0.052     C
C        0.154   0.8807    0.448     C
H       0.1851   0.9247   0.1003     H
H       0.1851   0.9247   0.3997     H
H       0.1877   0.2773   0.0666     H
H       0.1877   0.2773   0.4334     H
N       0.1999   0.6454   0.7099     N
N       0.1999   0.6454   0.7901     N
H       0.2139   0.1339   0.5139     H
H       0.2139   0.1339   0.9861     H
N        0.214   0.7661   0.5301     N
N        0.214   0.7661   0.9699     N
N       0.2209   0.5297   0.5565     N
N       0.2209   0.5297   0.9435     N
N       0.2339   0.4479   0.5301     N
N       0.2339   0.4479   0.9699     N
C       0.2385   0.8573   0.0127     C
C       0.2385   0.8573   0.4873     C
H       0.2604   0.1851   0.6003     H
H       0.2604   0.1851   0.8997     H
C       0.2733    0.154    0.552     C
C       0.2733    0.154    0.948     C
H       0.2773   0.0896   0.5666     H
H       0.2773   0.0896   0.9334     H
N       0.3088   0.7791   0.5565     N
N       0.3088   0.7791   0.9435     N
C       0.3287   0.9287     0.25     C
Cu     0.33333  0.66667  0.63032    Cu
Cu     0.33333  0.66667  0.86968    Cu
N       0.3473   0.9256   0.0137     N
N       0.3473   0.9256   0.4863     N
N       0.3546   0.5545   0.7099     N
N       0.3546   0.5545   0.7901     N
N       0.3721   0.4745   0.6834     N
N       0.3721   0.4745   0.8166     N
Cu     0.37349  0.44462  0.55991    Cu
Cu     0.37349  0.44462  0.94009    Cu
C       0.3812   0.2385   0.5127     C
C       0.3812   0.2385   0.9873     C
C        0.382   0.4279     0.75     C
N         0.39   0.8731   0.5307     N
N         0.39   0.8731   0.9693     N
C          0.4   0.3287     0.75     C
N       0.4217   0.3473   0.5137     N
N       0.4217   0.3473   0.9863     N
C       0.4279   0.0459     0.25     C
Cu     0.44462  0.07113  0.05991    Cu
Cu     0.44462  0.07113  0.44009    Cu
N       0.4455   0.8001   0.7099     N
N       0.4455   0.8001   0.7901     N
N       0.4479    0.214   0.0301     N
N       0.4479    0.214   0.4699     N
N       0.4703   0.6912   0.5565     N
N       0.4703   0.6912   0.9435     N
N       0.4745   0.1024   0.1834     N
N       0.4745   0.1024   0.3166     N
N       0.4831     0.61   0.5307     N
N       0.4831     0.61   0.9693     N
N       0.5169     0.39   0.0307     N
N       0.5169     0.39   0.4693     N
N       0.5255   0.8976   0.6834     N
N       0.5255   0.8976   0.8166     N
N       0.5297   0.3088   0.0565     N
N       0.5297   0.3088   0.4435     N
N       0.5521    0.786   0.5301     N
N       0.5521    0.786   0.9699     N
N       0.5545   0.1999   0.2099     N
N       0.5545   0.1999   0.2901     N
Cu     0.55538  0.92887  0.55991    Cu
Cu     0.55538  0.92887  0.94009    Cu
C       0.5721   0.9541     0.75     C
N       0.5783   0.6527   0.0137     N
N       0.5783   0.6527   0.4863     N
C          0.6   0.6713     0.25     C
N         0.61   0.1269   0.0307     N
N         0.61   0.1269   0.4693     N
C        0.618   0.5721     0.25     C
C       0.6188   0.7615   0.0127     C
C       0.6188   0.7615   0.4873     C
Cu     0.62651  0.55538  0.05991    Cu
Cu     0.62651  0.55538  0.44009    Cu
N       0.6279   0.5255   0.1834     N
N       0.6279   0.5255   0.3166     N
N       0.6454   0.4455   0.2099     N
N       0.6454   0.4455   0.2901     N
N       0.6527   0.0744   0.5137     N
N       0.6527   0.0744   0.9863     N
Cu     0.66667  0.33333  0.13032    Cu
Cu     0.66667  0.33333  0.36968    Cu
C       0.6713   0.0713     0.75     C
N       0.6912   0.2209   0.0565     N
N       0.6912   0.2209   0.4435     N
H       0.7227   0.9104   0.0666     H
H       0.7227   0.9104   0.4334     H
C       0.7267    0.846    0.052     C
C       0.7267    0.846    0.448     C
H       0.7396   0.8149   0.1003     H
H       0.7396   0.8149   0.3997     H
C       0.7615   0.1427   0.5127     C
C       0.7615   0.1427   0.9873     C
N       0.7661   0.5521   0.0301     N
N       0.7661   0.5521   0.4699     N
N       0.7791   0.4703   0.0565     N
N       0.7791   0.4703   0.4435     N
N        0.786   0.2339   0.0301     N
N        0.786   0.2339   0.4699     N
H       0.7861   0.8661   0.0139     H
H       0.7861   0.8661   0.4861     H
N       0.8001   0.3546   0.2099     N
N       0.8001   0.3546   0.2901     N
H       0.8123   0.7227   0.5666     H
H       0.8123   0.7227   0.9334     H
H       0.8149   0.0753   0.6003     H
H       0.8149   0.0753   0.8997     H
C        0.846   0.1193    0.552     C
C        0.846   0.1193    0.948     C
C       0.8573   0.6188   0.5127     C
C       0.8573   0.6188   0.9873     C
H       0.8661     0.08   0.5139     H
H       0.8661     0.08   0.9861     H
N       0.8731   0.4831   0.0307     N
N       0.8731   0.4831   0.4693     N
C       0.8807   0.7267    0.552     C
C       0.8807   0.7267    0.948     C
N       0.8976   0.3721   0.1834     N
N       0.8976   0.3721   0.3166     N
H       0.9104   0.1877   0.5666     H
H       0.9104   0.1877   0.9334     H
H         0.92   0.7861   0.5139     H
H         0.92   0.7861   0.9861     H
H       0.9247   0.7396   0.6003     H
H       0.9247   0.7396   0.8997     H
N       0.9256   0.5783   0.5137     N
N       0.9256   0.5783   0.9863     N
C       0.9287      0.6     0.75     C
Cu     0.92887  0.37349  0.05991    Cu
Cu     0.92887  0.37349  0.44009    Cu
C       0.9541    0.382     0.25     C
