data_I
_chemical_name_common  '/home/zhangsd/repos/MofS-CGCNN/ML/data/SSD/clean_cifs/UVOTOQ_clean'
_cell_length_a 29.07400
_cell_length_b 29.07400
_cell_length_c 13.85400
_cell_angle_alpha 90.00000
_cell_angle_beta  90.00000
_cell_angle_gamma 90.00000
_space_group_name_H-M_alt      'P 1'


loop_
_space_group_symop_operation_xyz
  'x, y, z' 

loop_
_atom_site_label
_atom_site_fract_x
_atom_site_fract_y
_atom_site_fract_z
_atom_site_type_symbol
C       0.0044   0.4934   0.6607     C
C       0.0044   0.9934   0.3393     C
C       0.0068   0.4634   0.8218     C
C       0.0068   0.9634   0.1782     C
H         0.02   0.0023   0.3948     H
H         0.02   0.5023   0.6052     H
H       0.0233   0.4516   0.8736     H
H       0.0233   0.9516   0.1264     H
C       0.0291   0.4803   0.7398     C
C       0.0291   0.9803   0.2602     C
C       0.0418   0.0349   0.8231     C
C       0.0418   0.5349   0.1769     C
C       0.0431   0.0064   0.6607     C
C       0.0431   0.5064   0.3393     C
H       0.0573   0.0441   0.8786     H
H       0.0573   0.5441   0.1214     H
O       0.0646     0.49   0.4216     O
O       0.0646     0.99   0.5784     O
C       0.0669     0.02   0.7446     C
C       0.0669     0.52   0.2554     C
C       0.0808   0.4822   0.7372     C
C       0.0808   0.9822   0.2628     C
H       0.0889   0.4643   0.5963     H
H       0.0889   0.4994   0.8762     H
H       0.0889   0.9643   0.4037     H
H       0.0889   0.9994   0.1238     H
H       0.0925   0.4897   0.4132     H
H       0.0925   0.9897   0.5868     H
C       0.1045   0.4952   0.8182     C
C       0.1045   0.9952   0.1818     C
C       0.1047   0.4745   0.6506     C
C       0.1047   0.9745   0.3494     C
C       0.1178   0.0171   0.7539     C
C       0.1178   0.5171   0.2461     C
O       0.1377   0.0314   0.8267     O
O       0.1377   0.5314   0.1733     O
O       0.1395   0.4992   0.3185     O
O       0.1395   0.9992   0.6815     O
C       0.1524    0.482   0.6458     C
C       0.1524    0.982   0.3542     C
C       0.1527   0.0021   0.1861     C
C       0.1527   0.5021   0.8139     C
O       0.1558   0.4594   0.4808     O
O       0.1558   0.9594   0.5192     O
O       0.1609    0.004   0.0168     O
O       0.1609    0.504   0.9832     O
C       0.1744   0.4959   0.7279     C
C       0.1744   0.9959   0.2721     C
C       0.1763    0.015   0.0963     C
C       0.1763    0.515   0.9037     C
C       0.1777   0.4735   0.5548     C
C       0.1777   0.9735   0.4452     C
H       0.2016   0.2267   0.3764     H
H       0.2016   0.7267   0.6236     H
Tb     0.20515  0.04455  0.90476    Tb
Tb     0.20515  0.54455  0.09524    Tb
Tb     0.20545  0.45515  0.34524    Tb
Tb     0.20545  0.95515  0.65476    Tb
H       0.2058   0.0014   0.2751     H
H       0.2058   0.5014   0.7249     H
H       0.2059   0.3073   0.3714     H
H       0.2059   0.8073   0.6286     H
O       0.2094   0.0942   0.7692     O
O       0.2094   0.5942   0.2308     O
C       0.2134   0.2432   0.4282     C
C       0.2134   0.7432   0.5718     C
O        0.214   0.4657   0.1513     O
O        0.214   0.9657   0.8487     O
H       0.2143   0.1611   0.6537     H
H       0.2143   0.6611   0.3463     H
C       0.2151   0.2918   0.4269     C
C       0.2151   0.7918   0.5731     C
O       0.2157    0.036   0.0987     O
O       0.2157    0.536   0.9013     O
O       0.2186   0.3877   0.4233     O
O       0.2186   0.8877   0.5767     O
O       0.2206   0.4769    0.553     O
O       0.2206   0.9769    0.447     O
C       0.2235   0.0723   0.6952     C
C       0.2235   0.5723   0.3048     C
C       0.2245   0.1453   0.5994     C
C       0.2245   0.6453   0.4006     C
O       0.2269   0.0294    0.697     O
O       0.2269   0.5294    0.303     O
C         0.23   0.3169   0.5054     C
C         0.23   0.8169   0.4946     C
C       0.2303   0.2209   0.5102     C
C       0.2303   0.7209   0.4898     C
C        0.232   0.0976   0.6042     C
C        0.232   0.5976   0.3958     C
C       0.2322   0.1692   0.5128     C
C       0.2322   0.6692   0.4872     C
C       0.2329   0.3678   0.4961     C
C       0.2329   0.8678   0.5039     C
C        0.235   0.4263   0.1537     C
C        0.235   0.9263   0.8463     C
H       0.2397   0.1575   0.8368     H
H       0.2397   0.6575   0.1632     H
O         0.24   0.1854   0.8284     O
O         0.24   0.6854   0.1716     O
C       0.2434   0.2456   0.5893     C
C       0.2434   0.7456   0.4107     C
C       0.2436   0.2931   0.5893     C
C       0.2436   0.7931   0.4107     C
C       0.2452   0.1455   0.4318     C
C       0.2452   0.6455   0.5682     C
C       0.2459   0.0756   0.5221     C
C       0.2459   0.5756   0.4779     C
O        0.246   0.4109   0.2332     O
O        0.246   0.9109   0.7668     O
H       0.2477     0.27   0.8552     H
H       0.2477     0.77   0.1448     H
C       0.2479   0.4027   0.0639     C
C       0.2479   0.9027   0.9361     C
H       0.2486   0.4558   0.9749     H
H       0.2486   0.9558   0.0251     H
O       0.2492   0.1105   0.9315     O
O       0.2492   0.6105   0.0685     O
H       0.2494   0.1611   0.3738     H
H       0.2494   0.6611   0.6262     H
H       0.2506   0.3389   0.1262     H
H       0.2506   0.8389   0.8738     H
O       0.2508   0.3895   0.5685     O
O       0.2508   0.8895   0.4315     O
H       0.2514   0.0442   0.5251     H
H       0.2514   0.5442   0.4749     H
C       0.2521   0.0973   0.4361     C
C       0.2521   0.5973   0.5639     C
H       0.2523     0.23   0.6448     H
H       0.2523     0.73   0.3552     H
O        0.254   0.0891   0.2668     O
O        0.254   0.5891   0.7332     O
C       0.2541   0.4244   0.9779     C
C       0.2541   0.9244   0.0221     C
C       0.2548   0.3545   0.0682     C
C       0.2548   0.8545   0.9318     C
C       0.2564   0.2069   0.9107     C
C       0.2564   0.7069   0.0893     C
C       0.2566   0.2544   0.9107     C
C       0.2566   0.7544   0.0893     C
O         0.26   0.3146   0.6716     O
O         0.26   0.8146   0.3284     O
H       0.2603   0.3425   0.6632     H
H       0.2603   0.8425   0.3368     H
C        0.265   0.0737   0.3463     C
C        0.265   0.5737   0.6537     C
C       0.2671   0.1322   0.0039     C
C       0.2671   0.6322   0.9961     C
C       0.2678   0.3308   0.9872     C
C       0.2678   0.8308   0.0128     C
C        0.268   0.4024   0.8958     C
C        0.268   0.9024   0.1042     C
C       0.2697   0.2791   0.9898     C
C       0.2697   0.7791   0.0102     C
C         0.27   0.1831   0.9946     C
C         0.27   0.6831   0.0054     C
O       0.2731   0.4706    0.803     O
O       0.2731   0.9706    0.197     O
C       0.2755   0.3547   0.9006     C
C       0.2755   0.8547   0.0994     C
C       0.2765   0.4277   0.8048     C
C       0.2765   0.9277   0.1952     C
O       0.2794   0.0231    0.947     O
O       0.2794   0.5231    0.053     O
O       0.2814   0.1123   0.0767     O
O       0.2814   0.6123   0.9233     O
O       0.2843    0.464   0.4013     O
O       0.2843    0.964   0.5987     O
C       0.2849   0.2082   0.0731     C
C       0.2849   0.7082   0.9269     C
H       0.2857   0.3389   0.8463     H
H       0.2857   0.8389   0.1537     H
O        0.286   0.0343   0.3487     O
O        0.286   0.5343   0.6513     O
C       0.2866   0.2568   0.0718     C
C       0.2866   0.7568   0.9282     C
O       0.2906   0.4058   0.7308     O
O       0.2906   0.9058   0.2692     O
H       0.2941   0.1927   0.1286     H
H       0.2941   0.6927   0.8714     H
H       0.2942   0.4986   0.2249     H
H       0.2942   0.9986   0.7751     H
Tb     0.29455  0.04485  0.15476    Tb
Tb     0.29455  0.54485  0.84524    Tb
Tb     0.29485  0.45545  0.59524    Tb
Tb     0.29485  0.95545  0.40476    Tb
H       0.2984   0.2733   0.1236     H
H       0.2984   0.7733   0.8764     H
C       0.3223   0.0265   0.9452     C
C       0.3223   0.5265   0.0548     C
C       0.3237    0.485   0.4037     C
C       0.3237    0.985   0.5963     C
C       0.3256   0.0041   0.7721     C
C       0.3256   0.5041   0.2279     C
O       0.3391    0.496   0.4832     O
O       0.3391    0.996   0.5168     O
O       0.3442   0.0406   0.0192     O
O       0.3442   0.5406   0.9808     O
C       0.3473   0.4979   0.3139     C
C       0.3473   0.9979   0.6861     C
C       0.3476    0.018   0.8542     C
C       0.3476    0.518   0.1458     C
O       0.3605   0.0008   0.1815     O
O       0.3605   0.5008   0.8185     O
O       0.3623   0.4686   0.6733     O
O       0.3623   0.9686   0.3267     O
C       0.3822   0.4829   0.7461     C
C       0.3822   0.9829   0.2539     C
C       0.3953   0.0255   0.8494     C
C       0.3953   0.5255   0.1506     C
C       0.3955   0.0048   0.6818     C
C       0.3955   0.5048   0.3182     C
H       0.4075   0.0103   0.0868     H
H       0.4075   0.5103   0.9132     H
H       0.4111   0.0006   0.6238     H
H       0.4111   0.0357   0.9037     H
H       0.4111   0.5006   0.3762     H
H       0.4111   0.5357   0.0963     H
C       0.4192   0.0178   0.7628     C
C       0.4192   0.5178   0.2372     C
C       0.4331     0.48   0.7554     C
C       0.4331     0.98   0.2446     C
O       0.4354     0.01   0.0784     O
O       0.4354     0.51   0.9216     O
H       0.4427   0.4559   0.6214     H
H       0.4427   0.9559   0.3786     H
C       0.4569   0.4936   0.8393     C
C       0.4569   0.9936   0.1607     C
C       0.4582   0.4651   0.6769     C
C       0.4582   0.9651   0.3231     C
C       0.4709   0.0197   0.7602     C
C       0.4709   0.5197   0.2398     C
H       0.4767   0.0484   0.6264     H
H       0.4767   0.5484   0.3736     H
H         0.48   0.4977   0.1052     H
H         0.48   0.9977   0.8948     H
C       0.4932   0.0366   0.6782     C
C       0.4932   0.5366   0.3218     C
C       0.4956   0.0066   0.8393     C
C       0.4956   0.5066   0.1607     C
C       0.5044   0.4934   0.8393     C
C       0.5044   0.9934   0.1607     C
C       0.5068   0.4634   0.6782     C
C       0.5068   0.9634   0.3218     C
H         0.52   0.0023   0.1052     H
H         0.52   0.5023   0.8948     H
H       0.5233   0.4516   0.6264     H
H       0.5233   0.9516   0.3736     H
C       0.5291   0.4803   0.7602     C
C       0.5291   0.9803   0.2398     C
C       0.5418   0.0349   0.6769     C
C       0.5418   0.5349   0.3231     C
C       0.5431   0.0064   0.8393     C
C       0.5431   0.5064   0.1607     C
H       0.5573   0.0441   0.6214     H
H       0.5573   0.5441   0.3786     H
O       0.5646     0.49   0.0784     O
O       0.5646     0.99   0.9216     O
C       0.5669     0.02   0.7554     C
C       0.5669     0.52   0.2446     C
C       0.5808   0.4822   0.7628     C
C       0.5808   0.9822   0.2372     C
H       0.5889   0.4643   0.9037     H
H       0.5889   0.4994   0.6238     H
H       0.5889   0.9643   0.0963     H
H       0.5889   0.9994   0.3762     H
H       0.5925   0.4897   0.0868     H
H       0.5925   0.9897   0.9132     H
C       0.6045   0.4952   0.6818     C
C       0.6045   0.9952   0.3182     C
C       0.6047   0.4745   0.8494     C
C       0.6047   0.9745   0.1506     C
C       0.6178   0.0171   0.7461     C
C       0.6178   0.5171   0.2539     C
O       0.6377   0.0314   0.6733     O
O       0.6377   0.5314   0.3267     O
O       0.6395   0.4992   0.1815     O
O       0.6395   0.9992   0.8185     O
C       0.6524    0.482   0.8542     C
C       0.6524    0.982   0.1458     C
C       0.6527   0.0021   0.3139     C
C       0.6527   0.5021   0.6861     C
O       0.6558   0.4594   0.0192     O
O       0.6558   0.9594   0.9808     O
O       0.6609    0.004   0.4832     O
O       0.6609    0.504   0.5168     O
C       0.6744   0.4959   0.7721     C
C       0.6744   0.9959   0.2279     C
C       0.6763    0.015   0.4037     C
C       0.6763    0.515   0.5963     C
C       0.6777   0.4735   0.9452     C
C       0.6777   0.9735   0.0548     C
H       0.7016   0.2267   0.1236     H
H       0.7016   0.7267   0.8764     H
Tb     0.70515  0.04455  0.59524    Tb
Tb     0.70515  0.54455  0.40476    Tb
Tb     0.70545  0.45515  0.15476    Tb
Tb     0.70545  0.95515  0.84524    Tb
H       0.7058   0.0014   0.2249     H
H       0.7058   0.5014   0.7751     H
H       0.7059   0.3073   0.1286     H
H       0.7059   0.8073   0.8714     H
O       0.7094   0.0942   0.7308     O
O       0.7094   0.5942   0.2692     O
C       0.7134   0.2432   0.0718     C
C       0.7134   0.7432   0.9282     C
O        0.714   0.4657   0.3487     O
O        0.714   0.9657   0.6513     O
H       0.7143   0.1611   0.8463     H
H       0.7143   0.6611   0.1537     H
C       0.7151   0.2918   0.0731     C
C       0.7151   0.7918   0.9269     C
O       0.7157    0.036   0.4013     O
O       0.7157    0.536   0.5987     O
O       0.7186   0.3877   0.0767     O
O       0.7186   0.8877   0.9233     O
O       0.7206   0.4769    0.947     O
O       0.7206   0.9769    0.053     O
C       0.7235   0.0723   0.8048     C
C       0.7235   0.5723   0.1952     C
C       0.7245   0.1453   0.9006     C
C       0.7245   0.6453   0.0994     C
O       0.7269   0.0294    0.803     O
O       0.7269   0.5294    0.197     O
C         0.73   0.3169   0.9946     C
C         0.73   0.8169   0.0054     C
C       0.7303   0.2209   0.9898     C
C       0.7303   0.7209   0.0102     C
C        0.732   0.0976   0.8958     C
C        0.732   0.5976   0.1042     C
C       0.7322   0.1692   0.9872     C
C       0.7322   0.6692   0.0128     C
C       0.7329   0.3678   0.0039     C
C       0.7329   0.8678   0.9961     C
C        0.735   0.4263   0.3463     C
C        0.735   0.9263   0.6537     C
H       0.7397   0.1575   0.6632     H
H       0.7397   0.6575   0.3368     H
O         0.74   0.1854   0.6716     O
O         0.74   0.6854   0.3284     O
C       0.7434   0.2456   0.9107     C
C       0.7434   0.7456   0.0893     C
C       0.7436   0.2931   0.9107     C
C       0.7436   0.7931   0.0893     C
C       0.7452   0.1455   0.0682     C
C       0.7452   0.6455   0.9318     C
C       0.7459   0.0756   0.9779     C
C       0.7459   0.5756   0.0221     C
O        0.746   0.4109   0.2668     O
O        0.746   0.9109   0.7332     O
H       0.7477     0.27   0.6448     H
H       0.7477     0.77   0.3552     H
C       0.7479   0.4027   0.4361     C
C       0.7479   0.9027   0.5639     C
H       0.7486   0.4558   0.5251     H
H       0.7486   0.9558   0.4749     H
O       0.7492   0.1105   0.5685     O
O       0.7492   0.6105   0.4315     O
H       0.7494   0.1611   0.1262     H
H       0.7494   0.6611   0.8738     H
H       0.7506   0.3389   0.3738     H
H       0.7506   0.8389   0.6262     H
O       0.7508   0.3895   0.9315     O
O       0.7508   0.8895   0.0685     O
H       0.7514   0.0442   0.9749     H
H       0.7514   0.5442   0.0251     H
C       0.7521   0.0973   0.0639     C
C       0.7521   0.5973   0.9361     C
H       0.7523     0.23   0.8552     H
H       0.7523     0.73   0.1448     H
O        0.754   0.0891   0.2332     O
O        0.754   0.5891   0.7668     O
C       0.7541   0.4244   0.5221     C
C       0.7541   0.9244   0.4779     C
C       0.7548   0.3545   0.4318     C
C       0.7548   0.8545   0.5682     C
C       0.7564   0.2069   0.5893     C
C       0.7564   0.7069   0.4107     C
C       0.7566   0.2544   0.5893     C
C       0.7566   0.7544   0.4107     C
O         0.76   0.3146   0.8284     O
O         0.76   0.8146   0.1716     O
H       0.7603   0.3425   0.8368     H
H       0.7603   0.8425   0.1632     H
C        0.765   0.0737   0.1537     C
C        0.765   0.5737   0.8463     C
C       0.7671   0.1322   0.4961     C
C       0.7671   0.6322   0.5039     C
C       0.7678   0.3308   0.5128     C
C       0.7678   0.8308   0.4872     C
C        0.768   0.4024   0.6042     C
C        0.768   0.9024   0.3958     C
C       0.7697   0.2791   0.5102     C
C       0.7697   0.7791   0.4898     C
C         0.77   0.1831   0.5054     C
C         0.77   0.6831   0.4946     C
O       0.7731   0.4706    0.697     O
O       0.7731   0.9706    0.303     O
C       0.7755   0.3547   0.5994     C
C       0.7755   0.8547   0.4006     C
C       0.7765   0.4277   0.6952     C
C       0.7765   0.9277   0.3048     C
O       0.7794   0.0231    0.553     O
O       0.7794   0.5231    0.447     O
O       0.7814   0.1123   0.4233     O
O       0.7814   0.6123   0.5767     O
O       0.7843    0.464   0.0987     O
O       0.7843    0.964   0.9013     O
C       0.7849   0.2082   0.4269     C
C       0.7849   0.7082   0.5731     C
H       0.7857   0.3389   0.6537     H
H       0.7857   0.8389   0.3463     H
O        0.786   0.0343   0.1513     O
O        0.786   0.5343   0.8487     O
C       0.7866   0.2568   0.4282     C
C       0.7866   0.7568   0.5718     C
O       0.7906   0.4058   0.7692     O
O       0.7906   0.9058   0.2308     O
H       0.7941   0.1927   0.3714     H
H       0.7941   0.6927   0.6286     H
H       0.7942   0.4986   0.2751     H
H       0.7942   0.9986   0.7249     H
Tb     0.79455  0.04485  0.34524    Tb
Tb     0.79455  0.54485  0.65476    Tb
Tb     0.79485  0.45545  0.90476    Tb
Tb     0.79485  0.95545  0.09524    Tb
H       0.7984   0.2733   0.3764     H
H       0.7984   0.7733   0.6236     H
C       0.8223   0.0265   0.5548     C
C       0.8223   0.5265   0.4452     C
C       0.8237    0.485   0.0963     C
C       0.8237    0.985   0.9037     C
C       0.8256   0.0041   0.7279     C
C       0.8256   0.5041   0.2721     C
O       0.8391    0.496   0.0168     O
O       0.8391    0.996   0.9832     O
O       0.8442   0.0406   0.4808     O
O       0.8442   0.5406   0.5192     O
C       0.8473   0.4979   0.1861     C
C       0.8473   0.9979   0.8139     C
C       0.8476    0.018   0.6458     C
C       0.8476    0.518   0.3542     C
O       0.8605   0.0008   0.3185     O
O       0.8605   0.5008   0.6815     O
O       0.8623   0.4686   0.8267     O
O       0.8623   0.9686   0.1733     O
C       0.8822   0.4829   0.7539     C
C       0.8822   0.9829   0.2461     C
C       0.8953   0.0255   0.6506     C
C       0.8953   0.5255   0.3494     C
C       0.8955   0.0048   0.8182     C
C       0.8955   0.5048   0.1818     C
H       0.9075   0.0103   0.4132     H
H       0.9075   0.5103   0.5868     H
H       0.9111   0.0006   0.8762     H
H       0.9111   0.0357   0.5963     H
H       0.9111   0.5006   0.1238     H
H       0.9111   0.5357   0.4037     H
C       0.9192   0.0178   0.7372     C
C       0.9192   0.5178   0.2628     C
C       0.9331     0.48   0.7446     C
C       0.9331     0.98   0.2554     C
O       0.9354     0.01   0.4216     O
O       0.9354     0.51   0.5784     O
H       0.9427   0.4559   0.8786     H
H       0.9427   0.9559   0.1214     H
C       0.9569   0.4936   0.6607     C
C       0.9569   0.9936   0.3393     C
C       0.9582   0.4651   0.8231     C
C       0.9582   0.9651   0.1769     C
C       0.9709   0.0197   0.7398     C
C       0.9709   0.5197   0.2602     C
H       0.9767   0.0484   0.8736     H
H       0.9767   0.5484   0.1264     H
H         0.98   0.4977   0.3948     H
H         0.98   0.9977   0.6052     H
C       0.9932   0.0366   0.8218     C
C       0.9932   0.5366   0.1782     C
C       0.9956   0.0066   0.6607     C
C       0.9956   0.5066   0.3393     C
