data_I
_chemical_name_common  '/home/zhangsd/repos/MofS-CGCNN/ML/data/SSD/clean_cifs/UWALEL_clean'
_cell_length_a 22.42580
_cell_length_b 22.42580
_cell_length_c 10.91900
_cell_angle_alpha 90.00000
_cell_angle_beta  90.00000
_cell_angle_gamma 120.00000
_space_group_name_H-M_alt      'P 1'


loop_
_space_group_symop_operation_xyz
  'x, y, z' 

loop_
_atom_site_label
_atom_site_fract_x
_atom_site_fract_y
_atom_site_fract_z
_atom_site_type_symbol
Cu         0.0  0.33696  0.66667    Cu
Cu         0.0  0.66321  0.66667    Cu
O       0.0507   0.3659  0.51353     O
O       0.0535    0.687   0.8168     O
O       0.0585   0.7867   0.8198     O
O       0.0648   0.2732  0.51513     O
C       0.0806   0.3321  0.48143     C
C       0.0813   0.7482   0.8506     C
O        0.086   0.4714   0.7181     O
O       0.0863   0.7104  0.57967     O
O       0.0878   0.6155  0.62397     O
O       0.0887    0.376   0.7535     O
C       0.1167    0.674  0.58677     C
C       0.1169   0.4408   0.7539     C
C       0.1397   0.3683  0.39513     C
H       0.1402   0.8537   0.0076     H
H       0.1423   0.4628  0.39913     H
H       0.1463   0.2865  0.34093     H
C       0.1477   0.7766   0.9226     C
H       0.1507   0.5477  0.25873     H
C       0.1637   0.4406  0.36393     C
C        0.166   0.3339  0.33273     C
C       0.1679    0.834   0.9994     C
H        0.182   0.7187   0.8376     H
C       0.1894   0.4816   0.7989     C
C       0.1909   0.7101  0.54357     C
C       0.1944   0.7538   0.8946     C
H       0.1969   0.8007  0.49977     H
C       0.1981   0.5761  0.25143     C
H       0.1993   0.3962   0.8331     H
H       0.1995   0.5741   0.7921     H
H       0.2012   0.6684  0.23473     H
H       0.2073    0.631  0.57757     H
O       0.2084   0.9352   0.1818     O
O       0.2133   0.2718  0.15313     O
C       0.2175    0.476  0.28333     C
C       0.2216   0.7775  0.50287     C
C       0.2221   0.5505   0.8149     C
C       0.2225   0.4441   0.8362     C
C       0.2234   0.3711  0.25593     C
C       0.2285   0.6479  0.23503     C
C       0.2285    0.677  0.55417     C
C       0.2286   0.8603   0.0618     C
C       0.2424   0.5502  0.25593     C
C       0.2462   0.4406  0.22793     C
C       0.2515   0.9194   0.1481     C
C       0.2518   0.3331  0.18393     C
C       0.2585   0.7825     0.95     C
H       0.2684   0.5801  0.54207     H
O       0.2718   0.2133  0.84687     O
O       0.2732   0.0648  0.48487     O
C       0.2769   0.8363   0.0306     C
N       0.2789   0.6893   0.9022     N
H       0.2813   0.4633  0.17093     H
C       0.2849   0.5859   0.8616     C
H       0.2865   0.1463  0.65907     H
O       0.2873   0.9113  0.42017     O
O       0.2896   0.3759    0.913     O
C       0.2899   0.4808   0.8769     C
C       0.2922   0.8106  0.46557     C
C       0.2931   0.6846  0.22083     C
C        0.301   0.7151  0.52827     C
C       0.3078   0.7576   0.9226     C
N       0.3107   0.5896  0.23553     N
H       0.3117   0.7316  0.20873     H
O        0.313   0.3665  0.15013     O
O       0.3152   0.9493   0.1802     O
C       0.3154   0.6085  0.55417     C
H       0.3205   0.8577   0.0658     H
C       0.3215   0.6629    0.889     C
C        0.323   0.5515   0.8875     C
C       0.3239   0.8831  0.42057     C
C        0.326   0.4427   0.9201     C
C       0.3284   0.7779  0.48157     C
H       0.3316   0.5328  0.56807     H
C       0.3321   0.0806  0.51857     C
C       0.3331   0.2518  0.81607     C
C       0.3339    0.166  0.66727     C
Cu     0.33679  0.33679      0.0    Cu
Cu     0.33696      0.0  0.33333    Cu
C       0.3371   0.6586  0.22233     C
C       0.3414   0.6785  0.55567     C
C       0.3521   0.5806  0.56837     C
O       0.3659   0.0507  0.48647     O
O       0.3665    0.313  0.84987     O
C       0.3683   0.1397  0.60487     C
H        0.369   0.5763   0.9109     H
C       0.3711   0.2234  0.74407     C
H       0.3746   0.8005  0.45877     H
O       0.3759   0.2896    0.087     O
O        0.376   0.0887   0.2465     O
C        0.378   0.8019   0.9181     C
O       0.3845   0.4723   0.9573     O
O       0.3854    0.914  0.38477     O
C       0.3915   0.7069   0.8875     C
H       0.3962   0.1993   0.1669     H
H        0.397   0.8493   0.9254     H
N       0.4104   0.7211  0.56887     N
C       0.4141    0.699  0.19493     C
C       0.4194   0.7715   0.9017     C
H       0.4199   0.6883   0.8754     H
H       0.4237   0.7927  0.24423     H
C       0.4239    0.622  0.58477     C
H       0.4259   0.6254  0.12543     H
C       0.4406   0.1637  0.63607     C
C       0.4406   0.2462  0.77207     C
C       0.4408   0.1169   0.2461     C
C       0.4427    0.326   0.0799     C
C       0.4441   0.2225   0.1638     C
C       0.4485   0.7715  0.22083     C
C       0.4495   0.6716  0.14823     C
C       0.4498   0.6922  0.58927     C
H       0.4523    0.603  0.59207     H
H       0.4628   0.1423  0.60087     H
H       0.4633   0.2813  0.82907     H
H       0.4672   0.7988   0.9014     H
O       0.4714    0.086   0.2819     O
O       0.4723   0.3845   0.0427     O
C        0.476   0.2175  0.71667     C
C       0.4808   0.2899   0.1231     C
C       0.4816   0.1894   0.2011     C
C       0.5184   0.7078  0.13223     C
C       0.5192   0.8091  0.21023     C
C        0.524   0.7415  0.61667     C
O       0.5277   0.9122  0.29063     O
O       0.5286   0.6146  0.05143     O
H       0.5328   0.3316  0.43193     H
H       0.5367    0.818  0.50427     H
H       0.5372   0.6795  0.73247     H
H       0.5477   0.1507  0.74127     H
C       0.5502   0.2424  0.74407     C
C       0.5505   0.2221   0.1851     C
C       0.5515    0.323   0.1125     C
C       0.5559   0.7784  0.16953     C
C       0.5573   0.8833  0.25343     C
C       0.5592   0.6761  0.08723     C
C       0.5594   0.7231  0.69727     C
C       0.5594   0.8056  0.56127     C
H       0.5741   0.1995   0.2079     H
C       0.5761   0.1981  0.74857     C
H       0.5763    0.369   0.0891     H
H       0.5801   0.2684  0.45793     H
C       0.5806   0.3521  0.43163     C
C       0.5859   0.2849   0.1384     C
N       0.5896   0.3107  0.76447     N
H        0.603   0.4523  0.40793     H
H       0.6038   0.8031  0.16643     H
C       0.6085   0.3154  0.44583     C
O       0.6146   0.5286  0.94857     O
O       0.6155   0.0878  0.37603     O
C        0.622   0.4239  0.41523     C
O        0.624   0.7127  0.08683     O
O       0.6241   0.9137  0.24633     O
H       0.6254   0.4259  0.87457     H
C       0.6289   0.8523  0.58927     C
H        0.631   0.2073  0.42243     H
C       0.6317   0.7714  0.72847     C
O       0.6335   0.9465  0.48347     O
O       0.6341   0.6848  0.84687     O
C       0.6479   0.2285  0.76497     C
C       0.6586   0.3371  0.77767     C
C       0.6629   0.3215    0.111     C
Cu     0.66304  0.66304      0.0    Cu
Cu     0.66321      0.0  0.33333    Cu
C       0.6661   0.8321  0.66607     C
C       0.6669   0.9187  0.51727     C
C       0.6679   0.7485  0.81477     C
H       0.6684   0.2012  0.76527     H
C       0.6716   0.4495  0.85177     C
C        0.674   0.1167  0.41323     C
C       0.6761   0.5592  0.91277     C
C        0.677   0.2285  0.44583     C
C       0.6785   0.3414  0.44433     C
H       0.6795   0.5372  0.26753     H
C       0.6846   0.2931  0.77917     C
O       0.6848   0.6341  0.15313     O
O        0.687   0.0535   0.1832     O
H       0.6883   0.4199   0.1246     H
N       0.6893   0.2789   0.0978     N
C       0.6922   0.4498  0.41073     C
C        0.699   0.4141  0.80507     C
C       0.7069   0.3915   0.1125     C
C       0.7078   0.5184  0.86777     C
C       0.7101   0.1909  0.45643     C
O       0.7104   0.0863  0.42033     O
O       0.7127    0.624  0.91317     O
H       0.7135   0.8598  0.67427     H
C       0.7151    0.301  0.47173     C
H       0.7187    0.182   0.1624     H
N       0.7211   0.4104  0.43113     N
C       0.7231   0.5594  0.30273     C
O       0.7268   0.7916  0.84847     O
O       0.7282   0.9415  0.48647     O
H       0.7316   0.3117  0.79127     H
C       0.7415    0.524  0.38333     C
C       0.7482   0.0813   0.1494     C
C       0.7485   0.6679  0.18523     C
C       0.7538   0.1944   0.1054     C
C       0.7576   0.3078   0.0774     C
C       0.7714   0.6317  0.27153     C
C       0.7715   0.4194   0.0983     C
C       0.7715   0.4485  0.77917     C
C       0.7766   0.1477   0.0774     C
C       0.7775   0.2216  0.49713     C
C       0.7779   0.3284  0.51843     C
C       0.7784   0.5559  0.83047     C
C       0.7825   0.2585     0.05     C
O       0.7867   0.0585   0.1802     O
O       0.7916   0.7268  0.15153     O
H       0.7927   0.4237  0.75577     H
H       0.7988   0.4672   0.0986     H
H       0.8005   0.3746  0.54123     H
H       0.8007   0.1969  0.50023     H
C       0.8019    0.378   0.0819     C
H       0.8031   0.6038  0.83357     H
C       0.8056   0.5594  0.43873     C
C       0.8091   0.5192  0.78977     C
C       0.8106   0.2922  0.53443     C
H        0.818   0.5367  0.49573     H
C       0.8321   0.6661  0.33393     C
C        0.834   0.1679   0.0006     C
C       0.8363   0.2769   0.9694     C
H       0.8493    0.397   0.0746     H
C       0.8523   0.6289  0.41073     C
H       0.8537   0.1402   0.9924     H
H       0.8577   0.3205   0.9342     H
H       0.8598   0.7135  0.32573     H
C       0.8603   0.2286   0.9382     C
C       0.8831   0.3239  0.57943     C
C       0.8833   0.5573  0.74657     C
O       0.9113   0.2873  0.57983     O
O       0.9122   0.5277  0.70937     O
O       0.9137   0.6241  0.75367     O
O        0.914   0.3854  0.61523     O
C       0.9187   0.6669  0.48273     C
C       0.9194   0.2515   0.8519     C
O       0.9352   0.2084   0.8182     O
O       0.9415   0.7282  0.51353     O
O       0.9465   0.6335  0.51653     O
O       0.9493   0.3152   0.8198     O
