data_I
_chemical_name_common  '/home/zhangsd/repos/MofS-CGCNN/ML/data/SSD/clean_cifs/UWODAN_clean'
_cell_length_a 28.01340
_cell_length_b 17.89140
_cell_length_c 12.76290
_cell_angle_alpha 90.00000
_cell_angle_beta  90.00000
_cell_angle_gamma 90.00000
_space_group_name_H-M_alt      'P 1'


loop_
_space_group_symop_operation_xyz
  'x, y, z' 

loop_
_atom_site_label
_atom_site_fract_x
_atom_site_fract_y
_atom_site_fract_z
_atom_site_type_symbol
O          0.0   0.0583   0.2362     O
O          0.0   0.0816   0.4496     O
P          0.0  0.08695  0.56898     P
Ni         0.0  0.16508   0.1885    Ni
C          0.0   0.1869   0.5921     C
N          0.0   0.2172   0.7013     N
N          0.0   0.2828   0.2013     N
C          0.0   0.3131   0.0921     C
Ni         0.0  0.33492   0.6885    Ni
P          0.0  0.41305  0.06898     P
O          0.0   0.4184   0.9496     O
O          0.0   0.4417   0.7362     O
O          0.0   0.5583   0.2638     O
O          0.0   0.5816   0.0504     O
P          0.0  0.58695  0.93102     P
Ni         0.0  0.66508   0.3115    Ni
C          0.0   0.6869   0.9079     C
N          0.0   0.7172   0.7987     N
N          0.0   0.7828   0.2987     N
C          0.0   0.8131   0.4079     C
Ni         0.0  0.83492   0.8115    Ni
P          0.0  0.91305  0.43102     P
O          0.0   0.9184   0.5504     O
O          0.0   0.9417   0.7638     O
H       0.0278   0.2073   0.5569     H
H       0.0278   0.2927   0.0569     H
H       0.0278   0.7073   0.9431     H
H       0.0278   0.7927   0.4431     H
H       0.0377    0.153   0.8023     H
H       0.0377    0.347   0.3023     H
H       0.0377    0.653   0.6977     H
H       0.0377    0.847   0.1977     H
C       0.0439   0.1973   0.7605     C
C       0.0439   0.3027   0.2605     C
C       0.0439   0.6973   0.7395     C
C       0.0439   0.8027   0.2395     C
O      0.04575   0.0551   0.6166     O
O      0.04575   0.4449   0.1166     O
O      0.04575   0.5551   0.8834     O
O      0.04575   0.9449   0.3834     O
O      0.05259   0.1736   0.3004     O
O      0.05259   0.3264   0.8004     O
O      0.05259   0.6736   0.1996     O
O      0.05259   0.8264   0.6996     O
Ni       0.054  0.05775  0.33951    Ni
Mg       0.054  0.44225  0.83951    Mg
Ni       0.054  0.55775  0.16049    Ni
Mg       0.054  0.94225  0.66049    Mg
C       0.0609   0.2401   0.3323     C
C       0.0609   0.2599   0.8323     C
C       0.0609   0.7401   0.1677     C
C       0.0609   0.7599   0.6677     C
H       0.0691   0.1852   0.7113     H
H       0.0691   0.3148   0.2113     H
H       0.0691   0.6852   0.7887     H
H       0.0691   0.8148   0.2887     H
O       0.0831   0.2435   0.9133     O
O       0.0831   0.2565   0.4133     O
O       0.0831   0.7435   0.5867     O
O       0.0831   0.7565   0.0867     O
O      0.09532   0.0344   0.2068     O
O      0.09532   0.4656   0.7068     O
O      0.09532   0.5344   0.2932     O
O      0.09532   0.9656   0.7932     O
H        0.098      0.0      0.0     H
H        0.098      0.5      0.5     H
O      0.11289   0.0553   0.4251     O
O      0.11289   0.4447   0.9251     O
O      0.11289   0.5553   0.0749     O
O      0.11289   0.9447   0.5749     O
Mg     0.12288  0.05914  0.58191    Mg
Mg     0.12288  0.44086  0.08191    Mg
Mg     0.12288  0.55914  0.91809    Mg
Mg     0.12288  0.94086  0.41809    Mg
C       0.1281   0.0125   0.8049     C
C       0.1281   0.4875   0.3049     C
C       0.1281   0.5125   0.6951     C
C       0.1281   0.9875   0.1951     C
C       0.1312      0.0      0.0     C
C       0.1312      0.5      0.5     C
O      0.13982    0.062   0.7388     O
O      0.13982    0.438   0.2388     O
O      0.13982    0.562   0.7612     O
O      0.13982    0.938   0.2612     O
C       0.1554   0.0095   0.9072     C
C       0.1554   0.4905   0.4072     C
C       0.1554   0.5095   0.5928     C
C       0.1554   0.9905   0.0928     C
O      0.19634   0.0472   0.5582     O
O      0.19634   0.4528   0.0582     O
O      0.19634   0.5472   0.9418     O
O      0.19634   0.9528   0.4418     O
C       0.2047   0.0123   0.9071     C
C       0.2047   0.4877   0.4071     C
C       0.2047   0.5123   0.5929     C
C       0.2047   0.9877   0.0929     C
C       0.2167      0.0      0.5     C
C       0.2167      0.5      0.0     C
H       0.2211   0.0225   0.8453     H
H       0.2211   0.4775   0.3453     H
H       0.2211   0.5225   0.6547     H
H       0.2211   0.9775   0.1547     H
C         0.23      0.0      0.0     C
C         0.23      0.5      0.5     C
C         0.27      0.0      0.5     C
C         0.27      0.5      0.0     C
H       0.2789   0.0225   0.6547     H
H       0.2789   0.4775   0.1547     H
H       0.2789   0.5225   0.8453     H
H       0.2789   0.9775   0.3453     H
C       0.2833      0.0      0.0     C
C       0.2833      0.5      0.5     C
C       0.2953   0.0123   0.5929     C
C       0.2953   0.4877   0.0929     C
C       0.2953   0.5123   0.9071     C
C       0.2953   0.9877   0.4071     C
O      0.30366   0.0472   0.9418     O
O      0.30366   0.4528   0.4418     O
O      0.30366   0.5472   0.5582     O
O      0.30366   0.9528   0.0582     O
C       0.3446   0.0095   0.5928     C
C       0.3446   0.4905   0.0928     C
C       0.3446   0.5095   0.9072     C
C       0.3446   0.9905   0.4072     C
O      0.36018    0.062   0.7612     O
O      0.36018    0.438   0.2612     O
O      0.36018    0.562   0.7388     O
O      0.36018    0.938   0.2388     O
C       0.3688      0.0      0.5     C
C       0.3688      0.5      0.0     C
C       0.3719   0.0125   0.6951     C
C       0.3719   0.4875   0.1951     C
C       0.3719   0.5125   0.8049     C
C       0.3719   0.9875   0.3049     C
Mg     0.37712  0.05914  0.91809    Mg
Mg     0.37712  0.44086  0.41809    Mg
Mg     0.37712  0.55914  0.58191    Mg
Mg     0.37712  0.94086  0.08191    Mg
O      0.38711   0.0553   0.0749     O
O      0.38711   0.4447   0.5749     O
O      0.38711   0.5553   0.4251     O
O      0.38711   0.9447   0.9251     O
H        0.402      0.0      0.5     H
H        0.402      0.5      0.0     H
O      0.40468   0.0344   0.2932     O
O      0.40468   0.4656   0.7932     O
O      0.40468   0.5344   0.2068     O
O      0.40468   0.9656   0.7068     O
O       0.4169   0.2435   0.5867     O
O       0.4169   0.2565   0.0867     O
O       0.4169   0.7435   0.9133     O
O       0.4169   0.7565   0.4133     O
H       0.4309   0.1852   0.7887     H
H       0.4309   0.3148   0.2887     H
H       0.4309   0.6852   0.7113     H
H       0.4309   0.8148   0.2113     H
C       0.4391   0.2401   0.1677     C
C       0.4391   0.2599   0.6677     C
C       0.4391   0.7401   0.3323     C
C       0.4391   0.7599   0.8323     C
Mg       0.446  0.05775  0.16049    Mg
Ni       0.446  0.44225  0.66049    Ni
Mg       0.446  0.55775  0.33951    Mg
Ni       0.446  0.94225  0.83951    Ni
O      0.44741   0.1736   0.1996     O
O      0.44741   0.3264   0.6996     O
O      0.44741   0.6736   0.3004     O
O      0.44741   0.8264   0.8004     O
O      0.45425   0.0551   0.8834     O
O      0.45425   0.4449   0.3834     O
O      0.45425   0.5551   0.6166     O
O      0.45425   0.9449   0.1166     O
C       0.4561   0.1973   0.7395     C
C       0.4561   0.3027   0.2395     C
C       0.4561   0.6973   0.7605     C
C       0.4561   0.8027   0.2605     C
H       0.4623    0.153   0.6977     H
H       0.4623    0.347   0.1977     H
H       0.4623    0.653   0.8023     H
H       0.4623    0.847   0.3023     H
H       0.4722   0.2073   0.9431     H
H       0.4722   0.2927   0.4431     H
H       0.4722   0.7073   0.5569     H
H       0.4722   0.7927   0.0569     H
O          0.5   0.0583   0.2638     O
O          0.5   0.0816   0.0504     O
P          0.5  0.08695  0.93102     P
Ni         0.5  0.16508   0.3115    Ni
C          0.5   0.1869   0.9079     C
N          0.5   0.2172   0.7987     N
N          0.5   0.2828   0.2987     N
C          0.5   0.3131   0.4079     C
Ni         0.5  0.33492   0.8115    Ni
P          0.5  0.41305  0.43102     P
O          0.5   0.4184   0.5504     O
O          0.5   0.4417   0.7638     O
O          0.5   0.5583   0.2362     O
O          0.5   0.5816   0.4496     O
P          0.5  0.58695  0.56898     P
Ni         0.5  0.66508   0.1885    Ni
C          0.5   0.6869   0.5921     C
N          0.5   0.7172   0.7013     N
N          0.5   0.7828   0.2013     N
C          0.5   0.8131   0.0921     C
Ni         0.5  0.83492   0.6885    Ni
P          0.5  0.91305  0.06898     P
O          0.5   0.9184   0.9496     O
O          0.5   0.9417   0.7362     O
H       0.5278   0.2073   0.9431     H
H       0.5278   0.2927   0.4431     H
H       0.5278   0.7073   0.5569     H
H       0.5278   0.7927   0.0569     H
H       0.5377    0.153   0.6977     H
H       0.5377    0.347   0.1977     H
H       0.5377    0.653   0.8023     H
H       0.5377    0.847   0.3023     H
C       0.5439   0.1973   0.7395     C
C       0.5439   0.3027   0.2395     C
C       0.5439   0.6973   0.7605     C
C       0.5439   0.8027   0.2605     C
O      0.54575   0.0551   0.8834     O
O      0.54575   0.4449   0.3834     O
O      0.54575   0.5551   0.6166     O
O      0.54575   0.9449   0.1166     O
O      0.55259   0.1736   0.1996     O
O      0.55259   0.3264   0.6996     O
O      0.55259   0.6736   0.3004     O
O      0.55259   0.8264   0.8004     O
Ni       0.554  0.05775  0.16049    Ni
Mg       0.554  0.44225  0.66049    Mg
Ni       0.554  0.55775  0.33951    Ni
Mg       0.554  0.94225  0.83951    Mg
C       0.5609   0.2401   0.1677     C
C       0.5609   0.2599   0.6677     C
C       0.5609   0.7401   0.3323     C
C       0.5609   0.7599   0.8323     C
H       0.5691   0.1852   0.7887     H
H       0.5691   0.3148   0.2887     H
H       0.5691   0.6852   0.7113     H
H       0.5691   0.8148   0.2113     H
O       0.5831   0.2435   0.5867     O
O       0.5831   0.2565   0.0867     O
O       0.5831   0.7435   0.9133     O
O       0.5831   0.7565   0.4133     O
O      0.59532   0.0344   0.2932     O
O      0.59532   0.4656   0.7932     O
O      0.59532   0.5344   0.2068     O
O      0.59532   0.9656   0.7068     O
H        0.598      0.0      0.5     H
H        0.598      0.5      0.0     H
O      0.61289   0.0553   0.0749     O
O      0.61289   0.4447   0.5749     O
O      0.61289   0.5553   0.4251     O
O      0.61289   0.9447   0.9251     O
Mg     0.62288  0.05914  0.91809    Mg
Mg     0.62288  0.44086  0.41809    Mg
Mg     0.62288  0.55914  0.58191    Mg
Mg     0.62288  0.94086  0.08191    Mg
C       0.6281   0.0125   0.6951     C
C       0.6281   0.4875   0.1951     C
C       0.6281   0.5125   0.8049     C
C       0.6281   0.9875   0.3049     C
C       0.6312      0.0      0.5     C
C       0.6312      0.5      0.0     C
O      0.63982    0.062   0.7612     O
O      0.63982    0.438   0.2612     O
O      0.63982    0.562   0.7388     O
O      0.63982    0.938   0.2388     O
C       0.6554   0.0095   0.5928     C
C       0.6554   0.4905   0.0928     C
C       0.6554   0.5095   0.9072     C
C       0.6554   0.9905   0.4072     C
O      0.69634   0.0472   0.9418     O
O      0.69634   0.4528   0.4418     O
O      0.69634   0.5472   0.5582     O
O      0.69634   0.9528   0.0582     O
C       0.7047   0.0123   0.5929     C
C       0.7047   0.4877   0.0929     C
C       0.7047   0.5123   0.9071     C
C       0.7047   0.9877   0.4071     C
C       0.7167      0.0      0.0     C
C       0.7167      0.5      0.5     C
H       0.7211   0.0225   0.6547     H
H       0.7211   0.4775   0.1547     H
H       0.7211   0.5225   0.8453     H
H       0.7211   0.9775   0.3453     H
C         0.73      0.0      0.5     C
C         0.73      0.5      0.0     C
C         0.77      0.0      0.0     C
C         0.77      0.5      0.5     C
H       0.7789   0.0225   0.8453     H
H       0.7789   0.4775   0.3453     H
H       0.7789   0.5225   0.6547     H
H       0.7789   0.9775   0.1547     H
C       0.7833      0.0      0.5     C
C       0.7833      0.5      0.0     C
C       0.7953   0.0123   0.9071     C
C       0.7953   0.4877   0.4071     C
C       0.7953   0.5123   0.5929     C
C       0.7953   0.9877   0.0929     C
O      0.80366   0.0472   0.5582     O
O      0.80366   0.4528   0.0582     O
O      0.80366   0.5472   0.9418     O
O      0.80366   0.9528   0.4418     O
C       0.8446   0.0095   0.9072     C
C       0.8446   0.4905   0.4072     C
C       0.8446   0.5095   0.5928     C
C       0.8446   0.9905   0.0928     C
O      0.86018    0.062   0.7388     O
O      0.86018    0.438   0.2388     O
O      0.86018    0.562   0.7612     O
O      0.86018    0.938   0.2612     O
C       0.8688      0.0      0.0     C
C       0.8688      0.5      0.5     C
C       0.8719   0.0125   0.8049     C
C       0.8719   0.4875   0.3049     C
C       0.8719   0.5125   0.6951     C
C       0.8719   0.9875   0.1951     C
Mg     0.87712  0.05914  0.58191    Mg
Mg     0.87712  0.44086  0.08191    Mg
Mg     0.87712  0.55914  0.91809    Mg
Mg     0.87712  0.94086  0.41809    Mg
O      0.88711   0.0553   0.4251     O
O      0.88711   0.4447   0.9251     O
O      0.88711   0.5553   0.0749     O
O      0.88711   0.9447   0.5749     O
H        0.902      0.0      0.0     H
H        0.902      0.5      0.5     H
O      0.90468   0.0344   0.2068     O
O      0.90468   0.4656   0.7068     O
O      0.90468   0.5344   0.2932     O
O      0.90468   0.9656   0.7932     O
O       0.9169   0.2435   0.9133     O
O       0.9169   0.2565   0.4133     O
O       0.9169   0.7435   0.5867     O
O       0.9169   0.7565   0.0867     O
H       0.9309   0.1852   0.7113     H
H       0.9309   0.3148   0.2113     H
H       0.9309   0.6852   0.7887     H
H       0.9309   0.8148   0.2887     H
C       0.9391   0.2401   0.3323     C
C       0.9391   0.2599   0.8323     C
C       0.9391   0.7401   0.1677     C
C       0.9391   0.7599   0.6677     C
Mg       0.946  0.05775  0.33951    Mg
Ni       0.946  0.44225  0.83951    Ni
Mg       0.946  0.55775  0.16049    Mg
Ni       0.946  0.94225  0.66049    Ni
O      0.94741   0.1736   0.3004     O
O      0.94741   0.3264   0.8004     O
O      0.94741   0.6736   0.1996     O
O      0.94741   0.8264   0.6996     O
O      0.95425   0.0551   0.6166     O
O      0.95425   0.4449   0.1166     O
O      0.95425   0.5551   0.8834     O
O      0.95425   0.9449   0.3834     O
C       0.9561   0.1973   0.7605     C
C       0.9561   0.3027   0.2605     C
C       0.9561   0.6973   0.7395     C
C       0.9561   0.8027   0.2395     C
H       0.9623    0.153   0.8023     H
H       0.9623    0.347   0.3023     H
H       0.9623    0.653   0.6977     H
H       0.9623    0.847   0.1977     H
H       0.9722   0.2073   0.5569     H
H       0.9722   0.2927   0.0569     H
H       0.9722   0.7073   0.9431     H
H       0.9722   0.7927   0.4431     H
