data_I
_chemical_name_common  '/home/zhangsd/repos/MofS-CGCNN/ML/data/SSD/clean_cifs/UXIQOJ_clean'
_cell_length_a 15.17800
_cell_length_b 15.17800
_cell_length_c 12.08130
_cell_angle_alpha 90.00000
_cell_angle_beta  90.00000
_cell_angle_gamma 90.00000
_space_group_name_H-M_alt      'P 1'


loop_
_space_group_symop_operation_xyz
  'x, y, z' 

loop_
_atom_site_label
_atom_site_fract_x
_atom_site_fract_y
_atom_site_fract_z
_atom_site_type_symbol
C          0.0      0.0   0.0614     C
C          0.0      0.0   0.2945     C
H          0.0      0.0   0.3715     H
H          0.0      0.0   0.6285     H
C          0.0      0.0   0.7055     C
C          0.0      0.0   0.9386     C
C          0.0      0.5   0.1886     C
C          0.0      0.5   0.3114     C
C          0.0      0.5   0.5445     C
H          0.0      0.5   0.6215     H
H          0.0      0.5   0.8785     H
C          0.0      0.5   0.9555     C
C       0.0371   0.0696   0.8769     C
C       0.0371   0.4304   0.3731     C
C       0.0398   0.0685    0.764     C
C       0.0398   0.4315    0.486     C
H       0.0605   0.1178   0.9143     H
H       0.0605   0.3822   0.3357     H
C       0.0685   0.0398    0.236     C
C       0.0685   0.4602    0.014     C
C       0.0696   0.0371   0.1231     C
C       0.0696   0.4629   0.1269     C
C         0.09   0.1401   0.7032     C
C         0.09   0.3599   0.5468     C
O       0.0955   0.2131   0.7508     O
O       0.0955   0.2869   0.4992     O
O       0.1173   0.1233   0.3882     O
O       0.1173   0.3767   0.8618     O
H       0.1178   0.0605   0.0857     H
H       0.1178   0.4395   0.1643     H
O       0.1233   0.1173   0.6118     O
O       0.1233   0.3827   0.6382     O
C       0.1401     0.09   0.2968     C
C       0.1401     0.41   0.9532     C
Ni     0.18964  0.18964      0.5    Ni
Ni     0.18964  0.31036     0.75    Ni
O       0.2131   0.0955   0.2492     O
O       0.2131   0.4045   0.0008     O
O       0.2364     0.25    0.125     O
O         0.25   0.2364    0.875     O
O         0.25   0.2636    0.375     O
O       0.2636     0.25    0.625     O
O       0.2869   0.0955   0.5008     O
O       0.2869   0.4045   0.7492     O
Ni     0.31036  0.18964     0.25    Ni
Ni     0.31036  0.31036      0.0    Ni
C       0.3599     0.09   0.4532     C
C       0.3599     0.41   0.7968     C
O       0.3767   0.1173   0.1382     O
O       0.3767   0.3827   0.1118     O
H       0.3822   0.0605   0.6643     H
H       0.3822   0.4395   0.5857     H
O       0.3827   0.1233   0.3618     O
O       0.3827   0.3767   0.8882     O
O       0.4045   0.2131   0.9992     O
O       0.4045   0.2869   0.2508     O
C         0.41   0.1401   0.0468     C
C         0.41   0.3599   0.2032     C
C       0.4304   0.0371   0.6269     C
C       0.4304   0.4629   0.6231     C
C       0.4315   0.0398    0.514     C
C       0.4315   0.4602    0.736     C
H       0.4395   0.1178   0.8357     H
H       0.4395   0.3822   0.4143     H
C       0.4602   0.0685    0.986     C
C       0.4602   0.4315    0.264     C
C       0.4629   0.0696   0.8731     C
C       0.4629   0.4304   0.3769     C
C          0.5      0.0   0.0445     C
H          0.5      0.0   0.1215     H
H          0.5      0.0   0.3785     H
C          0.5      0.0   0.4555     C
C          0.5      0.0   0.6886     C
C          0.5      0.0   0.8114     C
H          0.5      0.5   0.1285     H
C          0.5      0.5   0.2055     C
C          0.5      0.5   0.4386     C
C          0.5      0.5   0.5614     C
C          0.5      0.5   0.7945     C
H          0.5      0.5   0.8715     H
C       0.5371   0.5696   0.3769     C
C       0.5371   0.9304   0.8731     C
C       0.5398   0.5685    0.264     C
C       0.5398   0.9315    0.986     C
H       0.5605   0.6178   0.4143     H
H       0.5605   0.8822   0.8357     H
C       0.5685   0.5398    0.736     C
C       0.5685   0.9602    0.514     C
C       0.5696   0.5371   0.6231     C
C       0.5696   0.9629   0.6269     C
C         0.59   0.6401   0.2032     C
C         0.59   0.8599   0.0468     C
O       0.5955   0.7131   0.2508     O
O       0.5955   0.7869   0.9992     O
O       0.6173   0.6233   0.8882     O
O       0.6173   0.8767   0.3618     O
H       0.6178   0.5605   0.5857     H
H       0.6178   0.9395   0.6643     H
O       0.6233   0.6173   0.1118     O
O       0.6233   0.8827   0.1382     O
C       0.6401     0.59   0.7968     C
C       0.6401     0.91   0.4532     C
Ni     0.68964  0.68964      0.0    Ni
Ni     0.68964  0.81036     0.25    Ni
O       0.7131   0.5955   0.7492     O
O       0.7131   0.9045   0.5008     O
O       0.7364     0.75    0.625     O
O         0.75   0.7364    0.375     O
O         0.75   0.7636    0.875     O
O       0.7636     0.75    0.125     O
O       0.7869   0.5955   0.0008     O
O       0.7869   0.9045   0.2492     O
Ni     0.81036  0.68964     0.75    Ni
Ni     0.81036  0.81036      0.5    Ni
C       0.8599     0.59   0.9532     C
C       0.8599     0.91   0.2968     C
O       0.8767   0.6173   0.6382     O
O       0.8767   0.8827   0.6118     O
H       0.8822   0.5605   0.1643     H
H       0.8822   0.9395   0.0857     H
O       0.8827   0.6233   0.8618     O
O       0.8827   0.8767   0.3882     O
O       0.9045   0.7131   0.4992     O
O       0.9045   0.7869   0.7508     O
C         0.91   0.6401   0.5468     C
C         0.91   0.8599   0.7032     C
C       0.9304   0.5371   0.1269     C
C       0.9304   0.9629   0.1231     C
C       0.9315   0.5398    0.014     C
C       0.9315   0.9602    0.236     C
H       0.9395   0.6178   0.3357     H
H       0.9395   0.8822   0.9143     H
C       0.9602   0.5685    0.486     C
C       0.9602   0.9315    0.764     C
C       0.9629   0.5696   0.3731     C
C       0.9629   0.9304   0.8769     C
