data_I
_chemical_name_common  '/home/zhangsd/repos/MofS-CGCNN/ML/data/SSD/clean_cifs/UYOJOI_clean'
_cell_length_a 10.81370
_cell_length_b 19.04000
_cell_length_c 19.24600
_cell_angle_alpha 90.00000
_cell_angle_beta  98.33800
_cell_angle_gamma 90.00000
_space_group_name_H-M_alt      'P 1'


loop_
_space_group_symop_operation_xyz
  'x, y, z' 

loop_
_atom_site_label
_atom_site_fract_x
_atom_site_fract_y
_atom_site_fract_z
_atom_site_type_symbol
H        0.015   0.5251   0.8839     H
H        0.015   0.9749   0.3839     H
O       0.0277   0.5827   0.1957     O
O       0.0277   0.9173   0.6957     O
Eu     0.04951  0.12898  0.20109    Eu
Eu     0.04951  0.37102  0.70109    Eu
C       0.0565   0.0218   0.5937     C
C       0.0565   0.4782   0.0937     C
N       0.0718   0.0676   0.5437     N
N       0.0718   0.4324   0.0437     N
H        0.118   0.1173   0.4234     H
H        0.118   0.3827   0.9234     H
C       0.1289   0.5805   0.1721     C
C       0.1289   0.9195   0.6721     C
C       0.1422   0.5304   0.1138     C
C       0.1422   0.9696   0.6138     C
N       0.1698   0.6073   0.8273     N
N       0.1698   0.8927   0.3273     N
C       0.1727   0.0607   0.5121     C
C       0.1727   0.4393   0.0121     C
O       0.1882   0.1912   0.2825     O
O       0.1882   0.3088   0.7825     O
C       0.1937   0.1126   0.4568     C
C       0.1937   0.3874   0.9568     C
H       0.2015   0.1887    0.841     H
H       0.2015   0.3113    0.341     H
H       0.2156   0.1578   0.4785     H
H       0.2156   0.3422   0.9785     H
O       0.2225   0.6171   0.1933     O
O       0.2225   0.8829   0.6933     O
N       0.2449   0.5377   0.0827     N
N       0.2449   0.9623   0.5827     N
N       0.2577   0.1342   0.6878     N
N       0.2577   0.3658   0.1878     N
C       0.2578   0.0075   0.5316     C
C       0.2578   0.4925   0.0316     C
H       0.2612   0.0964   0.4327     H
H       0.2612   0.4036   0.9327     H
C       0.2705   0.6276   0.8368     C
C       0.2705   0.8724   0.3368     C
C       0.2834   0.1928   0.8649     C
C       0.2834   0.3072   0.3649     C
N       0.2888    0.717   0.4157     N
N       0.2888    0.783   0.9157     N
C       0.2979   0.1864   0.3135     C
C       0.2979   0.3136   0.8135     C
H       0.3274   0.0031   0.5078     H
H       0.3274   0.4969   0.0078     H
N       0.3314   0.1404   0.9061     N
N       0.3314   0.3596   0.4061     N
N       0.3368    0.222   0.0682     N
N       0.3368    0.278   0.5682     N
C       0.3508    0.247   0.3564     C
C       0.3508    0.253   0.8564     C
C       0.3511   0.7417   0.8949     C
C       0.3511   0.7583   0.3949     C
C       0.3541   0.1427   0.6715     C
C       0.3541   0.3573   0.1715     C
O       0.3658   0.1333   0.3131     O
O       0.3658   0.3667   0.8131     O
H       0.4013   0.7109   0.5492     H
H       0.4013   0.7891   0.0492     H
C       0.4068   0.2374   0.5937     C
C       0.4068   0.2626   0.0937     C
Eu     0.41493  0.62531  0.14298    Eu
Eu     0.41493  0.87469  0.64298    Eu
N        0.415   0.5861   0.6975     N
N        0.415   0.9139   0.1975     N
N       0.4235   0.7133   0.2363     N
N       0.4235   0.7867   0.7363     N
H       0.4246   0.6095   0.4833     H
H       0.4246   0.8905   0.9833     H
C       0.4311   0.6139   0.7508     C
C       0.4311   0.8861   0.2508     C
H         0.44   0.0778   0.0172     H
H         0.44   0.4222   0.5172     H
C       0.4404   0.7434   0.7776     C
C       0.4404   0.7566   0.2776     C
C       0.4471   0.1484    0.939     C
C       0.4471   0.3516    0.439     C
N       0.4544    0.623   0.0198     N
N       0.4544    0.877   0.5198     N
Mo     0.46128  0.66168    0.854    Mo
Mo     0.46128  0.83832    0.354    Mo
C       0.4625   0.6358   0.9623     C
C       0.4625   0.8642   0.4623     C
N       0.4688   0.2399   0.3878     N
N       0.4688   0.2601   0.8878     N
H       0.4772   0.5521   0.5394     H
H       0.4772   0.9479   0.0394     H
C       0.4812   0.5508   0.8686     C
C       0.4812   0.9492   0.3686     C
C       0.4843   0.7077   0.5716     C
C       0.4843   0.7923   0.0716     C
N       0.4904   0.0086   0.3734     N
N       0.4904   0.4914   0.8734     N
C        0.499   0.5921   0.5124     C
C        0.499   0.9079   0.0124     C
C        0.501   0.0921   0.9876     C
C        0.501   0.4079   0.4876     C
N       0.5096   0.5086   0.1266     N
N       0.5096   0.9914   0.6266     N
C       0.5157   0.2077   0.9284     C
C       0.5157   0.2923   0.4284     C
C       0.5188   0.0508   0.6314     C
C       0.5188   0.4492   0.1314     C
H       0.5228   0.0521   0.9606     H
H       0.5228   0.4479   0.4606     H
N       0.5312   0.7399   0.1122     N
N       0.5312   0.7601   0.6122     N
C       0.5375   0.1358   0.5377     C
C       0.5375   0.3642   0.0377     C
Mo     0.53872  0.16168    0.646    Mo
Mo     0.53872  0.33832    0.146    Mo
N       0.5456    0.123   0.4802     N
N       0.5456    0.377   0.9802     N
C       0.5529   0.6484    0.561     C
C       0.5529   0.8516    0.061     C
C       0.5596   0.2434   0.7224     C
C       0.5596   0.2566   0.2224     C
H         0.56   0.5778   0.4828     H
H         0.56   0.9222   0.9828     H
C       0.5689   0.1139   0.7492     C
C       0.5689   0.3861   0.2492     C
H       0.5754   0.1095   0.0167     H
H       0.5754   0.3905   0.5167     H
N       0.5765   0.2133   0.2637     N
N       0.5765   0.2867   0.7637     N
N        0.585   0.0861   0.8025     N
N        0.585   0.4139   0.3025     N
Eu     0.58507  0.12531  0.35702    Eu
Eu     0.58507  0.37469  0.85702    Eu
C       0.5932   0.7374   0.9063     C
C       0.5932   0.7626   0.4063     C
H       0.5987   0.2109   0.9508     H
H       0.5987   0.2891   0.4508     H
O       0.6342   0.6333   0.1869     O
O       0.6342   0.8667   0.6869     O
C       0.6459   0.6427   0.8285     C
C       0.6459   0.8573   0.3285     C
C       0.6489   0.2417   0.6051     C
C       0.6489   0.2583   0.1051     C
C       0.6492    0.747   0.1436     C
C       0.6492    0.753   0.6436     C
N       0.6632    0.722   0.4318     N
N       0.6632    0.778   0.9318     N
N       0.6686   0.6404   0.5939     N
N       0.6686   0.8596   0.0939     N
H       0.6726   0.5031   0.9922     H
H       0.6726   0.9969   0.4922     H
C       0.7021   0.6864   0.1865     C
C       0.7021   0.8136   0.6865     C
N       0.7112    0.217   0.0843     N
N       0.7112    0.283   0.5843     N
C       0.7166   0.6928   0.6351     C
C       0.7166   0.8072   0.1351     C
C       0.7295   0.1276   0.6632     C
C       0.7295   0.3724   0.1632     C
H       0.7388   0.5964   0.0673     H
H       0.7388   0.9036   0.5673     H
C       0.7422   0.5075   0.9684     C
C       0.7422   0.9925   0.4684     C
N       0.7423   0.6342   0.8122     N
N       0.7423   0.8658   0.3122     N
N       0.7551   0.0377   0.4173     N
N       0.7551   0.4623   0.9173     N
O       0.7775   0.1171   0.3067     O
O       0.7775   0.3829   0.8067     O
H       0.7844   0.6578   0.0215     H
H       0.7844   0.8422   0.5215     H
H       0.7985   0.6887    0.659     H
H       0.7985   0.8113    0.159     H
C       0.8063   0.6126   0.0432     C
C       0.8063   0.8874   0.5432     C
O       0.8118   0.6912   0.2175     O
O       0.8118   0.8088   0.7175     O
C       0.8273   0.5607   0.9879     C
C       0.8273   0.9393   0.4879     C
N       0.8302   0.1073   0.6727     N
N       0.8302   0.3927   0.1727     N
C       0.8578   0.0304   0.3862     C
C       0.8578   0.4696   0.8862     C
C       0.8711   0.0805   0.3279     C
C       0.8711   0.4195   0.8279     C
H        0.882   0.6173   0.0766     H
H        0.882   0.8827   0.5766     H
N       0.9282   0.5676   0.9563     N
N       0.9282   0.9324   0.4563     N
C       0.9435   0.5218   0.9063     C
C       0.9435   0.9782   0.4063     C
Eu     0.95049  0.62898  0.29891    Eu
Eu     0.95049  0.87102  0.79891    Eu
O       0.9723   0.0827   0.3043     O
O       0.9723   0.4173   0.8043     O
H        0.985   0.0251   0.6161     H
H        0.985   0.4749   0.1161     H
