data_I
_chemical_name_common  '/home/zhangsd/repos/MofS-CGCNN/ML/data/SSD/clean_cifs/VACLIX_clean'
_cell_length_a 38.39370
_cell_length_b 38.39370
_cell_length_c 38.39370
_cell_angle_alpha 90.00000
_cell_angle_beta  90.00000
_cell_angle_gamma 90.00000
_space_group_name_H-M_alt      'P 1'


loop_
_space_group_symop_operation_xyz
  'x, y, z' 

loop_
_atom_site_label
_atom_site_fract_x
_atom_site_fract_y
_atom_site_fract_z
_atom_site_type_symbol
Cl         0.0   0.1899      0.5    Cl
Ir         0.0     0.25      0.5    Ir
N          0.0   0.2503  0.44695     N
N          0.0   0.2503  0.55305     N
Cl         0.0   0.3101      0.5    Cl
N          0.0  0.44695   0.2503     N
N          0.0  0.44695   0.7497     N
Cl         0.0      0.5   0.1899    Cl
Ir         0.0      0.5     0.25    Ir
Cl         0.0      0.5   0.3101    Cl
Cl         0.0      0.5   0.6899    Cl
Ir         0.0      0.5     0.75    Ir
Cl         0.0      0.5   0.8101    Cl
N          0.0  0.55305   0.2503     N
N          0.0  0.55305   0.7497     N
Cl         0.0   0.6899      0.5    Cl
N          0.0   0.7497  0.44695     N
N          0.0   0.7497  0.55305     N
Ir         0.0     0.75      0.5    Ir
Cl         0.0   0.8101      0.5    Cl
C      0.01743   0.2522  0.39068     C
C      0.01743   0.2522  0.60932     C
C      0.01743  0.39068   0.2522     C
C      0.01743  0.39068   0.7478     C
C      0.01743  0.60932   0.2522     C
C      0.01743  0.60932   0.7478     C
C      0.01743   0.7478  0.39068     C
C      0.01743   0.7478  0.60932     C
C      0.02882   0.2515  0.42662     C
C      0.02882   0.2515  0.57338     C
C      0.02882  0.42662   0.2515     C
C      0.02882  0.42662   0.7485     C
C      0.02882  0.57338   0.2515     C
C      0.02882  0.57338   0.7485     C
C      0.02882   0.7485  0.42662     C
C      0.02882   0.7485  0.57338     C
H       0.0321   0.2525   0.3707     H
H       0.0321   0.2525   0.6293     H
H       0.0321   0.3707   0.2525     H
H       0.0321   0.3707   0.7475     H
H       0.0321   0.6293   0.2525     H
H       0.0321   0.6293   0.7475     H
H       0.0321   0.7475   0.3707     H
H       0.0321   0.7475   0.6293     H
N      0.05305   0.2497      0.5     N
N      0.05305      0.5   0.2497     N
N      0.05305      0.5   0.7503     N
N      0.05305   0.7503      0.5     N
C      0.06278     0.25  0.43722     C
C      0.06278     0.25  0.56278     C
C      0.06278  0.43722     0.25     C
C      0.06278  0.43722     0.75     C
C      0.06278  0.56278     0.25     C
C      0.06278  0.56278     0.75     C
C      0.06278     0.75  0.43722     C
C      0.06278     0.75  0.56278     C
C      0.07338   0.2485  0.47118     C
C      0.07338   0.2485  0.52882     C
C      0.07338  0.47118   0.2485     C
C      0.07338  0.47118   0.7515     C
C      0.07338  0.52882   0.2485     C
C      0.07338  0.52882   0.7515     C
C      0.07338   0.7515  0.47118     C
C      0.07338   0.7515  0.52882     C
H       0.0847   0.1998   0.3961     H
H       0.0847   0.1998   0.6039     H
H       0.0847   0.3961   0.1998     H
H       0.0847   0.3961   0.8002     H
H       0.0847   0.6039   0.1998     H
H       0.0847   0.6039   0.8002     H
H       0.0847   0.8002   0.3961     H
H       0.0847   0.8002   0.6039     H
C      0.09039     0.25  0.40961     C
C      0.09039     0.25  0.59039     C
C      0.09039  0.40961     0.25     C
C      0.09039  0.40961     0.75     C
C      0.09039  0.59039     0.25     C
C      0.09039  0.59039     0.75     C
C      0.09039     0.75  0.40961     C
C      0.09039     0.75  0.59039     C
C       0.0976   0.2204  0.39161     C
C       0.0976   0.2204  0.60839     C
C       0.0976  0.39161   0.2204     C
C       0.0976  0.39161   0.7796     C
C       0.0976  0.60839   0.2204     C
C       0.0976  0.60839   0.7796     C
C       0.0976   0.7796  0.39161     C
C       0.0976   0.7796  0.60839     C
H       0.1039   0.3002   0.4153     H
H       0.1039   0.3002   0.5847     H
H       0.1039   0.4153   0.3002     H
H       0.1039   0.4153   0.6998     H
H       0.1039   0.5847   0.3002     H
H       0.1039   0.5847   0.6998     H
H       0.1039   0.6998   0.4153     H
H       0.1039   0.6998   0.5847     H
C      0.10839   0.2796   0.4024     C
C      0.10839   0.2796   0.5976     C
C      0.10839   0.4024   0.2796     C
C      0.10839   0.4024   0.7204     C
C      0.10839   0.5976   0.2796     C
C      0.10839   0.5976   0.7204     C
C      0.10839   0.7204   0.4024     C
C      0.10839   0.7204   0.5976     C
C      0.10932   0.2478  0.48257     C
C      0.10932   0.2478  0.51743     C
C      0.10932  0.48257   0.2478     C
C      0.10932  0.48257   0.7522     C
C      0.10932  0.51743   0.2478     C
C      0.10932  0.51743   0.7522     C
C      0.10932   0.7522  0.48257     C
C      0.10932   0.7522  0.51743     C
C      0.12383   0.2202  0.36668     C
C      0.12383   0.2202  0.63332     C
C      0.12383  0.36668   0.2202     C
C      0.12383  0.36668   0.7798     C
C      0.12383  0.63332   0.2202     C
C      0.12383  0.63332   0.7798     C
C      0.12383   0.7798  0.36668     C
C      0.12383   0.7798  0.63332     C
H       0.1293   0.2475   0.4679     H
H       0.1293   0.2475   0.5321     H
H       0.1293   0.4679   0.2475     H
H       0.1293   0.4679   0.7525     H
H       0.1293   0.5321   0.2475     H
H       0.1293   0.5321   0.7525     H
H       0.1293   0.7525   0.4679     H
H       0.1293   0.7525   0.5321     H
H       0.1297   0.1992    0.355     H
H       0.1297   0.1992    0.645     H
H       0.1297    0.355   0.1992     H
H       0.1297    0.355   0.8008     H
H       0.1297    0.645   0.1992     H
H       0.1297    0.645   0.8008     H
H       0.1297   0.8008    0.355     H
H       0.1297   0.8008    0.645     H
C      0.13332   0.2798  0.37617     C
C      0.13332   0.2798  0.62383     C
C      0.13332  0.37617   0.2798     C
C      0.13332  0.37617   0.7202     C
C      0.13332  0.62383   0.2798     C
C      0.13332  0.62383   0.7202     C
C      0.13332   0.7202  0.37617     C
C      0.13332   0.7202  0.62383     C
C      0.14101     0.25  0.35899     C
C      0.14101     0.25  0.64101     C
C      0.14101  0.35899     0.25     C
C      0.14101  0.35899     0.75     C
C      0.14101  0.64101     0.25     C
C      0.14101  0.64101     0.75     C
C      0.14101     0.75  0.35899     C
C      0.14101     0.75  0.64101     C
H        0.145   0.3008   0.3703     H
H        0.145   0.3008   0.6297     H
H        0.145   0.3703   0.3008     H
H        0.145   0.3703   0.6992     H
H        0.145   0.6297   0.3008     H
H        0.145   0.6297   0.6992     H
H        0.145   0.6992   0.3703     H
H        0.145   0.6992   0.6297     H
C      0.16931     0.25  0.33069     C
C      0.16931     0.25  0.66931     C
C      0.16931  0.33069     0.25     C
C      0.16931  0.33069     0.75     C
C      0.16931  0.66931     0.25     C
C      0.16931  0.66931     0.75     C
C      0.16931     0.75  0.33069     C
C      0.16931     0.75  0.66931     C
O      0.17214   0.2215  0.31407     O
O      0.17214   0.2215  0.68593     O
O      0.17214  0.31407   0.2215     O
O      0.17214  0.31407   0.7785     O
O      0.17214  0.68593   0.2215     O
O      0.17214  0.68593   0.7785     O
O      0.17214   0.7785  0.31407     O
O      0.17214   0.7785  0.68593     O
O      0.18593   0.2785  0.32786     O
O      0.18593   0.2785  0.67214     O
O      0.18593  0.32786   0.2785     O
O      0.18593  0.32786   0.7215     O
O      0.18593  0.67214   0.2785     O
O      0.18593  0.67214   0.7215     O
O      0.18593   0.7215  0.32786     O
O      0.18593   0.7215  0.67214     O
Cl      0.1899      0.0      0.5    Cl
Cl      0.1899      0.5      0.0    Cl
O       0.1922  0.25728  0.25728     O
O       0.1922  0.25728  0.74272     O
O       0.1922  0.74272  0.25728     O
O       0.1922  0.74272  0.74272     O
H       0.1992   0.1297    0.355     H
H       0.1992   0.1297    0.645     H
H       0.1992    0.355   0.1297     H
H       0.1992    0.355   0.8703     H
H       0.1992    0.645   0.1297     H
H       0.1992    0.645   0.8703     H
H       0.1992   0.8703    0.355     H
H       0.1992   0.8703    0.645     H
H       0.1998   0.0847   0.3961     H
H       0.1998   0.0847   0.6039     H
H       0.1998   0.3961   0.0847     H
H       0.1998   0.3961   0.9153     H
H       0.1998   0.6039   0.0847     H
H       0.1998   0.6039   0.9153     H
H       0.1998   0.9153   0.3961     H
H       0.1998   0.9153   0.6039     H
Zr     0.20694  0.20694  0.27136    Zr
Zr     0.20694  0.20694  0.72864    Zr
Zr     0.20694  0.27136  0.20694    Zr
Zr     0.20694  0.27136  0.79306    Zr
Zr     0.20694  0.72864  0.20694    Zr
Zr     0.20694  0.72864  0.79306    Zr
Zr     0.20694  0.79306  0.27136    Zr
Zr     0.20694  0.79306  0.72864    Zr
O      0.21713  0.21713  0.21713     O
O      0.21713  0.21713  0.78287     O
O      0.21713  0.78287  0.21713     O
O      0.21713  0.78287  0.78287     O
C       0.2202  0.12383  0.36668     C
C       0.2202  0.12383  0.63332     C
C       0.2202  0.36668  0.12383     C
C       0.2202  0.36668  0.87617     C
C       0.2202  0.63332  0.12383     C
C       0.2202  0.63332  0.87617     C
C       0.2202  0.87617  0.36668     C
C       0.2202  0.87617  0.63332     C
C       0.2204   0.0976  0.39161     C
C       0.2204   0.0976  0.60839     C
C       0.2204  0.39161   0.0976     C
C       0.2204  0.39161   0.9024     C
C       0.2204  0.60839   0.0976     C
C       0.2204  0.60839   0.9024     C
C       0.2204   0.9024  0.39161     C
C       0.2204   0.9024  0.60839     C
O       0.2215  0.17214  0.31407     O
O       0.2215  0.17214  0.68593     O
O       0.2215  0.31407  0.17214     O
O       0.2215  0.31407  0.82786     O
O       0.2215  0.68593  0.17214     O
O       0.2215  0.68593  0.82786     O
O       0.2215  0.82786  0.31407     O
O       0.2215  0.82786  0.68593     O
Zr     0.22864  0.29306  0.29306    Zr
Zr     0.22864  0.29306  0.70694    Zr
Zr     0.22864  0.70694  0.29306    Zr
Zr     0.22864  0.70694  0.70694    Zr
O      0.24272  0.24272   0.3078     O
O      0.24272  0.24272   0.6922     O
O      0.24272   0.3078  0.24272     O
O      0.24272   0.3078  0.75728     O
O      0.24272   0.6922  0.24272     O
O      0.24272   0.6922  0.75728     O
O      0.24272  0.75728   0.3078     O
O      0.24272  0.75728   0.6922     O
H       0.2475   0.1293   0.4679     H
H       0.2475   0.1293   0.5321     H
H       0.2475   0.4679   0.1293     H
H       0.2475   0.4679   0.8707     H
H       0.2475   0.5321   0.1293     H
H       0.2475   0.5321   0.8707     H
H       0.2475   0.8707   0.4679     H
H       0.2475   0.8707   0.5321     H
C       0.2478  0.10932  0.48257     C
C       0.2478  0.10932  0.51743     C
C       0.2478  0.48257  0.10932     C
C       0.2478  0.48257  0.89068     C
C       0.2478  0.51743  0.10932     C
C       0.2478  0.51743  0.89068     C
C       0.2478  0.89068  0.48257     C
C       0.2478  0.89068  0.51743     C
C       0.2485  0.07338  0.47118     C
C       0.2485  0.07338  0.52882     C
C       0.2485  0.47118  0.07338     C
C       0.2485  0.47118  0.92662     C
C       0.2485  0.52882  0.07338     C
C       0.2485  0.52882  0.92662     C
C       0.2485  0.92662  0.47118     C
C       0.2485  0.92662  0.52882     C
N       0.2497  0.05305      0.5     N
N       0.2497      0.5  0.05305     N
N       0.2497      0.5  0.94695     N
N       0.2497  0.94695      0.5     N
Ir        0.25      0.0      0.5    Ir
C         0.25  0.06278  0.43722     C
C         0.25  0.06278  0.56278     C
C         0.25  0.09039  0.40961     C
C         0.25  0.09039  0.59039     C
C         0.25  0.14101  0.35899     C
C         0.25  0.14101  0.64101     C
C         0.25  0.16931  0.33069     C
C         0.25  0.16931  0.66931     C
C         0.25  0.33069  0.16931     C
C         0.25  0.33069  0.83069     C
C         0.25  0.35899  0.14101     C
C         0.25  0.35899  0.85899     C
C         0.25  0.40961  0.09039     C
C         0.25  0.40961  0.90961     C
C         0.25  0.43722  0.06278     C
C         0.25  0.43722  0.93722     C
Ir        0.25      0.5      0.0    Ir
C         0.25  0.56278  0.06278     C
C         0.25  0.56278  0.93722     C
C         0.25  0.59039  0.09039     C
C         0.25  0.59039  0.90961     C
C         0.25  0.64101  0.14101     C
C         0.25  0.64101  0.85899     C
C         0.25  0.66931  0.16931     C
C         0.25  0.66931  0.83069     C
C         0.25  0.83069  0.33069     C
C         0.25  0.83069  0.66931     C
C         0.25  0.85899  0.35899     C
C         0.25  0.85899  0.64101     C
C         0.25  0.90961  0.40961     C
C         0.25  0.90961  0.59039     C
C         0.25  0.93722  0.43722     C
C         0.25  0.93722  0.56278     C
N       0.2503      0.0  0.44695     N
N       0.2503      0.0  0.55305     N
N       0.2503  0.44695      0.0     N
N       0.2503  0.55305      0.0     N
C       0.2515  0.02882  0.42662     C
C       0.2515  0.02882  0.57338     C
C       0.2515  0.42662  0.02882     C
C       0.2515  0.42662  0.97118     C
C       0.2515  0.57338  0.02882     C
C       0.2515  0.57338  0.97118     C
C       0.2515  0.97118  0.42662     C
C       0.2515  0.97118  0.57338     C
C       0.2522  0.01743  0.39068     C
C       0.2522  0.01743  0.60932     C
C       0.2522  0.39068  0.01743     C
C       0.2522  0.39068  0.98257     C
C       0.2522  0.60932  0.01743     C
C       0.2522  0.60932  0.98257     C
C       0.2522  0.98257  0.39068     C
C       0.2522  0.98257  0.60932     C
H       0.2525   0.0321   0.3707     H
H       0.2525   0.0321   0.6293     H
H       0.2525   0.3707   0.0321     H
H       0.2525   0.3707   0.9679     H
H       0.2525   0.6293   0.0321     H
H       0.2525   0.6293   0.9679     H
H       0.2525   0.9679   0.3707     H
H       0.2525   0.9679   0.6293     H
O      0.25728   0.1922  0.25728     O
O      0.25728   0.1922  0.74272     O
O      0.25728  0.25728   0.1922     O
O      0.25728  0.25728   0.8078     O
O      0.25728  0.74272   0.1922     O
O      0.25728  0.74272   0.8078     O
O      0.25728   0.8078  0.25728     O
O      0.25728   0.8078  0.74272     O
Zr     0.27136  0.20694  0.20694    Zr
Zr     0.27136  0.20694  0.79306    Zr
Zr     0.27136  0.79306  0.20694    Zr
Zr     0.27136  0.79306  0.79306    Zr
O       0.2785  0.18593  0.32786     O
O       0.2785  0.18593  0.67214     O
O       0.2785  0.32786  0.18593     O
O       0.2785  0.32786  0.81407     O
O       0.2785  0.67214  0.18593     O
O       0.2785  0.67214  0.81407     O
O       0.2785  0.81407  0.32786     O
O       0.2785  0.81407  0.67214     O
C       0.2796  0.10839   0.4024     C
C       0.2796  0.10839   0.5976     C
C       0.2796   0.4024  0.10839     C
C       0.2796   0.4024  0.89161     C
C       0.2796   0.5976  0.10839     C
C       0.2796   0.5976  0.89161     C
C       0.2796  0.89161   0.4024     C
C       0.2796  0.89161   0.5976     C
C       0.2798  0.13332  0.37617     C
C       0.2798  0.13332  0.62383     C
C       0.2798  0.37617  0.13332     C
C       0.2798  0.37617  0.86668     C
C       0.2798  0.62383  0.13332     C
C       0.2798  0.62383  0.86668     C
C       0.2798  0.86668  0.37617     C
C       0.2798  0.86668  0.62383     C
O      0.28287  0.28287  0.28287     O
O      0.28287  0.28287  0.71713     O
O      0.28287  0.71713  0.28287     O
O      0.28287  0.71713  0.71713     O
Zr     0.29306  0.22864  0.29306    Zr
Zr     0.29306  0.22864  0.70694    Zr
Zr     0.29306  0.29306  0.22864    Zr
Zr     0.29306  0.29306  0.77136    Zr
Zr     0.29306  0.70694  0.22864    Zr
Zr     0.29306  0.70694  0.77136    Zr
Zr     0.29306  0.77136  0.29306    Zr
Zr     0.29306  0.77136  0.70694    Zr
H       0.3002   0.1039   0.4153     H
H       0.3002   0.1039   0.5847     H
H       0.3002   0.4153   0.1039     H
H       0.3002   0.4153   0.8961     H
H       0.3002   0.5847   0.1039     H
H       0.3002   0.5847   0.8961     H
H       0.3002   0.8961   0.4153     H
H       0.3002   0.8961   0.5847     H
H       0.3008    0.145   0.3703     H
H       0.3008    0.145   0.6297     H
H       0.3008   0.3703    0.145     H
H       0.3008   0.3703    0.855     H
H       0.3008   0.6297    0.145     H
H       0.3008   0.6297    0.855     H
H       0.3008    0.855   0.3703     H
H       0.3008    0.855   0.6297     H
O       0.3078  0.24272  0.24272     O
O       0.3078  0.24272  0.75728     O
O       0.3078  0.75728  0.24272     O
O       0.3078  0.75728  0.75728     O
Cl      0.3101      0.0      0.5    Cl
Cl      0.3101      0.5      0.0    Cl
O      0.31407  0.17214   0.2215     O
O      0.31407  0.17214   0.7785     O
O      0.31407   0.2215  0.17214     O
O      0.31407   0.2215  0.82786     O
O      0.31407   0.7785  0.17214     O
O      0.31407   0.7785  0.82786     O
O      0.31407  0.82786   0.2215     O
O      0.31407  0.82786   0.7785     O
O      0.32786  0.18593   0.2785     O
O      0.32786  0.18593   0.7215     O
O      0.32786   0.2785  0.18593     O
O      0.32786   0.2785  0.81407     O
O      0.32786   0.7215  0.18593     O
O      0.32786   0.7215  0.81407     O
O      0.32786  0.81407   0.2785     O
O      0.32786  0.81407   0.7215     O
C      0.33069  0.16931     0.25     C
C      0.33069  0.16931     0.75     C
C      0.33069     0.25  0.16931     C
C      0.33069     0.25  0.83069     C
C      0.33069     0.75  0.16931     C
C      0.33069     0.75  0.83069     C
C      0.33069  0.83069     0.25     C
C      0.33069  0.83069     0.75     C
H        0.355   0.1297   0.1992     H
H        0.355   0.1297   0.8008     H
H        0.355   0.1992   0.1297     H
H        0.355   0.1992   0.8703     H
H        0.355   0.8008   0.1297     H
H        0.355   0.8008   0.8703     H
H        0.355   0.8703   0.1992     H
H        0.355   0.8703   0.8008     H
C      0.35899  0.14101     0.25     C
C      0.35899  0.14101     0.75     C
C      0.35899     0.25  0.14101     C
C      0.35899     0.25  0.85899     C
C      0.35899     0.75  0.14101     C
C      0.35899     0.75  0.85899     C
C      0.35899  0.85899     0.25     C
C      0.35899  0.85899     0.75     C
C      0.36668  0.12383   0.2202     C
C      0.36668  0.12383   0.7798     C
C      0.36668   0.2202  0.12383     C
C      0.36668   0.2202  0.87617     C
C      0.36668   0.7798  0.12383     C
C      0.36668   0.7798  0.87617     C
C      0.36668  0.87617   0.2202     C
C      0.36668  0.87617   0.7798     C
H       0.3703    0.145   0.3008     H
H       0.3703    0.145   0.6992     H
H       0.3703   0.3008    0.145     H
H       0.3703   0.3008    0.855     H
H       0.3703   0.6992    0.145     H
H       0.3703   0.6992    0.855     H
H       0.3703    0.855   0.3008     H
H       0.3703    0.855   0.6992     H
H       0.3707   0.0321   0.2525     H
H       0.3707   0.0321   0.7475     H
H       0.3707   0.2525   0.0321     H
H       0.3707   0.2525   0.9679     H
H       0.3707   0.7475   0.0321     H
H       0.3707   0.7475   0.9679     H
H       0.3707   0.9679   0.2525     H
H       0.3707   0.9679   0.7475     H
C      0.37617  0.13332   0.2798     C
C      0.37617  0.13332   0.7202     C
C      0.37617   0.2798  0.13332     C
C      0.37617   0.2798  0.86668     C
C      0.37617   0.7202  0.13332     C
C      0.37617   0.7202  0.86668     C
C      0.37617  0.86668   0.2798     C
C      0.37617  0.86668   0.7202     C
C      0.39068  0.01743   0.2522     C
C      0.39068  0.01743   0.7478     C
C      0.39068   0.2522  0.01743     C
C      0.39068   0.2522  0.98257     C
C      0.39068   0.7478  0.01743     C
C      0.39068   0.7478  0.98257     C
C      0.39068  0.98257   0.2522     C
C      0.39068  0.98257   0.7478     C
C      0.39161   0.0976   0.2204     C
C      0.39161   0.0976   0.7796     C
C      0.39161   0.2204   0.0976     C
C      0.39161   0.2204   0.9024     C
C      0.39161   0.7796   0.0976     C
C      0.39161   0.7796   0.9024     C
C      0.39161   0.9024   0.2204     C
C      0.39161   0.9024   0.7796     C
H       0.3961   0.0847   0.1998     H
H       0.3961   0.0847   0.8002     H
H       0.3961   0.1998   0.0847     H
H       0.3961   0.1998   0.9153     H
H       0.3961   0.8002   0.0847     H
H       0.3961   0.8002   0.9153     H
H       0.3961   0.9153   0.1998     H
H       0.3961   0.9153   0.8002     H
C       0.4024  0.10839   0.2796     C
C       0.4024  0.10839   0.7204     C
C       0.4024   0.2796  0.10839     C
C       0.4024   0.2796  0.89161     C
C       0.4024   0.7204  0.10839     C
C       0.4024   0.7204  0.89161     C
C       0.4024  0.89161   0.2796     C
C       0.4024  0.89161   0.7204     C
C      0.40961  0.09039     0.25     C
C      0.40961  0.09039     0.75     C
C      0.40961     0.25  0.09039     C
C      0.40961     0.25  0.90961     C
C      0.40961     0.75  0.09039     C
C      0.40961     0.75  0.90961     C
C      0.40961  0.90961     0.25     C
C      0.40961  0.90961     0.75     C
H       0.4153   0.1039   0.3002     H
H       0.4153   0.1039   0.6998     H
H       0.4153   0.3002   0.1039     H
H       0.4153   0.3002   0.8961     H
H       0.4153   0.6998   0.1039     H
H       0.4153   0.6998   0.8961     H
H       0.4153   0.8961   0.3002     H
H       0.4153   0.8961   0.6998     H
C      0.42662  0.02882   0.2515     C
C      0.42662  0.02882   0.7485     C
C      0.42662   0.2515  0.02882     C
C      0.42662   0.2515  0.97118     C
C      0.42662   0.7485  0.02882     C
C      0.42662   0.7485  0.97118     C
C      0.42662  0.97118   0.2515     C
C      0.42662  0.97118   0.7485     C
C      0.43722  0.06278     0.25     C
C      0.43722  0.06278     0.75     C
C      0.43722     0.25  0.06278     C
C      0.43722     0.25  0.93722     C
C      0.43722     0.75  0.06278     C
C      0.43722     0.75  0.93722     C
C      0.43722  0.93722     0.25     C
C      0.43722  0.93722     0.75     C
N      0.44695      0.0   0.2503     N
N      0.44695      0.0   0.7497     N
N      0.44695   0.2503      0.0     N
N      0.44695   0.7497      0.0     N
H       0.4679   0.1293   0.2475     H
H       0.4679   0.1293   0.7525     H
H       0.4679   0.2475   0.1293     H
H       0.4679   0.2475   0.8707     H
H       0.4679   0.7525   0.1293     H
H       0.4679   0.7525   0.8707     H
H       0.4679   0.8707   0.2475     H
H       0.4679   0.8707   0.7525     H
C      0.47118  0.07338   0.2485     C
C      0.47118  0.07338   0.7515     C
C      0.47118   0.2485  0.07338     C
C      0.47118   0.2485  0.92662     C
C      0.47118   0.7515  0.07338     C
C      0.47118   0.7515  0.92662     C
C      0.47118  0.92662   0.2485     C
C      0.47118  0.92662   0.7515     C
C      0.48257  0.10932   0.2478     C
C      0.48257  0.10932   0.7522     C
C      0.48257   0.2478  0.10932     C
C      0.48257   0.2478  0.89068     C
C      0.48257   0.7522  0.10932     C
C      0.48257   0.7522  0.89068     C
C      0.48257  0.89068   0.2478     C
C      0.48257  0.89068   0.7522     C
Cl         0.5      0.0   0.1899    Cl
Ir         0.5      0.0     0.25    Ir
Cl         0.5      0.0   0.3101    Cl
Cl         0.5      0.0   0.6899    Cl
Ir         0.5      0.0     0.75    Ir
Cl         0.5      0.0   0.8101    Cl
N          0.5  0.05305   0.2497     N
N          0.5  0.05305   0.7503     N
Cl         0.5   0.1899      0.0    Cl
N          0.5   0.2497  0.05305     N
N          0.5   0.2497  0.94695     N
Ir         0.5     0.25      0.0    Ir
Cl         0.5   0.3101      0.0    Cl
Cl         0.5   0.6899      0.0    Cl
Ir         0.5     0.75      0.0    Ir
N          0.5   0.7503  0.05305     N
N          0.5   0.7503  0.94695     N
Cl         0.5   0.8101      0.0    Cl
N          0.5  0.94695   0.2497     N
N          0.5  0.94695   0.7503     N
C      0.51743  0.10932   0.2478     C
C      0.51743  0.10932   0.7522     C
C      0.51743   0.2478  0.10932     C
C      0.51743   0.2478  0.89068     C
C      0.51743   0.7522  0.10932     C
C      0.51743   0.7522  0.89068     C
C      0.51743  0.89068   0.2478     C
C      0.51743  0.89068   0.7522     C
C      0.52882  0.07338   0.2485     C
C      0.52882  0.07338   0.7515     C
C      0.52882   0.2485  0.07338     C
C      0.52882   0.2485  0.92662     C
C      0.52882   0.7515  0.07338     C
C      0.52882   0.7515  0.92662     C
C      0.52882  0.92662   0.2485     C
C      0.52882  0.92662   0.7515     C
H       0.5321   0.1293   0.2475     H
H       0.5321   0.1293   0.7525     H
H       0.5321   0.2475   0.1293     H
H       0.5321   0.2475   0.8707     H
H       0.5321   0.7525   0.1293     H
H       0.5321   0.7525   0.8707     H
H       0.5321   0.8707   0.2475     H
H       0.5321   0.8707   0.7525     H
N      0.55305      0.0   0.2503     N
N      0.55305      0.0   0.7497     N
N      0.55305   0.2503      0.0     N
N      0.55305   0.7497      0.0     N
C      0.56278  0.06278     0.25     C
C      0.56278  0.06278     0.75     C
C      0.56278     0.25  0.06278     C
C      0.56278     0.25  0.93722     C
C      0.56278     0.75  0.06278     C
C      0.56278     0.75  0.93722     C
C      0.56278  0.93722     0.25     C
C      0.56278  0.93722     0.75     C
C      0.57338  0.02882   0.2515     C
C      0.57338  0.02882   0.7485     C
C      0.57338   0.2515  0.02882     C
C      0.57338   0.2515  0.97118     C
C      0.57338   0.7485  0.02882     C
C      0.57338   0.7485  0.97118     C
C      0.57338  0.97118   0.2515     C
C      0.57338  0.97118   0.7485     C
H       0.5847   0.1039   0.3002     H
H       0.5847   0.1039   0.6998     H
H       0.5847   0.3002   0.1039     H
H       0.5847   0.3002   0.8961     H
H       0.5847   0.6998   0.1039     H
H       0.5847   0.6998   0.8961     H
H       0.5847   0.8961   0.3002     H
H       0.5847   0.8961   0.6998     H
C      0.59039  0.09039     0.25     C
C      0.59039  0.09039     0.75     C
C      0.59039     0.25  0.09039     C
C      0.59039     0.25  0.90961     C
C      0.59039     0.75  0.09039     C
C      0.59039     0.75  0.90961     C
C      0.59039  0.90961     0.25     C
C      0.59039  0.90961     0.75     C
C       0.5976  0.10839   0.2796     C
C       0.5976  0.10839   0.7204     C
C       0.5976   0.2796  0.10839     C
C       0.5976   0.2796  0.89161     C
C       0.5976   0.7204  0.10839     C
C       0.5976   0.7204  0.89161     C
C       0.5976  0.89161   0.2796     C
C       0.5976  0.89161   0.7204     C
H       0.6039   0.0847   0.1998     H
H       0.6039   0.0847   0.8002     H
H       0.6039   0.1998   0.0847     H
H       0.6039   0.1998   0.9153     H
H       0.6039   0.8002   0.0847     H
H       0.6039   0.8002   0.9153     H
H       0.6039   0.9153   0.1998     H
H       0.6039   0.9153   0.8002     H
C      0.60839   0.0976   0.2204     C
C      0.60839   0.0976   0.7796     C
C      0.60839   0.2204   0.0976     C
C      0.60839   0.2204   0.9024     C
C      0.60839   0.7796   0.0976     C
C      0.60839   0.7796   0.9024     C
C      0.60839   0.9024   0.2204     C
C      0.60839   0.9024   0.7796     C
C      0.60932  0.01743   0.2522     C
C      0.60932  0.01743   0.7478     C
C      0.60932   0.2522  0.01743     C
C      0.60932   0.2522  0.98257     C
C      0.60932   0.7478  0.01743     C
C      0.60932   0.7478  0.98257     C
C      0.60932  0.98257   0.2522     C
C      0.60932  0.98257   0.7478     C
C      0.62383  0.13332   0.2798     C
C      0.62383  0.13332   0.7202     C
C      0.62383   0.2798  0.13332     C
C      0.62383   0.2798  0.86668     C
C      0.62383   0.7202  0.13332     C
C      0.62383   0.7202  0.86668     C
C      0.62383  0.86668   0.2798     C
C      0.62383  0.86668   0.7202     C
H       0.6293   0.0321   0.2525     H
H       0.6293   0.0321   0.7475     H
H       0.6293   0.2525   0.0321     H
H       0.6293   0.2525   0.9679     H
H       0.6293   0.7475   0.0321     H
H       0.6293   0.7475   0.9679     H
H       0.6293   0.9679   0.2525     H
H       0.6293   0.9679   0.7475     H
H       0.6297    0.145   0.3008     H
H       0.6297    0.145   0.6992     H
H       0.6297   0.3008    0.145     H
H       0.6297   0.3008    0.855     H
H       0.6297   0.6992    0.145     H
H       0.6297   0.6992    0.855     H
H       0.6297    0.855   0.3008     H
H       0.6297    0.855   0.6992     H
C      0.63332  0.12383   0.2202     C
C      0.63332  0.12383   0.7798     C
C      0.63332   0.2202  0.12383     C
C      0.63332   0.2202  0.87617     C
C      0.63332   0.7798  0.12383     C
C      0.63332   0.7798  0.87617     C
C      0.63332  0.87617   0.2202     C
C      0.63332  0.87617   0.7798     C
C      0.64101  0.14101     0.25     C
C      0.64101  0.14101     0.75     C
C      0.64101     0.25  0.14101     C
C      0.64101     0.25  0.85899     C
C      0.64101     0.75  0.14101     C
C      0.64101     0.75  0.85899     C
C      0.64101  0.85899     0.25     C
C      0.64101  0.85899     0.75     C
H        0.645   0.1297   0.1992     H
H        0.645   0.1297   0.8008     H
H        0.645   0.1992   0.1297     H
H        0.645   0.1992   0.8703     H
H        0.645   0.8008   0.1297     H
H        0.645   0.8008   0.8703     H
H        0.645   0.8703   0.1992     H
H        0.645   0.8703   0.8008     H
C      0.66931  0.16931     0.25     C
C      0.66931  0.16931     0.75     C
C      0.66931     0.25  0.16931     C
C      0.66931     0.25  0.83069     C
C      0.66931     0.75  0.16931     C
C      0.66931     0.75  0.83069     C
C      0.66931  0.83069     0.25     C
C      0.66931  0.83069     0.75     C
O      0.67214  0.18593   0.2785     O
O      0.67214  0.18593   0.7215     O
O      0.67214   0.2785  0.18593     O
O      0.67214   0.2785  0.81407     O
O      0.67214   0.7215  0.18593     O
O      0.67214   0.7215  0.81407     O
O      0.67214  0.81407   0.2785     O
O      0.67214  0.81407   0.7215     O
O      0.68593  0.17214   0.2215     O
O      0.68593  0.17214   0.7785     O
O      0.68593   0.2215  0.17214     O
O      0.68593   0.2215  0.82786     O
O      0.68593   0.7785  0.17214     O
O      0.68593   0.7785  0.82786     O
O      0.68593  0.82786   0.2215     O
O      0.68593  0.82786   0.7785     O
Cl      0.6899      0.0      0.5    Cl
Cl      0.6899      0.5      0.0    Cl
O       0.6922  0.24272  0.24272     O
O       0.6922  0.24272  0.75728     O
O       0.6922  0.75728  0.24272     O
O       0.6922  0.75728  0.75728     O
H       0.6992    0.145   0.3703     H
H       0.6992    0.145   0.6297     H
H       0.6992   0.3703    0.145     H
H       0.6992   0.3703    0.855     H
H       0.6992   0.6297    0.145     H
H       0.6992   0.6297    0.855     H
H       0.6992    0.855   0.3703     H
H       0.6992    0.855   0.6297     H
H       0.6998   0.1039   0.4153     H
H       0.6998   0.1039   0.5847     H
H       0.6998   0.4153   0.1039     H
H       0.6998   0.4153   0.8961     H
H       0.6998   0.5847   0.1039     H
H       0.6998   0.5847   0.8961     H
H       0.6998   0.8961   0.4153     H
H       0.6998   0.8961   0.5847     H
Zr     0.70694  0.22864  0.29306    Zr
Zr     0.70694  0.22864  0.70694    Zr
Zr     0.70694  0.29306  0.22864    Zr
Zr     0.70694  0.29306  0.77136    Zr
Zr     0.70694  0.70694  0.22864    Zr
Zr     0.70694  0.70694  0.77136    Zr
Zr     0.70694  0.77136  0.29306    Zr
Zr     0.70694  0.77136  0.70694    Zr
O      0.71713  0.28287  0.28287     O
O      0.71713  0.28287  0.71713     O
O      0.71713  0.71713  0.28287     O
O      0.71713  0.71713  0.71713     O
C       0.7202  0.13332  0.37617     C
C       0.7202  0.13332  0.62383     C
C       0.7202  0.37617  0.13332     C
C       0.7202  0.37617  0.86668     C
C       0.7202  0.62383  0.13332     C
C       0.7202  0.62383  0.86668     C
C       0.7202  0.86668  0.37617     C
C       0.7202  0.86668  0.62383     C
C       0.7204  0.10839   0.4024     C
C       0.7204  0.10839   0.5976     C
C       0.7204   0.4024  0.10839     C
C       0.7204   0.4024  0.89161     C
C       0.7204   0.5976  0.10839     C
C       0.7204   0.5976  0.89161     C
C       0.7204  0.89161   0.4024     C
C       0.7204  0.89161   0.5976     C
O       0.7215  0.18593  0.32786     O
O       0.7215  0.18593  0.67214     O
O       0.7215  0.32786  0.18593     O
O       0.7215  0.32786  0.81407     O
O       0.7215  0.67214  0.18593     O
O       0.7215  0.67214  0.81407     O
O       0.7215  0.81407  0.32786     O
O       0.7215  0.81407  0.67214     O
Zr     0.72864  0.20694  0.20694    Zr
Zr     0.72864  0.20694  0.79306    Zr
Zr     0.72864  0.79306  0.20694    Zr
Zr     0.72864  0.79306  0.79306    Zr
O      0.74272   0.1922  0.25728     O
O      0.74272   0.1922  0.74272     O
O      0.74272  0.25728   0.1922     O
O      0.74272  0.25728   0.8078     O
O      0.74272  0.74272   0.1922     O
O      0.74272  0.74272   0.8078     O
O      0.74272   0.8078  0.25728     O
O      0.74272   0.8078  0.74272     O
H       0.7475   0.0321   0.3707     H
H       0.7475   0.0321   0.6293     H
H       0.7475   0.3707   0.0321     H
H       0.7475   0.3707   0.9679     H
H       0.7475   0.6293   0.0321     H
H       0.7475   0.6293   0.9679     H
H       0.7475   0.9679   0.3707     H
H       0.7475   0.9679   0.6293     H
C       0.7478  0.01743  0.39068     C
C       0.7478  0.01743  0.60932     C
C       0.7478  0.39068  0.01743     C
C       0.7478  0.39068  0.98257     C
C       0.7478  0.60932  0.01743     C
C       0.7478  0.60932  0.98257     C
C       0.7478  0.98257  0.39068     C
C       0.7478  0.98257  0.60932     C
C       0.7485  0.02882  0.42662     C
C       0.7485  0.02882  0.57338     C
C       0.7485  0.42662  0.02882     C
C       0.7485  0.42662  0.97118     C
C       0.7485  0.57338  0.02882     C
C       0.7485  0.57338  0.97118     C
C       0.7485  0.97118  0.42662     C
C       0.7485  0.97118  0.57338     C
N       0.7497      0.0  0.44695     N
N       0.7497      0.0  0.55305     N
N       0.7497  0.44695      0.0     N
N       0.7497  0.55305      0.0     N
Ir        0.75      0.0      0.5    Ir
C         0.75  0.06278  0.43722     C
C         0.75  0.06278  0.56278     C
C         0.75  0.09039  0.40961     C
C         0.75  0.09039  0.59039     C
C         0.75  0.14101  0.35899     C
C         0.75  0.14101  0.64101     C
C         0.75  0.16931  0.33069     C
C         0.75  0.16931  0.66931     C
C         0.75  0.33069  0.16931     C
C         0.75  0.33069  0.83069     C
C         0.75  0.35899  0.14101     C
C         0.75  0.35899  0.85899     C
C         0.75  0.40961  0.09039     C
C         0.75  0.40961  0.90961     C
C         0.75  0.43722  0.06278     C
C         0.75  0.43722  0.93722     C
Ir        0.75      0.5      0.0    Ir
C         0.75  0.56278  0.06278     C
C         0.75  0.56278  0.93722     C
C         0.75  0.59039  0.09039     C
C         0.75  0.59039  0.90961     C
C         0.75  0.64101  0.14101     C
C         0.75  0.64101  0.85899     C
C         0.75  0.66931  0.16931     C
C         0.75  0.66931  0.83069     C
C         0.75  0.83069  0.33069     C
C         0.75  0.83069  0.66931     C
C         0.75  0.85899  0.35899     C
C         0.75  0.85899  0.64101     C
C         0.75  0.90961  0.40961     C
C         0.75  0.90961  0.59039     C
C         0.75  0.93722  0.43722     C
C         0.75  0.93722  0.56278     C
N       0.7503  0.05305      0.5     N
N       0.7503      0.5  0.05305     N
N       0.7503      0.5  0.94695     N
N       0.7503  0.94695      0.5     N
C       0.7515  0.07338  0.47118     C
C       0.7515  0.07338  0.52882     C
C       0.7515  0.47118  0.07338     C
C       0.7515  0.47118  0.92662     C
C       0.7515  0.52882  0.07338     C
C       0.7515  0.52882  0.92662     C
C       0.7515  0.92662  0.47118     C
C       0.7515  0.92662  0.52882     C
C       0.7522  0.10932  0.48257     C
C       0.7522  0.10932  0.51743     C
C       0.7522  0.48257  0.10932     C
C       0.7522  0.48257  0.89068     C
C       0.7522  0.51743  0.10932     C
C       0.7522  0.51743  0.89068     C
C       0.7522  0.89068  0.48257     C
C       0.7522  0.89068  0.51743     C
H       0.7525   0.1293   0.4679     H
H       0.7525   0.1293   0.5321     H
H       0.7525   0.4679   0.1293     H
H       0.7525   0.4679   0.8707     H
H       0.7525   0.5321   0.1293     H
H       0.7525   0.5321   0.8707     H
H       0.7525   0.8707   0.4679     H
H       0.7525   0.8707   0.5321     H
O      0.75728  0.24272   0.3078     O
O      0.75728  0.24272   0.6922     O
O      0.75728   0.3078  0.24272     O
O      0.75728   0.3078  0.75728     O
O      0.75728   0.6922  0.24272     O
O      0.75728   0.6922  0.75728     O
O      0.75728  0.75728   0.3078     O
O      0.75728  0.75728   0.6922     O
Zr     0.77136  0.29306  0.29306    Zr
Zr     0.77136  0.29306  0.70694    Zr
Zr     0.77136  0.70694  0.29306    Zr
Zr     0.77136  0.70694  0.70694    Zr
O       0.7785  0.17214  0.31407     O
O       0.7785  0.17214  0.68593     O
O       0.7785  0.31407  0.17214     O
O       0.7785  0.31407  0.82786     O
O       0.7785  0.68593  0.17214     O
O       0.7785  0.68593  0.82786     O
O       0.7785  0.82786  0.31407     O
O       0.7785  0.82786  0.68593     O
C       0.7796   0.0976  0.39161     C
C       0.7796   0.0976  0.60839     C
C       0.7796  0.39161   0.0976     C
C       0.7796  0.39161   0.9024     C
C       0.7796  0.60839   0.0976     C
C       0.7796  0.60839   0.9024     C
C       0.7796   0.9024  0.39161     C
C       0.7796   0.9024  0.60839     C
C       0.7798  0.12383  0.36668     C
C       0.7798  0.12383  0.63332     C
C       0.7798  0.36668  0.12383     C
C       0.7798  0.36668  0.87617     C
C       0.7798  0.63332  0.12383     C
C       0.7798  0.63332  0.87617     C
C       0.7798  0.87617  0.36668     C
C       0.7798  0.87617  0.63332     C
O      0.78287  0.21713  0.21713     O
O      0.78287  0.21713  0.78287     O
O      0.78287  0.78287  0.21713     O
O      0.78287  0.78287  0.78287     O
Zr     0.79306  0.20694  0.27136    Zr
Zr     0.79306  0.20694  0.72864    Zr
Zr     0.79306  0.27136  0.20694    Zr
Zr     0.79306  0.27136  0.79306    Zr
Zr     0.79306  0.72864  0.20694    Zr
Zr     0.79306  0.72864  0.79306    Zr
Zr     0.79306  0.79306  0.27136    Zr
Zr     0.79306  0.79306  0.72864    Zr
H       0.8002   0.0847   0.3961     H
H       0.8002   0.0847   0.6039     H
H       0.8002   0.3961   0.0847     H
H       0.8002   0.3961   0.9153     H
H       0.8002   0.6039   0.0847     H
H       0.8002   0.6039   0.9153     H
H       0.8002   0.9153   0.3961     H
H       0.8002   0.9153   0.6039     H
H       0.8008   0.1297    0.355     H
H       0.8008   0.1297    0.645     H
H       0.8008    0.355   0.1297     H
H       0.8008    0.355   0.8703     H
H       0.8008    0.645   0.1297     H
H       0.8008    0.645   0.8703     H
H       0.8008   0.8703    0.355     H
H       0.8008   0.8703    0.645     H
O       0.8078  0.25728  0.25728     O
O       0.8078  0.25728  0.74272     O
O       0.8078  0.74272  0.25728     O
O       0.8078  0.74272  0.74272     O
Cl      0.8101      0.0      0.5    Cl
Cl      0.8101      0.5      0.0    Cl
O      0.81407   0.2785  0.32786     O
O      0.81407   0.2785  0.67214     O
O      0.81407  0.32786   0.2785     O
O      0.81407  0.32786   0.7215     O
O      0.81407  0.67214   0.2785     O
O      0.81407  0.67214   0.7215     O
O      0.81407   0.7215  0.32786     O
O      0.81407   0.7215  0.67214     O
O      0.82786   0.2215  0.31407     O
O      0.82786   0.2215  0.68593     O
O      0.82786  0.31407   0.2215     O
O      0.82786  0.31407   0.7785     O
O      0.82786  0.68593   0.2215     O
O      0.82786  0.68593   0.7785     O
O      0.82786   0.7785  0.31407     O
O      0.82786   0.7785  0.68593     O
C      0.83069     0.25  0.33069     C
C      0.83069     0.25  0.66931     C
C      0.83069  0.33069     0.25     C
C      0.83069  0.33069     0.75     C
C      0.83069  0.66931     0.25     C
C      0.83069  0.66931     0.75     C
C      0.83069     0.75  0.33069     C
C      0.83069     0.75  0.66931     C
H        0.855   0.3008   0.3703     H
H        0.855   0.3008   0.6297     H
H        0.855   0.3703   0.3008     H
H        0.855   0.3703   0.6992     H
H        0.855   0.6297   0.3008     H
H        0.855   0.6297   0.6992     H
H        0.855   0.6992   0.3703     H
H        0.855   0.6992   0.6297     H
C      0.85899     0.25  0.35899     C
C      0.85899     0.25  0.64101     C
C      0.85899  0.35899     0.25     C
C      0.85899  0.35899     0.75     C
C      0.85899  0.64101     0.25     C
C      0.85899  0.64101     0.75     C
C      0.85899     0.75  0.35899     C
C      0.85899     0.75  0.64101     C
C      0.86668   0.2798  0.37617     C
C      0.86668   0.2798  0.62383     C
C      0.86668  0.37617   0.2798     C
C      0.86668  0.37617   0.7202     C
C      0.86668  0.62383   0.2798     C
C      0.86668  0.62383   0.7202     C
C      0.86668   0.7202  0.37617     C
C      0.86668   0.7202  0.62383     C
H       0.8703   0.1992    0.355     H
H       0.8703   0.1992    0.645     H
H       0.8703    0.355   0.1992     H
H       0.8703    0.355   0.8008     H
H       0.8703    0.645   0.1992     H
H       0.8703    0.645   0.8008     H
H       0.8703   0.8008    0.355     H
H       0.8703   0.8008    0.645     H
H       0.8707   0.2475   0.4679     H
H       0.8707   0.2475   0.5321     H
H       0.8707   0.4679   0.2475     H
H       0.8707   0.4679   0.7525     H
H       0.8707   0.5321   0.2475     H
H       0.8707   0.5321   0.7525     H
H       0.8707   0.7525   0.4679     H
H       0.8707   0.7525   0.5321     H
C      0.87617   0.2202  0.36668     C
C      0.87617   0.2202  0.63332     C
C      0.87617  0.36668   0.2202     C
C      0.87617  0.36668   0.7798     C
C      0.87617  0.63332   0.2202     C
C      0.87617  0.63332   0.7798     C
C      0.87617   0.7798  0.36668     C
C      0.87617   0.7798  0.63332     C
C      0.89068   0.2478  0.48257     C
C      0.89068   0.2478  0.51743     C
C      0.89068  0.48257   0.2478     C
C      0.89068  0.48257   0.7522     C
C      0.89068  0.51743   0.2478     C
C      0.89068  0.51743   0.7522     C
C      0.89068   0.7522  0.48257     C
C      0.89068   0.7522  0.51743     C
C      0.89161   0.2796   0.4024     C
C      0.89161   0.2796   0.5976     C
C      0.89161   0.4024   0.2796     C
C      0.89161   0.4024   0.7204     C
C      0.89161   0.5976   0.2796     C
C      0.89161   0.5976   0.7204     C
C      0.89161   0.7204   0.4024     C
C      0.89161   0.7204   0.5976     C
H       0.8961   0.3002   0.4153     H
H       0.8961   0.3002   0.5847     H
H       0.8961   0.4153   0.3002     H
H       0.8961   0.4153   0.6998     H
H       0.8961   0.5847   0.3002     H
H       0.8961   0.5847   0.6998     H
H       0.8961   0.6998   0.4153     H
H       0.8961   0.6998   0.5847     H
C       0.9024   0.2204  0.39161     C
C       0.9024   0.2204  0.60839     C
C       0.9024  0.39161   0.2204     C
C       0.9024  0.39161   0.7796     C
C       0.9024  0.60839   0.2204     C
C       0.9024  0.60839   0.7796     C
C       0.9024   0.7796  0.39161     C
C       0.9024   0.7796  0.60839     C
C      0.90961     0.25  0.40961     C
C      0.90961     0.25  0.59039     C
C      0.90961  0.40961     0.25     C
C      0.90961  0.40961     0.75     C
C      0.90961  0.59039     0.25     C
C      0.90961  0.59039     0.75     C
C      0.90961     0.75  0.40961     C
C      0.90961     0.75  0.59039     C
H       0.9153   0.1998   0.3961     H
H       0.9153   0.1998   0.6039     H
H       0.9153   0.3961   0.1998     H
H       0.9153   0.3961   0.8002     H
H       0.9153   0.6039   0.1998     H
H       0.9153   0.6039   0.8002     H
H       0.9153   0.8002   0.3961     H
H       0.9153   0.8002   0.6039     H
C      0.92662   0.2485  0.47118     C
C      0.92662   0.2485  0.52882     C
C      0.92662  0.47118   0.2485     C
C      0.92662  0.47118   0.7515     C
C      0.92662  0.52882   0.2485     C
C      0.92662  0.52882   0.7515     C
C      0.92662   0.7515  0.47118     C
C      0.92662   0.7515  0.52882     C
C      0.93722     0.25  0.43722     C
C      0.93722     0.25  0.56278     C
C      0.93722  0.43722     0.25     C
C      0.93722  0.43722     0.75     C
C      0.93722  0.56278     0.25     C
C      0.93722  0.56278     0.75     C
C      0.93722     0.75  0.43722     C
C      0.93722     0.75  0.56278     C
N      0.94695   0.2497      0.5     N
N      0.94695      0.5   0.2497     N
N      0.94695      0.5   0.7503     N
N      0.94695   0.7503      0.5     N
H       0.9679   0.2525   0.3707     H
H       0.9679   0.2525   0.6293     H
H       0.9679   0.3707   0.2525     H
H       0.9679   0.3707   0.7475     H
H       0.9679   0.6293   0.2525     H
H       0.9679   0.6293   0.7475     H
H       0.9679   0.7475   0.3707     H
H       0.9679   0.7475   0.6293     H
C      0.97118   0.2515  0.42662     C
C      0.97118   0.2515  0.57338     C
C      0.97118  0.42662   0.2515     C
C      0.97118  0.42662   0.7485     C
C      0.97118  0.57338   0.2515     C
C      0.97118  0.57338   0.7485     C
C      0.97118   0.7485  0.42662     C
C      0.97118   0.7485  0.57338     C
C      0.98257   0.2522  0.39068     C
C      0.98257   0.2522  0.60932     C
C      0.98257  0.39068   0.2522     C
C      0.98257  0.39068   0.7478     C
C      0.98257  0.60932   0.2522     C
C      0.98257  0.60932   0.7478     C
C      0.98257   0.7478  0.39068     C
C      0.98257   0.7478  0.60932     C
