data_I
_chemical_name_common  '/home/zhangsd/repos/MofS-CGCNN/ML/data/SSD/clean_cifs/VALWUD_clean'
_cell_length_a 22.29730
_cell_length_b 22.29730
_cell_length_c 22.29730
_cell_angle_alpha 90.00000
_cell_angle_beta  90.00000
_cell_angle_gamma 90.00000
_space_group_name_H-M_alt      'P 1'


loop_
_space_group_symop_operation_xyz
  'x, y, z' 

loop_
_atom_site_label
_atom_site_fract_x
_atom_site_fract_y
_atom_site_fract_z
_atom_site_type_symbol
H       0.0082   0.2421   0.7186     H
H       0.0082   0.7579   0.2814     H
C      0.01017   0.2006  0.71468     C
C      0.01017   0.7994  0.28532     C
N      0.01357  0.29611  0.97701     N
N      0.01357  0.70389  0.02299     N
C      0.01554  0.07784   0.7058     C
C      0.01554  0.92216   0.2942     C
N      0.02299  0.01357  0.70389     N
N      0.02299  0.98643  0.29611     N
C      0.03947  0.10635  0.28926     C
C      0.03947  0.89365  0.71074     C
C      0.04227  0.16747  0.28544     C
C      0.04227  0.83253  0.71456     C
C      0.06556  0.17299  0.70902     C
C      0.06556  0.82701  0.29098     C
C      0.06836  0.11104  0.70479     C
C      0.06836  0.88896  0.29521     C
H       0.0746   0.0838   0.2885     H
H       0.0746   0.9162   0.7115     H
C      0.07784   0.2942  0.98446     C
C      0.07784   0.7058  0.01554     C
H       0.0838   0.2885   0.0746     H
H       0.0838   0.7115   0.9254     H
H       0.0918   0.2987   0.8948     H
H       0.0918   0.7013   0.1052     H
C      0.10443  0.19663  0.27921     C
C      0.10443  0.80337  0.72079     C
H       0.1052   0.0918   0.7013     H
H       0.1052   0.9082   0.2987     H
O      0.10535   0.2497  0.26294     O
O      0.10535   0.7503  0.73706     O
C      0.10635  0.28926  0.03947     C
C      0.10635  0.71074  0.96053     C
C      0.11104  0.29521  0.93164     C
C      0.11104  0.70479  0.06836     C
O      0.12158  0.26171  0.71925     O
O      0.12158  0.73829  0.28075     O
C      0.12401   0.2069  0.70784     C
C      0.12401   0.7931  0.29216     C
O      0.14759  0.16296  0.29147     O
O      0.14759  0.83704  0.70853     O
O      0.16296  0.29147  0.14759     O
O      0.16296  0.70853  0.85241     O
C      0.16747  0.28544  0.04227     C
C      0.16747  0.71456  0.95773     C
O      0.17002  0.17627  0.69599     O
O      0.17002  0.82373  0.30401     O
C      0.17299  0.29098  0.93444     C
C      0.17299  0.70902  0.06556     C
O      0.17627  0.30401  0.82998     O
O      0.17627  0.69599  0.17002     O
Co     0.17686  0.30823  0.23986    Co
Co     0.17686  0.69177  0.76014    Co
Co     0.19177  0.32314  0.73986    Co
Co     0.19177  0.67686  0.26014    Co
O      0.19599  0.32373  0.32998     O
O      0.19599  0.67627  0.67002     O
C      0.19663  0.27921  0.10443     C
C      0.19663  0.72079  0.89557     C
C       0.2006  0.28532  0.98983     C
C       0.2006  0.71468  0.01017     C
H       0.2013   0.4082   0.3948     H
H       0.2013   0.5918   0.6052     H
N      0.20389  0.48643  0.47701     N
N      0.20389  0.51357  0.52299     N
C      0.20479  0.38896  0.43164     C
C      0.20479  0.61104  0.56836     C
C       0.2058  0.42216  0.48446     C
C       0.2058  0.57784  0.51554     C
C       0.2069  0.29216  0.87599     C
C       0.2069  0.70784  0.12401     C
C      0.20784   0.2931  0.37599     C
C      0.20784   0.7069  0.62401     C
O      0.20853  0.33704  0.64759     O
O      0.20853  0.66296  0.35241     O
C      0.20902  0.32701  0.43444     C
C      0.20902  0.67299  0.56556     C
C      0.21074  0.39365  0.53947     C
C      0.21074  0.60635  0.46053     C
H       0.2115   0.4162   0.5746     H
H       0.2115   0.5838   0.4254     H
C      0.21456  0.33253  0.54227     C
C      0.21456  0.66747  0.45773     C
C      0.21468   0.2994  0.48983     C
C      0.21468   0.7006  0.51017     C
H       0.2186   0.2579   0.4918     H
H       0.2186   0.7421   0.5082     H
O      0.21925  0.23829  0.37842     O
O      0.21925  0.76171  0.62158     O
C      0.22079  0.30337  0.60443     C
C      0.22079  0.69663  0.39557     C
O      0.23645  0.23645  0.23645     O
O      0.23645  0.76355  0.76355     O
O      0.23706   0.2503  0.60535     O
O      0.23706   0.7497  0.39465     O
O      0.23829  0.37842  0.21925     O
O      0.23829  0.62158  0.78075     O
Co     0.23986  0.17686  0.30823    Co
Co     0.23986  0.82314  0.69177    Co
H       0.2421   0.2814   0.9918     H
H       0.2421   0.7186   0.0082     H
O       0.2497  0.26294  0.10535     O
O       0.2497  0.73706  0.89465     O
O       0.2503  0.39465  0.76294     O
O       0.2503  0.60535  0.23706     O
H       0.2579   0.4918   0.2186     H
H       0.2579   0.5082   0.7814     H
Co     0.26014  0.19177  0.67686    Co
Co     0.26014  0.80823  0.32314    Co
O      0.26171  0.28075  0.87842     O
O      0.26171  0.71925  0.12158     O
O      0.26294  0.10535   0.2497     O
O      0.26294  0.89465   0.7503     O
O      0.26355  0.26355  0.73645     O
O      0.26355  0.73645  0.26355     O
C      0.27921  0.10443  0.19663     C
C      0.27921  0.89557  0.80337     C
O      0.28075  0.12158  0.73829     O
O      0.28075  0.87842  0.26171     O
H       0.2814   0.0082   0.7579     H
H       0.2814   0.9918   0.2421     H
C      0.28532  0.01017   0.7994     C
C      0.28532  0.98983   0.2006     C
C      0.28544  0.04227  0.16747     C
C      0.28544  0.95773  0.83253     C
H       0.2885   0.0746   0.0838     H
H       0.2885   0.9254   0.9162     H
C      0.28926  0.03947  0.10635     C
C      0.28926  0.96053  0.89365     C
C      0.29098  0.06556  0.82701     C
C      0.29098  0.93444  0.17299     C
O      0.29147  0.14759  0.16296     O
O      0.29147  0.85241  0.83704     O
C      0.29216  0.12401   0.7931     C
C      0.29216  0.87599   0.2069     C
C       0.2931  0.37599  0.20784     C
C       0.2931  0.62401  0.79216     C
C       0.2942  0.01554  0.92216     C
C       0.2942  0.98446  0.07784     C
C      0.29521  0.06836  0.88896     C
C      0.29521  0.93164  0.11104     C
N      0.29611  0.02299  0.98643     N
N      0.29611  0.97701  0.01357     N
H       0.2987   0.1052   0.9082     H
H       0.2987   0.8948   0.0918     H
C       0.2994  0.48983  0.21468     C
C       0.2994  0.51017  0.78532     C
C      0.30337  0.39557  0.77921     C
C      0.30337  0.60443  0.22079     C
O      0.30401  0.17002  0.82373     O
O      0.30401  0.82998  0.17627     O
Co     0.30823  0.23986  0.17686    Co
Co     0.30823  0.76014  0.82314    Co
Co     0.32314  0.26014  0.80823    Co
Co     0.32314  0.73986  0.19177    Co
O      0.32373  0.32998  0.19599     O
O      0.32373  0.67002  0.80401     O
C      0.32701  0.43444  0.20902     C
C      0.32701  0.56556  0.79098     C
O      0.32998  0.19599  0.32373     O
O      0.32998  0.80401  0.67627     O
C      0.33253  0.45773  0.78544     C
C      0.33253  0.54227  0.21456     C
O      0.33704  0.35241  0.79147     O
O      0.33704  0.64759  0.20853     O
O      0.35241  0.20853  0.66296     O
O      0.35241  0.79147  0.33704     O
C      0.37599  0.20784   0.2931     C
C      0.37599  0.79216   0.7069     C
O      0.37842  0.21925  0.23829     O
O      0.37842  0.78075  0.76171     O
C      0.38896  0.43164  0.20479     C
C      0.38896  0.56836  0.79521     C
C      0.39365  0.46053  0.78926     C
C      0.39365  0.53947  0.21074     C
O      0.39465  0.23706   0.7497     O
O      0.39465  0.76294   0.2503     O
H       0.3948   0.2013   0.4082     H
H       0.3948   0.7987   0.5918     H
C      0.39557  0.22079  0.69663     C
C      0.39557  0.77921  0.30337     C
H       0.4082   0.3948   0.2013     H
H       0.4082   0.6052   0.7987     H
H       0.4162   0.4254   0.7885     H
H       0.4162   0.5746   0.2115     H
C      0.42216  0.48446   0.2058     C
C      0.42216  0.51554   0.7942     C
H       0.4254   0.2115   0.5838     H
H       0.4254   0.7885   0.4162     H
C      0.43164  0.20479  0.38896     C
C      0.43164  0.79521  0.61104     C
C      0.43444  0.20902  0.32701     C
C      0.43444  0.79098  0.67299     C
C      0.45773  0.21456  0.66747     C
C      0.45773  0.78544  0.33253     C
C      0.46053  0.21074  0.60635     C
C      0.46053  0.78926  0.39365     C
N      0.47701  0.20389  0.48643     N
N      0.47701  0.79611  0.51357     N
C      0.48446   0.2058  0.42216     C
C      0.48446   0.7942  0.57784     C
N      0.48643  0.47701  0.20389     N
N      0.48643  0.52299  0.79611     N
C      0.48983  0.21468   0.2994     C
C      0.48983  0.78532   0.7006     C
H       0.4918   0.2186   0.2579     H
H       0.4918   0.7814   0.7421     H
H       0.5082   0.2186   0.7421     H
H       0.5082   0.7814   0.2579     H
C      0.51017  0.21468   0.7006     C
C      0.51017  0.78532   0.2994     C
N      0.51357  0.47701  0.79611     N
N      0.51357  0.52299  0.20389     N
C      0.51554   0.2058  0.57784     C
C      0.51554   0.7942  0.42216     C
N      0.52299  0.20389  0.51357     N
N      0.52299  0.79611  0.48643     N
C      0.53947  0.21074  0.39365     C
C      0.53947  0.78926  0.60635     C
C      0.54227  0.21456  0.33253     C
C      0.54227  0.78544  0.66747     C
C      0.56556  0.20902  0.67299     C
C      0.56556  0.79098  0.32701     C
C      0.56836  0.20479  0.61104     C
C      0.56836  0.79521  0.38896     C
H       0.5746   0.2115   0.4162     H
H       0.5746   0.7885   0.5838     H
C      0.57784  0.48446   0.7942     C
C      0.57784  0.51554   0.2058     C
H       0.5838   0.4254   0.2115     H
H       0.5838   0.5746   0.7885     H
H       0.5918   0.3948   0.7987     H
H       0.5918   0.6052   0.2013     H
C      0.60443  0.22079  0.30337     C
C      0.60443  0.77921  0.69663     C
H       0.6052   0.2013   0.5918     H
H       0.6052   0.7987   0.4082     H
O      0.60535  0.23706   0.2503     O
O      0.60535  0.76294   0.7497     O
C      0.60635  0.46053  0.21074     C
C      0.60635  0.53947  0.78926     C
C      0.61104  0.43164  0.79521     C
C      0.61104  0.56836  0.20479     C
O      0.62158  0.21925  0.76171     O
O      0.62158  0.78075  0.23829     O
C      0.62401  0.20784   0.7069     C
C      0.62401  0.79216   0.2931     C
O      0.64759  0.20853  0.33704     O
O      0.64759  0.79147  0.66296     O
O      0.66296  0.35241  0.20853     O
O      0.66296  0.64759  0.79147     O
C      0.66747  0.45773  0.21456     C
C      0.66747  0.54227  0.78544     C
O      0.67002  0.19599  0.67627     O
O      0.67002  0.80401  0.32373     O
C      0.67299  0.43444  0.79098     C
C      0.67299  0.56556  0.20902     C
O      0.67627  0.32998  0.80401     O
O      0.67627  0.67002  0.19599     O
Co     0.67686  0.26014  0.19177    Co
Co     0.67686  0.73986  0.80823    Co
Co     0.69177  0.23986  0.82314    Co
Co     0.69177  0.76014  0.17686    Co
O      0.69599  0.17002  0.17627     O
O      0.69599  0.82998  0.82373     O
C      0.69663  0.39557  0.22079     C
C      0.69663  0.60443  0.77921     C
C       0.7006  0.48983  0.78532     C
C       0.7006  0.51017  0.21468     C
H       0.7013   0.1052   0.0918     H
H       0.7013   0.8948   0.9082     H
N      0.70389  0.02299  0.01357     N
N      0.70389  0.97701  0.98643     N
C      0.70479  0.06836  0.11104     C
C      0.70479  0.93164  0.88896     C
C       0.7058  0.01554  0.07784     C
C       0.7058  0.98446  0.92216     C
C       0.7069  0.37599  0.79216     C
C       0.7069  0.62401  0.20784     C
C      0.70784  0.12401   0.2069     C
C      0.70784  0.87599   0.7931     C
O      0.70853  0.14759  0.83704     O
O      0.70853  0.85241  0.16296     O
C      0.70902  0.06556  0.17299     C
C      0.70902  0.93444  0.82701     C
C      0.71074  0.03947  0.89365     C
C      0.71074  0.96053  0.10635     C
H       0.7115   0.0746   0.9162     H
H       0.7115   0.9254   0.0838     H
C      0.71456  0.04227  0.83253     C
C      0.71456  0.95773  0.16747     C
C      0.71468  0.01017   0.2006     C
C      0.71468  0.98983   0.7994     C
H       0.7186   0.0082   0.2421     H
H       0.7186   0.9918   0.7579     H
O      0.71925  0.12158  0.26171     O
O      0.71925  0.87842  0.73829     O
C      0.72079  0.10443  0.80337     C
C      0.72079  0.89557  0.19663     C
O      0.73645  0.26355  0.26355     O
O      0.73645  0.73645  0.73645     O
O      0.73706  0.10535   0.7503     O
O      0.73706  0.89465   0.2497     O
O      0.73829  0.28075  0.12158     O
O      0.73829  0.71925  0.87842     O
Co     0.73986  0.19177  0.32314    Co
Co     0.73986  0.80823  0.67686    Co
H       0.7421   0.4918   0.7814     H
H       0.7421   0.5082   0.2186     H
O       0.7497  0.39465  0.23706     O
O       0.7497  0.60535  0.76294     O
O       0.7503  0.26294  0.89465     O
O       0.7503  0.73706  0.10535     O
H       0.7579   0.2814   0.0082     H
H       0.7579   0.7186   0.9918     H
Co     0.76014  0.17686  0.69177    Co
Co     0.76014  0.82314  0.30823    Co
O      0.76171  0.37842  0.78075     O
O      0.76171  0.62158  0.21925     O
O      0.76294   0.2503  0.39465     O
O      0.76294   0.7497  0.60535     O
O      0.76355  0.23645  0.76355     O
O      0.76355  0.76355  0.23645     O
C      0.77921  0.30337  0.39557     C
C      0.77921  0.69663  0.60443     C
O      0.78075  0.23829  0.62158     O
O      0.78075  0.76171  0.37842     O
H       0.7814   0.2579   0.5082     H
H       0.7814   0.7421   0.4918     H
C      0.78532   0.2994  0.51017     C
C      0.78532   0.7006  0.48983     C
C      0.78544  0.33253  0.45773     C
C      0.78544  0.66747  0.54227     C
H       0.7885   0.4162   0.4254     H
H       0.7885   0.5838   0.5746     H
C      0.78926  0.39365  0.46053     C
C      0.78926  0.60635  0.53947     C
C      0.79098  0.32701  0.56556     C
C      0.79098  0.67299  0.43444     C
O      0.79147  0.33704  0.35241     O
O      0.79147  0.66296  0.64759     O
C      0.79216   0.2931  0.62401     C
C      0.79216   0.7069  0.37599     C
C       0.7931  0.29216  0.12401     C
C       0.7931  0.70784  0.87599     C
C       0.7942  0.42216  0.51554     C
C       0.7942  0.57784  0.48446     C
C      0.79521  0.38896  0.56836     C
C      0.79521  0.61104  0.43164     C
N      0.79611  0.48643  0.52299     N
N      0.79611  0.51357  0.47701     N
H       0.7987   0.4082   0.6052     H
H       0.7987   0.5918   0.3948     H
C       0.7994  0.28532  0.01017     C
C       0.7994  0.71468  0.98983     C
C      0.80337  0.27921  0.89557     C
C      0.80337  0.72079  0.10443     C
O      0.80401  0.32373  0.67002     O
O      0.80401  0.67627  0.32998     O
Co     0.80823  0.32314  0.26014    Co
Co     0.80823  0.67686  0.73986    Co
Co     0.82314  0.30823  0.76014    Co
Co     0.82314  0.69177  0.23986    Co
O      0.82373  0.30401  0.17002     O
O      0.82373  0.69599  0.82998     O
C      0.82701  0.29098  0.06556     C
C      0.82701  0.70902  0.93444     C
O      0.82998  0.17627  0.30401     O
O      0.82998  0.82373  0.69599     O
C      0.83253  0.28544  0.95773     C
C      0.83253  0.71456  0.04227     C
O      0.83704  0.29147  0.85241     O
O      0.83704  0.70853  0.14759     O
O      0.85241  0.16296  0.70853     O
O      0.85241  0.83704  0.29147     O
C      0.87599   0.2069  0.29216     C
C      0.87599   0.7931  0.70784     C
O      0.87842  0.26171  0.28075     O
O      0.87842  0.73829  0.71925     O
C      0.88896  0.29521  0.06836     C
C      0.88896  0.70479  0.93164     C
C      0.89365  0.28926  0.96053     C
C      0.89365  0.71074  0.03947     C
O      0.89465   0.2497  0.73706     O
O      0.89465   0.7503  0.26294     O
H       0.8948   0.0918   0.2987     H
H       0.8948   0.9082   0.7013     H
C      0.89557  0.19663  0.72079     C
C      0.89557  0.80337  0.27921     C
H       0.9082   0.2987   0.1052     H
H       0.9082   0.7013   0.8948     H
H       0.9162   0.2885   0.9254     H
H       0.9162   0.7115   0.0746     H
C      0.92216   0.2942  0.01554     C
C      0.92216   0.7058  0.98446     C
H       0.9254   0.0838   0.7115     H
H       0.9254   0.9162   0.2885     H
C      0.93164  0.11104  0.29521     C
C      0.93164  0.88896  0.70479     C
C      0.93444  0.17299  0.29098     C
C      0.93444  0.82701  0.70902     C
C      0.95773  0.16747  0.71456     C
C      0.95773  0.83253  0.28544     C
C      0.96053  0.10635  0.71074     C
C      0.96053  0.89365  0.28926     C
N      0.97701  0.01357  0.29611     N
N      0.97701  0.98643  0.70389     N
C      0.98446  0.07784   0.2942     C
C      0.98446  0.92216   0.7058     C
N      0.98643  0.29611  0.02299     N
N      0.98643  0.70389  0.97701     N
C      0.98983   0.2006  0.28532     C
C      0.98983   0.7994  0.71468     C
H       0.9918   0.2421   0.2814     H
H       0.9918   0.7579   0.7186     H
