data_I
_chemical_name_common  '/home/zhangsd/repos/MofS-CGCNN/ML/data/SSD/clean_cifs/VALXOY_clean'
_cell_length_a 21.96920
_cell_length_b 21.96920
_cell_length_c 21.96920
_cell_angle_alpha 90.00000
_cell_angle_beta  90.00000
_cell_angle_gamma 90.00000
_space_group_name_H-M_alt      'P 1'


loop_
_space_group_symop_operation_xyz
  'x, y, z' 

loop_
_atom_site_label
_atom_site_fract_x
_atom_site_fract_y
_atom_site_fract_z
_atom_site_type_symbol
H       0.0082    0.243   0.7192     H
H       0.0082    0.757   0.2808     H
C       0.0102   0.2011   0.7134     C
C       0.0102   0.7989   0.2866     C
C       0.0154   0.0783   0.6946     C
C       0.0154   0.9217   0.3054     C
N       0.0156   0.3087   0.9758     N
N       0.0156   0.6913   0.0242     N
N       0.0242   0.0156   0.6913     N
N       0.0242   0.9844   0.3087     N
C        0.041   0.1083   0.2994     C
C        0.041   0.8917   0.7006     C
C       0.0446   0.1688   0.2859     C
C       0.0446   0.8312   0.7141     C
C       0.0667   0.1761   0.7048     C
C       0.0667   0.8239   0.2952     C
C       0.0668   0.1116   0.6968     C
C       0.0668   0.8884   0.3032     C
H       0.0767   0.0862   0.3047     H
H       0.0767   0.9138   0.6953     H
C       0.0783   0.3054   0.9846     C
C       0.0783   0.6946   0.0154     C
H       0.0862   0.3047   0.0767     H
H       0.0862   0.6953   0.9233     H
H       0.0917    0.307    0.896     H
H       0.0917    0.693    0.104     H
H        0.104   0.0917    0.693     H
H        0.104   0.9083    0.307     H
O      0.10656   0.2499   0.2594     O
O      0.10656   0.7501   0.7406     O
C       0.1068   0.1978     0.28     C
C       0.1068   0.8022     0.72     C
C       0.1083   0.2994    0.041     C
C       0.1083   0.7006    0.959     C
C       0.1116   0.3032   0.9332     C
C       0.1116   0.6968   0.0668     C
O      0.12387   0.2651  0.72313     O
O      0.12387   0.7349  0.27687     O
C       0.1254   0.2089   0.7063     C
C       0.1254   0.7911   0.2937     C
O       0.1503   0.1641   0.2962     O
O       0.1503   0.8359   0.7038     O
O       0.1641   0.2962   0.1503     O
O       0.1641   0.7038   0.8497     O
C       0.1688   0.2859   0.0446     C
C       0.1688   0.7141   0.9554     C
O       0.1718     0.18  0.69039     O
O       0.1718     0.82  0.30961     O
C       0.1761   0.2952   0.9333     C
C       0.1761   0.7048   0.0667     C
Mg     0.17826  0.30647  0.24035    Mg
Mg     0.17826  0.69353  0.75965    Mg
O         0.18  0.30961   0.8282     O
O         0.18  0.69039   0.1718     O
O      0.19039     0.32   0.3282     O
O      0.19039     0.68   0.6718     O
N       0.1913   0.4844   0.4758     N
N       0.1913   0.5156   0.5242     N
H        0.193   0.4083    0.396     H
H        0.193   0.5917    0.604     H
Mg     0.19353  0.32174  0.74035    Mg
Mg     0.19353  0.67826  0.25965    Mg
C       0.1946   0.4217   0.4846     C
C       0.1946   0.5783   0.5154     C
H       0.1953   0.4138   0.5767     H
H       0.1953   0.5862   0.4233     H
C       0.1968   0.3884   0.4332     C
C       0.1968   0.6116   0.5668     C
C       0.1978     0.28   0.1068     C
C       0.1978     0.72   0.8932     C
C       0.2006   0.3917    0.541     C
C       0.2006   0.6083    0.459     C
C       0.2011   0.2866   0.9898     C
C       0.2011   0.7134   0.0102     C
O       0.2038   0.3359   0.6503     O
O       0.2038   0.6641   0.3497     O
C       0.2048   0.3239   0.4333     C
C       0.2048   0.6761   0.5667     C
C       0.2063   0.2911   0.3746     C
C       0.2063   0.7089   0.6254     C
C       0.2089   0.2937   0.8746     C
C       0.2089   0.7063   0.1254     C
C       0.2134   0.2989   0.4898     C
C       0.2134   0.7011   0.5102     C
C       0.2141   0.3312   0.5446     C
C       0.2141   0.6688   0.4554     C
H       0.2192    0.257   0.4918     H
H       0.2192    0.743   0.5082     H
C         0.22   0.3022   0.6068     C
C         0.22   0.6978   0.3932     C
O      0.22313   0.2349  0.37613     O
O      0.22313   0.7651  0.62387     O
O       0.2349  0.37613  0.22313     O
O       0.2349  0.62387  0.77687     O
Mg     0.24035  0.17826  0.30647    Mg
Mg     0.24035  0.82174  0.69353    Mg
O       0.2404   0.2404   0.2404     O
O       0.2404   0.7596   0.7596     O
O       0.2406   0.2501  0.60656     O
O       0.2406   0.7499  0.39344     O
H        0.243   0.2808   0.9918     H
H        0.243   0.7192   0.0082     H
O       0.2499   0.2594  0.10656     O
O       0.2499   0.7406  0.89344     O
O       0.2501  0.39344   0.7594     O
O       0.2501  0.60656   0.2406     O
H        0.257   0.4918   0.2192     H
H        0.257   0.5082   0.7808     H
O       0.2594  0.10656   0.2499     O
O       0.2594  0.89344   0.7501     O
O       0.2596   0.2596   0.7404     O
O       0.2596   0.7404   0.2596     O
Mg     0.25965  0.19353  0.67826    Mg
Mg     0.25965  0.80647  0.32174    Mg
O       0.2651  0.27687  0.87613     O
O       0.2651  0.72313  0.12387     O
O      0.27687  0.12387   0.7349     O
O      0.27687  0.87613   0.2651     O
C         0.28   0.1068   0.1978     C
C         0.28   0.8932   0.8022     C
H       0.2808   0.0082    0.757     H
H       0.2808   0.9918    0.243     H
C       0.2859   0.0446   0.1688     C
C       0.2859   0.9554   0.8312     C
C       0.2866   0.0102   0.7989     C
C       0.2866   0.9898   0.2011     C
C       0.2911   0.3746   0.2063     C
C       0.2911   0.6254   0.7937     C
C       0.2937   0.1254   0.7911     C
C       0.2937   0.8746   0.2089     C
C       0.2952   0.0667   0.8239     C
C       0.2952   0.9333   0.1761     C
O       0.2962   0.1503   0.1641     O
O       0.2962   0.8497   0.8359     O
C       0.2989   0.4898   0.2134     C
C       0.2989   0.5102   0.7866     C
C       0.2994    0.041   0.1083     C
C       0.2994    0.959   0.8917     C
C       0.3022   0.3932     0.78     C
C       0.3022   0.6068     0.22     C
C       0.3032   0.0668   0.8884     C
C       0.3032   0.9332   0.1116     C
H       0.3047   0.0767   0.0862     H
H       0.3047   0.9233   0.9138     H
C       0.3054   0.0154   0.9217     C
C       0.3054   0.9846   0.0783     C
Mg     0.30647  0.24035  0.17826    Mg
Mg     0.30647  0.75965  0.82174    Mg
H        0.307    0.104   0.9083     H
H        0.307    0.896   0.0917     H
N       0.3087   0.0242   0.9844     N
N       0.3087   0.9758   0.0156     N
O      0.30961   0.1718     0.82     O
O      0.30961   0.8282     0.18     O
O         0.32   0.3282  0.19039     O
O         0.32   0.6718  0.80961     O
Mg     0.32174  0.25965  0.80647    Mg
Mg     0.32174  0.74035  0.19353    Mg
C       0.3239   0.4333   0.2048     C
C       0.3239   0.5667   0.7952     C
O       0.3282  0.19039     0.32     O
O       0.3282  0.80961     0.68     O
C       0.3312   0.4554   0.7859     C
C       0.3312   0.5446   0.2141     C
O       0.3359   0.3497   0.7962     O
O       0.3359   0.6503   0.2038     O
O       0.3497   0.2038   0.6641     O
O       0.3497   0.7962   0.3359     O
C       0.3746   0.2063   0.2911     C
C       0.3746   0.7937   0.7089     C
O      0.37613  0.22313   0.2349     O
O      0.37613  0.77687   0.7651     O
C       0.3884   0.4332   0.1968     C
C       0.3884   0.5668   0.8032     C
C       0.3917    0.459   0.7994     C
C       0.3917    0.541   0.2006     C
C       0.3932     0.22   0.6978     C
C       0.3932     0.78   0.3022     C
O      0.39344   0.2406   0.7499     O
O      0.39344   0.7594   0.2501     O
H        0.396    0.193   0.4083     H
H        0.396    0.807   0.5917     H
H       0.4083    0.396    0.193     H
H       0.4083    0.604    0.807     H
H       0.4138   0.4233   0.8047     H
H       0.4138   0.5767   0.1953     H
C       0.4217   0.4846   0.1946     C
C       0.4217   0.5154   0.8054     C
H       0.4233   0.1953   0.5862     H
H       0.4233   0.8047   0.4138     H
C       0.4332   0.1968   0.3884     C
C       0.4332   0.8032   0.6116     C
C       0.4333   0.2048   0.3239     C
C       0.4333   0.7952   0.6761     C
C       0.4554   0.2141   0.6688     C
C       0.4554   0.7859   0.3312     C
C        0.459   0.2006   0.6083     C
C        0.459   0.7994   0.3917     C
N       0.4758   0.1913   0.4844     N
N       0.4758   0.8087   0.5156     N
N       0.4844   0.4758   0.1913     N
N       0.4844   0.5242   0.8087     N
C       0.4846   0.1946   0.4217     C
C       0.4846   0.8054   0.5783     C
C       0.4898   0.2134   0.2989     C
C       0.4898   0.7866   0.7011     C
H       0.4918   0.2192    0.257     H
H       0.4918   0.7808    0.743     H
H       0.5082   0.2192    0.743     H
H       0.5082   0.7808    0.257     H
C       0.5102   0.2134   0.7011     C
C       0.5102   0.7866   0.2989     C
C       0.5154   0.1946   0.5783     C
C       0.5154   0.8054   0.4217     C
N       0.5156   0.4758   0.8087     N
N       0.5156   0.5242   0.1913     N
N       0.5242   0.1913   0.5156     N
N       0.5242   0.8087   0.4844     N
C        0.541   0.2006   0.3917     C
C        0.541   0.7994   0.6083     C
C       0.5446   0.2141   0.3312     C
C       0.5446   0.7859   0.6688     C
C       0.5667   0.2048   0.6761     C
C       0.5667   0.7952   0.3239     C
C       0.5668   0.1968   0.6116     C
C       0.5668   0.8032   0.3884     C
H       0.5767   0.1953   0.4138     H
H       0.5767   0.8047   0.5862     H
C       0.5783   0.4846   0.8054     C
C       0.5783   0.5154   0.1946     C
H       0.5862   0.4233   0.1953     H
H       0.5862   0.5767   0.8047     H
H       0.5917    0.396    0.807     H
H       0.5917    0.604    0.193     H
H        0.604    0.193   0.5917     H
H        0.604    0.807   0.4083     H
O      0.60656   0.2406   0.2501     O
O      0.60656   0.7594   0.7499     O
C       0.6068     0.22   0.3022     C
C       0.6068     0.78   0.6978     C
C       0.6083    0.459   0.2006     C
C       0.6083    0.541   0.7994     C
C       0.6116   0.4332   0.8032     C
C       0.6116   0.5668   0.1968     C
O      0.62387  0.22313   0.7651     O
O      0.62387  0.77687   0.2349     O
C       0.6254   0.2063   0.7089     C
C       0.6254   0.7937   0.2911     C
O       0.6503   0.2038   0.3359     O
O       0.6503   0.7962   0.6641     O
O       0.6641   0.3497   0.2038     O
O       0.6641   0.6503   0.7962     O
C       0.6688   0.4554   0.2141     C
C       0.6688   0.5446   0.7859     C
O       0.6718  0.19039     0.68     O
O       0.6718  0.80961     0.32     O
C       0.6761   0.4333   0.7952     C
C       0.6761   0.5667   0.2048     C
Mg     0.67826  0.25965  0.19353    Mg
Mg     0.67826  0.74035  0.80647    Mg
O         0.68   0.3282  0.80961     O
O         0.68   0.6718  0.19039     O
O      0.69039   0.1718     0.18     O
O      0.69039   0.8282     0.82     O
N       0.6913   0.0242   0.0156     N
N       0.6913   0.9758   0.9844     N
H        0.693    0.104   0.0917     H
H        0.693    0.896   0.9083     H
Mg     0.69353  0.24035  0.82174    Mg
Mg     0.69353  0.75965  0.17826    Mg
C       0.6946   0.0154   0.0783     C
C       0.6946   0.9846   0.9217     C
H       0.6953   0.0767   0.9138     H
H       0.6953   0.9233   0.0862     H
C       0.6968   0.0668   0.1116     C
C       0.6968   0.9332   0.8884     C
C       0.6978   0.3932     0.22     C
C       0.6978   0.6068     0.78     C
C       0.7006    0.041   0.8917     C
C       0.7006    0.959   0.1083     C
C       0.7011   0.4898   0.7866     C
C       0.7011   0.5102   0.2134     C
O       0.7038   0.1503   0.8359     O
O       0.7038   0.8497   0.1641     O
C       0.7048   0.0667   0.1761     C
C       0.7048   0.9333   0.8239     C
C       0.7063   0.1254   0.2089     C
C       0.7063   0.8746   0.7911     C
C       0.7089   0.3746   0.7937     C
C       0.7089   0.6254   0.2063     C
C       0.7134   0.0102   0.2011     C
C       0.7134   0.9898   0.7989     C
C       0.7141   0.0446   0.8312     C
C       0.7141   0.9554   0.1688     C
H       0.7192   0.0082    0.243     H
H       0.7192   0.9918    0.757     H
C         0.72   0.1068   0.8022     C
C         0.72   0.8932   0.1978     C
O      0.72313  0.12387   0.2651     O
O      0.72313  0.87613   0.7349     O
O       0.7349  0.27687  0.12387     O
O       0.7349  0.72313  0.87613     O
Mg     0.74035  0.19353  0.32174    Mg
Mg     0.74035  0.80647  0.67826    Mg
O       0.7404   0.2596   0.2596     O
O       0.7404   0.7404   0.7404     O
O       0.7406  0.10656   0.7501     O
O       0.7406  0.89344   0.2499     O
H        0.743   0.4918   0.7808     H
H        0.743   0.5082   0.2192     H
O       0.7499  0.39344   0.2406     O
O       0.7499  0.60656   0.7594     O
O       0.7501   0.2594  0.89344     O
O       0.7501   0.7406  0.10656     O
H        0.757   0.2808   0.0082     H
H        0.757   0.7192   0.9918     H
O       0.7594   0.2501  0.39344     O
O       0.7594   0.7499  0.60656     O
O       0.7596   0.2404   0.7596     O
O       0.7596   0.7596   0.2404     O
Mg     0.75965  0.17826  0.69353    Mg
Mg     0.75965  0.82174  0.30647    Mg
O       0.7651  0.37613  0.77687     O
O       0.7651  0.62387  0.22313     O
O      0.77687   0.2349  0.62387     O
O      0.77687   0.7651  0.37613     O
C         0.78   0.3022   0.3932     C
C         0.78   0.6978   0.6068     C
H       0.7808    0.257   0.5082     H
H       0.7808    0.743   0.4918     H
C       0.7859   0.3312   0.4554     C
C       0.7859   0.6688   0.5446     C
C       0.7866   0.2989   0.5102     C
C       0.7866   0.7011   0.4898     C
C       0.7911   0.2937   0.1254     C
C       0.7911   0.7063   0.8746     C
C       0.7937   0.2911   0.6254     C
C       0.7937   0.7089   0.3746     C
C       0.7952   0.3239   0.5667     C
C       0.7952   0.6761   0.4333     C
O       0.7962   0.3359   0.3497     O
O       0.7962   0.6641   0.6503     O
C       0.7989   0.2866   0.0102     C
C       0.7989   0.7134   0.9898     C
C       0.7994   0.3917    0.459     C
C       0.7994   0.6083    0.541     C
C       0.8022     0.28   0.8932     C
C       0.8022     0.72   0.1068     C
C       0.8032   0.3884   0.5668     C
C       0.8032   0.6116   0.4332     C
H       0.8047   0.4138   0.4233     H
H       0.8047   0.5862   0.5767     H
C       0.8054   0.4217   0.5154     C
C       0.8054   0.5783   0.4846     C
Mg     0.80647  0.32174  0.25965    Mg
Mg     0.80647  0.67826  0.74035    Mg
H        0.807   0.4083    0.604     H
H        0.807   0.5917    0.396     H
N       0.8087   0.4844   0.5242     N
N       0.8087   0.5156   0.4758     N
O      0.80961     0.32   0.6718     O
O      0.80961     0.68   0.3282     O
O         0.82  0.30961   0.1718     O
O         0.82  0.69039   0.8282     O
Mg     0.82174  0.30647  0.75965    Mg
Mg     0.82174  0.69353  0.24035    Mg
C       0.8239   0.2952   0.0667     C
C       0.8239   0.7048   0.9333     C
O       0.8282     0.18  0.30961     O
O       0.8282     0.82  0.69039     O
C       0.8312   0.2859   0.9554     C
C       0.8312   0.7141   0.0446     C
O       0.8359   0.2962   0.8497     O
O       0.8359   0.7038   0.1503     O
O       0.8497   0.1641   0.7038     O
O       0.8497   0.8359   0.2962     O
C       0.8746   0.2089   0.2937     C
C       0.8746   0.7911   0.7063     C
O      0.87613   0.2651  0.27687     O
O      0.87613   0.7349  0.72313     O
C       0.8884   0.3032   0.0668     C
C       0.8884   0.6968   0.9332     C
C       0.8917   0.2994    0.959     C
C       0.8917   0.7006    0.041     C
C       0.8932   0.1978     0.72     C
C       0.8932   0.8022     0.28     C
O      0.89344   0.2499   0.7406     O
O      0.89344   0.7501   0.2594     O
H        0.896   0.0917    0.307     H
H        0.896   0.9083    0.693     H
H       0.9083    0.307    0.104     H
H       0.9083    0.693    0.896     H
H       0.9138   0.3047   0.9233     H
H       0.9138   0.6953   0.0767     H
C       0.9217   0.3054   0.0154     C
C       0.9217   0.6946   0.9846     C
H       0.9233   0.0862   0.6953     H
H       0.9233   0.9138   0.3047     H
C       0.9332   0.1116   0.3032     C
C       0.9332   0.8884   0.6968     C
C       0.9333   0.1761   0.2952     C
C       0.9333   0.8239   0.7048     C
C       0.9554   0.1688   0.7141     C
C       0.9554   0.8312   0.2859     C
C        0.959   0.1083   0.7006     C
C        0.959   0.8917   0.2994     C
N       0.9758   0.0156   0.3087     N
N       0.9758   0.9844   0.6913     N
N       0.9844   0.3087   0.0242     N
N       0.9844   0.6913   0.9758     N
C       0.9846   0.0783   0.3054     C
C       0.9846   0.9217   0.6946     C
C       0.9898   0.2011   0.2866     C
C       0.9898   0.7989   0.7134     C
H       0.9918    0.243   0.2808     H
H       0.9918    0.757   0.7192     H
