data_I
_chemical_name_common  '/home/zhangsd/repos/MofS-CGCNN/ML/data/SSD/clean_cifs/VALXIS_clean'
_cell_length_a 22.11520
_cell_length_b 22.11520
_cell_length_c 22.11520
_cell_angle_alpha 90.00000
_cell_angle_beta  90.00000
_cell_angle_gamma 90.00000
_space_group_name_H-M_alt      'P 1'


loop_
_space_group_symop_operation_xyz
  'x, y, z' 

loop_
_atom_site_label
_atom_site_fract_x
_atom_site_fract_y
_atom_site_fract_z
_atom_site_type_symbol
H       0.0084   0.2792    0.756     H
H       0.0084   0.7208    0.244     H
C      0.01022   0.2847  0.79765     C
C      0.01022   0.7153  0.20235     C
N      0.01322  0.02272   0.7012     N
N      0.01322  0.97728   0.2988     N
C       0.0158   0.2973  0.92146     C
C       0.0158   0.7027  0.07854     C
N      0.02272   0.2988  0.98678     N
N      0.02272   0.7012  0.01322     N
C      0.03966     0.29  0.10691     C
C      0.03966     0.71  0.89309     C
C      0.04236   0.2859  0.16878     C
C      0.04236   0.7141  0.83122     C
C      0.06619   0.2918   0.8259     C
C      0.06619   0.7082   0.1741     C
C      0.06877   0.2976   0.8888     C
C      0.06877   0.7024   0.1112     C
H       0.0749    0.288   0.0841     H
H       0.0749    0.712   0.9159     H
C      0.07854   0.0158   0.7027     C
C      0.07854   0.9842   0.2973     C
H       0.0841   0.0749    0.288     H
H       0.0841   0.9251    0.712     H
H       0.0917   0.1058   0.6985     H
H       0.0917   0.8942   0.3015     H
C      0.10478   0.2786  0.19741     C
C      0.10478   0.7214  0.80259     C
H       0.1058   0.3015   0.9083     H
H       0.1058   0.6985   0.0917     H
O      0.10592  0.25791  0.24993     O
O      0.10592  0.74209  0.75007     O
C      0.10691  0.03966     0.29     C
C      0.10691  0.96034     0.71     C
C       0.1112  0.06877   0.7024     C
C       0.1112  0.93123   0.2976     C
O      0.12355  0.27724  0.73812     O
O      0.12355  0.72276  0.26188     O
C      0.12593   0.2926   0.7917     C
C      0.12593   0.7074   0.2083     C
O      0.14817  0.29422  0.16457     O
O      0.14817  0.70578  0.83543     O
O      0.16457  0.14817  0.29422     O
O      0.16457  0.85183  0.70578     O
C      0.16878  0.04236   0.2859     C
C      0.16878  0.95764   0.7141     C
O      0.17012  0.30997   0.8213     O
O      0.17012  0.69003   0.1787     O
C       0.1741  0.06619   0.7082     C
C       0.1741  0.93381   0.2918     C
Ni     0.17772  0.23945  0.30666    Ni
Ni     0.17772  0.76055  0.69334    Ni
O       0.1787  0.17012  0.69003     O
O       0.1787  0.82988  0.30997     O
O      0.19003  0.32988   0.3213     O
O      0.19003  0.67012   0.6787     O
Ni     0.19334  0.26055  0.67772    Ni
Ni     0.19334  0.73945  0.32228    Ni
C      0.19741  0.10478   0.2786     C
C      0.19741  0.89522   0.7214     C
H       0.1985   0.3942   0.4083     H
H       0.1985   0.6058   0.5917     H
N       0.2012  0.47728  0.48678     N
N       0.2012  0.52272  0.51322     N
C      0.20235  0.01022   0.7153     C
C      0.20235  0.98978   0.2847     C
C       0.2024  0.43123   0.3888     C
C       0.2024  0.56877   0.6112     C
C       0.2027   0.4842  0.42146     C
C       0.2027   0.5158  0.57854     C
O      0.20578  0.35183  0.66457     O
O      0.20578  0.64817  0.33543     O
C       0.2074  0.37407   0.2917     C
C       0.2074  0.62593   0.7083     C
C       0.2082  0.43381   0.3259     C
C       0.2082  0.56619   0.6741     C
C       0.2083  0.12593   0.7074     C
C       0.2083  0.87407   0.2926     C
C         0.21  0.46034  0.60691     C
C         0.21  0.53966  0.39309     C
H        0.212   0.4251   0.5841     H
H        0.212   0.5749   0.4159     H
C       0.2141  0.45764  0.66878     C
C       0.2141  0.54236  0.33122     C
C       0.2153  0.48978  0.29765     C
C       0.2153  0.51022  0.70235     C
H       0.2208   0.4916    0.256     H
H       0.2208   0.5084    0.744     H
C       0.2214  0.39522  0.69741     C
C       0.2214  0.60478  0.30259     C
O      0.22276  0.37645  0.23812     O
O      0.22276  0.62355  0.76188     O
O      0.23812  0.22276  0.37645     O
O      0.23812  0.77724  0.62355     O
O      0.23843  0.23843  0.23843     O
O      0.23843  0.76157  0.76157     O
Ni     0.23945  0.30666  0.17772    Ni
Ni     0.23945  0.69334  0.82228    Ni
O      0.24209  0.39408  0.74993     O
O      0.24209  0.60592  0.25007     O
H        0.244   0.0084   0.7208     H
H        0.244   0.9916   0.2792     H
O      0.24993  0.10592  0.25791     O
O      0.24993  0.89408  0.74209     O
O      0.25007  0.24209  0.60592     O
O      0.25007  0.75791  0.39408     O
H        0.256   0.2208   0.4916     H
H        0.256   0.7792   0.5084     H
O      0.25791  0.24993  0.10592     O
O      0.25791  0.75007  0.89408     O
Ni     0.26055  0.32228  0.80666    Ni
Ni     0.26055  0.67772  0.19334    Ni
O      0.26157  0.26157  0.73843     O
O      0.26157  0.73843  0.26157     O
O      0.26188  0.12355  0.72276     O
O      0.26188  0.87645  0.27724     O
O      0.27724  0.26188  0.87645     O
O      0.27724  0.73812  0.12355     O
C       0.2786  0.19741  0.10478     C
C       0.2786  0.80259  0.89522     C
H       0.2792    0.244   0.9916     H
H       0.2792    0.756   0.0084     H
C       0.2847  0.20235  0.98978     C
C       0.2847  0.79765  0.01022     C
C       0.2859  0.16878  0.04236     C
C       0.2859  0.83122  0.95764     C
H        0.288   0.0841   0.0749     H
H        0.288   0.9159   0.9251     H
C         0.29  0.10691  0.03966     C
C         0.29  0.89309  0.96034     C
C       0.2917   0.2074  0.37407     C
C       0.2917   0.7926  0.62593     C
C       0.2918   0.1741  0.93381     C
C       0.2918   0.8259  0.06619     C
C       0.2926   0.2083  0.87407     C
C       0.2926   0.7917  0.12593     C
O      0.29422  0.16457  0.14817     O
O      0.29422  0.83543  0.85183     O
C       0.2973  0.07854   0.9842     C
C       0.2973  0.92146   0.0158     C
C       0.2976   0.1112  0.93123     C
C       0.2976   0.8888  0.06877     C
C      0.29765   0.2153  0.48978     C
C      0.29765   0.7847  0.51022     C
N       0.2988  0.01322  0.97728     N
N       0.2988  0.98678  0.02272     N
H       0.3015   0.0917   0.8942     H
H       0.3015   0.9083   0.1058     H
C      0.30259   0.2214  0.60478     C
C      0.30259   0.7786  0.39522     C
Ni     0.30666  0.17772  0.23945    Ni
Ni     0.30666  0.82228  0.76055    Ni
O      0.30997   0.1787  0.82988     O
O      0.30997   0.8213  0.17012     O
O       0.3213  0.19003  0.32988     O
O       0.3213  0.80997  0.67012     O
Ni     0.32228  0.19334  0.73945    Ni
Ni     0.32228  0.80666  0.26055    Ni
C       0.3259   0.2082  0.43381     C
C       0.3259   0.7918  0.56619     C
O      0.32988   0.3213  0.19003     O
O      0.32988   0.6787  0.80997     O
C      0.33122   0.2141  0.54236     C
C      0.33122   0.7859  0.45764     C
O      0.33543  0.20578  0.64817     O
O      0.33543  0.79422  0.35183     O
O      0.35183  0.33543  0.79422     O
O      0.35183  0.66457  0.20578     O
C      0.37407   0.2917   0.2074     C
C      0.37407   0.7083   0.7926     C
O      0.37645  0.23812  0.22276     O
O      0.37645  0.76188  0.77724     O
C       0.3888   0.2024  0.43123     C
C       0.3888   0.7976  0.56877     C
C      0.39309     0.21  0.53966     C
C      0.39309     0.79  0.46034     C
O      0.39408  0.25007  0.75791     O
O      0.39408  0.74993  0.24209     O
H       0.3942   0.4083   0.1985     H
H       0.3942   0.5917   0.8015     H
C      0.39522  0.30259   0.7786     C
C      0.39522  0.69741   0.2214     C
H       0.4083   0.1985   0.3942     H
H       0.4083   0.8015   0.6058     H
H       0.4159    0.212   0.5749     H
H       0.4159    0.788   0.4251     H
C      0.42146   0.2027   0.4842     C
C      0.42146   0.7973   0.5158     C
H       0.4251   0.4159    0.788     H
H       0.4251   0.5841    0.212     H
C      0.43123   0.3888   0.2024     C
C      0.43123   0.6112   0.7976     C
C      0.43381   0.3259   0.2082     C
C      0.43381   0.6741   0.7918     C
C      0.45764  0.33122   0.7859     C
C      0.45764  0.66878   0.2141     C
C      0.46034  0.39309     0.79     C
C      0.46034  0.60691     0.21     C
N      0.47728  0.48678   0.2012     N
N      0.47728  0.51322   0.7988     N
C       0.4842  0.42146   0.2027     C
C       0.4842  0.57854   0.7973     C
N      0.48678   0.2012  0.47728     N
N      0.48678   0.7988  0.52272     N
C      0.48978  0.29765   0.2153     C
C      0.48978  0.70235   0.7847     C
H       0.4916    0.256   0.2208     H
H       0.4916    0.744   0.7792     H
H       0.5084    0.256   0.7792     H
H       0.5084    0.744   0.2208     H
C      0.51022  0.29765   0.7847     C
C      0.51022  0.70235   0.2153     C
N      0.51322   0.2012  0.52272     N
N      0.51322   0.7988  0.47728     N
C       0.5158  0.42146   0.7973     C
C       0.5158  0.57854   0.2027     C
N      0.52272  0.48678   0.7988     N
N      0.52272  0.51322   0.2012     N
C      0.53966  0.39309     0.21     C
C      0.53966  0.60691     0.79     C
C      0.54236  0.33122   0.2141     C
C      0.54236  0.66878   0.7859     C
C      0.56619   0.3259   0.7918     C
C      0.56619   0.6741   0.2082     C
C      0.56877   0.3888   0.7976     C
C      0.56877   0.6112   0.2024     C
H       0.5749   0.4159    0.212     H
H       0.5749   0.5841    0.788     H
C      0.57854   0.2027   0.5158     C
C      0.57854   0.7973   0.4842     C
H       0.5841    0.212   0.4251     H
H       0.5841    0.788   0.5749     H
H       0.5917   0.1985   0.6058     H
H       0.5917   0.8015   0.3942     H
C      0.60478  0.30259   0.2214     C
C      0.60478  0.69741   0.7786     C
H       0.6058   0.4083   0.8015     H
H       0.6058   0.5917   0.1985     H
O      0.60592  0.25007  0.24209     O
O      0.60592  0.74993  0.75791     O
C      0.60691     0.21  0.46034     C
C      0.60691     0.79  0.53966     C
C       0.6112   0.2024  0.56877     C
C       0.6112   0.7976  0.43123     C
O      0.62355  0.23812  0.77724     O
O      0.62355  0.76188  0.22276     O
C      0.62593   0.2917   0.7926     C
C      0.62593   0.7083   0.2074     C
O      0.64817  0.33543  0.20578     O
O      0.64817  0.66457  0.79422     O
O      0.66457  0.20578  0.35183     O
O      0.66457  0.79422  0.64817     O
C      0.66878   0.2141  0.45764     C
C      0.66878   0.7859  0.54236     C
O      0.67012   0.3213  0.80997     O
O      0.67012   0.6787  0.19003     O
C       0.6741   0.2082  0.56619     C
C       0.6741   0.7918  0.43381     C
Ni     0.67772  0.19334  0.26055    Ni
Ni     0.67772  0.80666  0.73945    Ni
O       0.6787  0.19003  0.67012     O
O       0.6787  0.80997  0.32988     O
O      0.69003   0.1787  0.17012     O
O      0.69003   0.8213  0.82988     O
Ni     0.69334  0.17772  0.76055    Ni
Ni     0.69334  0.82228  0.23945    Ni
C      0.69741   0.2214  0.39522     C
C      0.69741   0.7786  0.60478     C
H       0.6985   0.0917   0.1058     H
H       0.6985   0.9083   0.8942     H
N       0.7012  0.01322  0.02272     N
N       0.7012  0.98678  0.97728     N
C      0.70235   0.2153  0.51022     C
C      0.70235   0.7847  0.48978     C
C       0.7024   0.1112  0.06877     C
C       0.7024   0.8888  0.93123     C
C       0.7027  0.07854   0.0158     C
C       0.7027  0.92146   0.9842     C
O      0.70578  0.16457  0.85183     O
O      0.70578  0.83543  0.14817     O
C       0.7074   0.2083  0.12593     C
C       0.7074   0.7917  0.87407     C
C       0.7082   0.1741  0.06619     C
C       0.7082   0.8259  0.93381     C
C       0.7083   0.2074  0.62593     C
C       0.7083   0.7926  0.37407     C
C         0.71  0.10691  0.96034     C
C         0.71  0.89309  0.03966     C
H        0.712   0.0841   0.9251     H
H        0.712   0.9159   0.0749     H
C       0.7141  0.16878  0.95764     C
C       0.7141  0.83122  0.04236     C
C       0.7153  0.20235  0.01022     C
C       0.7153  0.79765  0.98978     C
H       0.7208    0.244   0.0084     H
H       0.7208    0.756   0.9916     H
C       0.7214  0.19741  0.89522     C
C       0.7214  0.80259  0.10478     C
O      0.72276  0.26188  0.12355     O
O      0.72276  0.73812  0.87645     O
O      0.73812  0.12355  0.27724     O
O      0.73812  0.87645  0.72276     O
O      0.73843  0.26157  0.26157     O
O      0.73843  0.73843  0.73843     O
Ni     0.73945  0.32228  0.19334    Ni
Ni     0.73945  0.67772  0.80666    Ni
O      0.74209  0.24993  0.89408     O
O      0.74209  0.75007  0.10592     O
H        0.744   0.2208   0.5084     H
H        0.744   0.7792   0.4916     H
O      0.74993  0.24209  0.39408     O
O      0.74993  0.75791  0.60592     O
O      0.75007  0.10592  0.74209     O
O      0.75007  0.89408  0.25791     O
H        0.756   0.0084   0.2792     H
H        0.756   0.9916   0.7208     H
O      0.75791  0.39408  0.25007     O
O      0.75791  0.60592  0.74993     O
Ni     0.76055  0.30666  0.82228    Ni
Ni     0.76055  0.69334  0.17772    Ni
O      0.76157  0.23843  0.76157     O
O      0.76157  0.76157  0.23843     O
O      0.76188  0.22276  0.62355     O
O      0.76188  0.77724  0.37645     O
O      0.77724  0.37645  0.76188     O
O      0.77724  0.62355  0.23812     O
C       0.7786  0.39522  0.30259     C
C       0.7786  0.60478  0.69741     C
H       0.7792   0.4916    0.744     H
H       0.7792   0.5084    0.256     H
C       0.7847  0.48978  0.70235     C
C       0.7847  0.51022  0.29765     C
C       0.7859  0.45764  0.33122     C
C       0.7859  0.54236  0.66878     C
H        0.788   0.4251   0.4159     H
H        0.788   0.5749   0.5841     H
C         0.79  0.46034  0.39309     C
C         0.79  0.53966  0.60691     C
C       0.7917  0.12593   0.2926     C
C       0.7917  0.87407   0.7074     C
C       0.7918  0.43381   0.6741     C
C       0.7918  0.56619   0.3259     C
C       0.7926  0.37407   0.7083     C
C       0.7926  0.62593   0.2917     C
O      0.79422  0.35183  0.33543     O
O      0.79422  0.64817  0.66457     O
C       0.7973   0.4842  0.57854     C
C       0.7973   0.5158  0.42146     C
C       0.7976  0.43123   0.6112     C
C       0.7976  0.56877   0.3888     C
C      0.79765  0.01022   0.2847     C
C      0.79765  0.98978   0.7153     C
N       0.7988  0.47728  0.51322     N
N       0.7988  0.52272  0.48678     N
H       0.8015   0.3942   0.5917     H
H       0.8015   0.6058   0.4083     H
C      0.80259  0.10478   0.7214     C
C      0.80259  0.89522   0.2786     C
Ni     0.80666  0.26055  0.32228    Ni
Ni     0.80666  0.73945  0.67772    Ni
O      0.80997  0.32988   0.6787     O
O      0.80997  0.67012   0.3213     O
O       0.8213  0.17012  0.30997     O
O       0.8213  0.82988  0.69003     O
Ni     0.82228  0.23945  0.69334    Ni
Ni     0.82228  0.76055  0.30666    Ni
C       0.8259  0.06619   0.2918     C
C       0.8259  0.93381   0.7082     C
O      0.82988  0.30997   0.1787     O
O      0.82988  0.69003   0.8213     O
C      0.83122  0.04236   0.7141     C
C      0.83122  0.95764   0.2859     C
O      0.83543  0.14817  0.70578     O
O      0.83543  0.85183  0.29422     O
O      0.85183  0.29422  0.83543     O
O      0.85183  0.70578  0.16457     O
C      0.87407   0.2926   0.2083     C
C      0.87407   0.7074   0.7917     C
O      0.87645  0.27724  0.26188     O
O      0.87645  0.72276  0.73812     O
C       0.8888  0.06877   0.2976     C
C       0.8888  0.93123   0.7024     C
C      0.89309  0.03966     0.71     C
C      0.89309  0.96034     0.29     C
O      0.89408  0.25791  0.75007     O
O      0.89408  0.74209  0.24993     O
H       0.8942   0.3015   0.0917     H
H       0.8942   0.6985   0.9083     H
C      0.89522   0.2786  0.80259     C
C      0.89522   0.7214  0.19741     C
H       0.9083   0.1058   0.3015     H
H       0.9083   0.8942   0.6985     H
H       0.9159   0.0749    0.712     H
H       0.9159   0.9251    0.288     H
C      0.92146   0.0158   0.2973     C
C      0.92146   0.9842   0.7027     C
H       0.9251    0.288   0.9159     H
H       0.9251    0.712   0.0841     H
C      0.93123   0.2976   0.1112     C
C      0.93123   0.7024   0.8888     C
C      0.93381   0.2918   0.1741     C
C      0.93381   0.7082   0.8259     C
C      0.95764   0.2859  0.83122     C
C      0.95764   0.7141  0.16878     C
C      0.96034     0.29  0.89309     C
C      0.96034     0.71  0.10691     C
N      0.97728   0.2988  0.01322     N
N      0.97728   0.7012  0.98678     N
C       0.9842   0.2973  0.07854     C
C       0.9842   0.7027  0.92146     C
N      0.98678  0.02272   0.2988     N
N      0.98678  0.97728   0.7012     N
C      0.98978   0.2847  0.20235     C
C      0.98978   0.7153  0.79765     C
H       0.9916   0.2792    0.244     H
H       0.9916   0.7208    0.756     H
