data_I
_chemical_name_common  '/home/zhangsd/repos/MofS-CGCNN/ML/data/SSD/clean_cifs/VAMQAE_clean'
_cell_length_a 25.81000
_cell_length_b 25.81000
_cell_length_c  6.90100
_cell_angle_alpha 90.00000
_cell_angle_beta  90.00000
_cell_angle_gamma 120.00000
_space_group_name_H-M_alt      'P 1'


loop_
_space_group_symop_operation_xyz
  'x, y, z' 

loop_
_atom_site_label
_atom_site_fract_x
_atom_site_fract_y
_atom_site_fract_z
_atom_site_type_symbol
C       0.0048   0.5461     0.88     C
O      0.00762  0.63717   0.8079     O
C       0.0108    0.455   0.9224     C
C       0.0142   0.5946   0.7437     C
C       0.0148   0.5015   0.8084     C
Co     0.01926   0.7172  0.68807    Co
N      0.02223  0.80057  0.58247     N
O      0.02285  0.41503   0.8373     O
H       0.0248   0.5027   0.6754     H
N      0.02823  0.84417  0.55327     N
O       0.0295  0.70378  0.14123     O
O      0.02973  0.59329   0.5714     O
Co     0.03127   0.6474  0.35473    Co
O      0.03712  0.34095  0.52543     O
Co     0.05053   0.3646   0.9786    Co
O      0.05885  0.31048  0.17063     O
C      0.07207  0.75293  0.07703     C
O      0.07338  0.76977  0.90473     O
O       0.0817  0.72551  0.49603     O
C      0.08627  0.34753  0.58963     C
O      0.10311  0.36306  0.76193     O
C      0.11087  0.32253  0.25573     C
N      0.11167  0.64443  0.24913     N
C      0.12057  0.79203  0.21333     C
C      0.12167  0.77753  0.41093     C
C      0.12537  0.33813  0.45333     C
N       0.1339    0.445   0.0842     N
H      0.14457  0.30853  0.00873     H
N      0.14927  0.63843  0.21993     N
C      0.15337  0.31853  0.14173     C
N      0.15583  0.18407  0.55327     N
H      0.16397  0.85543  0.00873     H
C      0.16517  0.84663  0.14173     C
C      0.16817  0.82003  0.52493     C
H      0.16937  0.81123  0.65793     H
N       0.1775   0.4826   0.1134     N
C      0.17997  0.34813  0.52493     C
N      0.18407  0.02823  0.44673     N
H      0.18877  0.35813  0.65793     H
N      0.19943  0.22167  0.58247     N
C      0.20797  0.32853  0.21333     C
C      0.21167  0.88913  0.25573     C
C      0.21277  0.87463  0.45333     C
N      0.22167  0.02223  0.41753     N
C      0.22247  0.34413  0.41093     C
O      0.23023   0.3036  0.90473     O
C      0.24707  0.31913  0.07703     C
O      0.25164  0.94115  0.17063     O
O      0.25996  0.89689  0.76193     O
C      0.26127  0.91373  0.58963     C
O      0.27449  0.35618  0.49603     O
Co      0.2828  0.30207  0.68807    Co
O      0.29622  0.32571  0.14123     O
Co     0.30207  0.01926  0.31193    Co
O       0.3036  0.07338  0.09527     O
O      0.30384  0.96288  0.52543     O
N       0.3051   0.8225   0.1134     N
H      0.30853  0.16397  0.99127     H
O      0.31048  0.25164  0.82937     O
N       0.3111   0.8661   0.0842     N
Co     0.31407  0.94947   0.9786    Co
C      0.31853  0.16517  0.85827     C
C      0.31913  0.07207  0.92297     C
C      0.32253  0.21167  0.74427     C
O      0.32571   0.0295  0.85877     O
C      0.32853  0.12057  0.78667     C
C      0.33813  0.21277  0.54667     C
O      0.34095  0.30384  0.47457     O
C      0.34413  0.12167  0.58907     C
C      0.34753  0.26127  0.41037     C
C      0.34813  0.16817  0.47507     C
Co      0.3526  0.38386  0.35473    Co
N      0.35557  0.46723  0.24913     N
O      0.35618   0.0817  0.50397     O
H      0.35813  0.16937  0.34207     H
N      0.36157  0.51083  0.21993     N
O      0.36283  0.37045   0.8079     O
O      0.36306  0.25996  0.23807     O
Co      0.3646  0.31407   0.0214    Co
O      0.37045  0.00762   0.1921     O
Co     0.38386  0.03127  0.64527    Co
O      0.39218  0.97715   0.8373     O
C       0.4054   0.4196   0.7437     C
O      0.40671  0.43644   0.5714     O
O      0.41503  0.39218   0.1627     O
C       0.4196   0.0142   0.2563     C
O      0.43644  0.02973   0.4286     O
C       0.4442   0.9892   0.9224     C
N        0.445   0.3111   0.9158     N
C       0.4539   0.4587     0.88     C
C        0.455   0.4442   0.0776     C
C       0.4587   0.0048     0.12     C
N      0.46723  0.11167  0.75087     N
H       0.4779   0.9752   0.6754     H
N       0.4826   0.3051   0.8866     N
C       0.4867   0.9852   0.8084     C
N      0.48917  0.85073  0.21993     N
H       0.4973   0.5221   0.6754     H
C       0.4985   0.5133   0.8084     C
C       0.5015   0.4867   0.1916     C
H       0.5027   0.4779   0.3246     H
N      0.51083  0.14927  0.78007     N
C       0.5133   0.0148   0.1916     C
N       0.5174   0.6949   0.1134     N
H       0.5221   0.0248   0.3246     H
N      0.53277  0.88833  0.24913     N
C       0.5413   0.9952     0.88     C
C        0.545   0.5558   0.9224     C
C       0.5461   0.5413     0.12     C
N        0.555   0.6889   0.0842     N
C       0.5558   0.0108   0.0776     C
O      0.56356  0.97027   0.5714     O
C       0.5804   0.9858   0.7437     C
O      0.58497  0.60782   0.8373     O
O      0.59329  0.56356   0.4286     O
C       0.5946   0.5804   0.2563     C
O      0.60782  0.02285   0.1627     O
Co     0.61614  0.96873  0.35473    Co
O      0.62955  0.99238   0.8079     O
Co      0.6354  0.68593   0.9786    Co
O      0.63694  0.74004  0.76193     O
O      0.63717  0.62955   0.1921     O
N      0.63843  0.48917  0.78007     N
H      0.64187  0.83063  0.65793     H
O      0.64382   0.9183  0.49603     O
N      0.64443  0.53277  0.75087     N
Co      0.6474  0.61614  0.64527    Co
C      0.65187  0.83183  0.52493     C
C      0.65247  0.73873  0.58963     C
C      0.65587  0.87833  0.41093     C
O      0.65905  0.69616  0.52543     O
C      0.66187  0.78723  0.45333     C
C      0.67147  0.87943  0.21333     C
O      0.67429   0.9705  0.14123     O
C      0.67747  0.78833  0.25573     C
C      0.68087  0.92793  0.07703     C
C      0.68147  0.83483  0.14173     C
Co     0.68593  0.05053   0.0214    Co
N       0.6889   0.1339   0.9158     N
O      0.68952  0.74836  0.17063     O
H      0.69147  0.83603  0.00873     H
N       0.6949   0.1775   0.8866     N
O      0.69616  0.03712  0.47457     O
O       0.6964  0.92662  0.90473     O
Co     0.69793  0.98074  0.68807    Co
O      0.70378  0.67429  0.85877     O
Co      0.7172  0.69793  0.31193    Co
O      0.72551  0.64382  0.50397     O
C      0.73873  0.08627  0.41037     C
O      0.74004  0.10311  0.23807     O
O      0.74836  0.05885  0.82937     O
C      0.75293  0.68087  0.92297     C
O      0.76977   0.6964  0.09527     O
C      0.77753  0.65587  0.58907     C
N      0.77833  0.97777  0.58247     N
C      0.78723  0.12537  0.54667     C
C      0.78833  0.11087  0.74427     C
C      0.79203  0.67147  0.78667     C
N      0.80057  0.77833  0.41753     N
H      0.81123  0.64187  0.34207     H
N      0.81593  0.97177  0.55327     N
C      0.82003  0.65187  0.47507     C
N       0.8225   0.5174   0.8866     N
H      0.83063  0.18877  0.34207     H
C      0.83183  0.17997  0.47507     C
C      0.83483  0.15337  0.85827     C
H      0.83603  0.14457  0.99127     H
N      0.84417  0.81593  0.44673     N
C      0.84663  0.68147  0.85827     C
N      0.85073  0.36157  0.78007     N
H      0.85543  0.69147  0.99127     H
N       0.8661    0.555   0.9158     N
C      0.87463  0.66187  0.54667     C
C      0.87833  0.22247  0.58907     C
C      0.87943  0.20797  0.78667     C
N      0.88833  0.35557  0.75087     N
C      0.88913  0.67747  0.74427     C
O      0.89689  0.63694  0.23807     O
C      0.91373  0.65247  0.41037     C
O       0.9183  0.27449  0.50397     O
O      0.92662  0.23023  0.09527     O
C      0.92793  0.24707  0.92297     C
O      0.94115  0.68952  0.82937     O
Co     0.94947   0.6354   0.0214    Co
O      0.96288  0.65905  0.47457     O
Co     0.96873   0.3526  0.64527    Co
O      0.97027  0.40671   0.4286     O
O       0.9705  0.29622  0.85877     O
N      0.97177  0.15583  0.44673     N
H       0.9752   0.4973   0.3246     H
O      0.97715  0.58497   0.1627     O
N      0.97777  0.19943  0.41753     N
Co     0.98074   0.2828  0.31193    Co
C       0.9852   0.4985   0.1916     C
C       0.9858   0.4054   0.2563     C
C       0.9892    0.545   0.0776     C
O      0.99238  0.36283   0.1921     O
C       0.9952   0.4539     0.12     C
