data_I
_chemical_name_common  '/home/zhangsd/repos/MofS-CGCNN/ML/data/SSD/clean_cifs/VANHEA_clean'
_cell_length_a 30.05700
_cell_length_b 16.18700
_cell_length_c 21.89400
_cell_angle_alpha 90.00000
_cell_angle_beta  114.47800
_cell_angle_gamma 90.00000
_space_group_name_H-M_alt      'P 1'


loop_
_space_group_symop_operation_xyz
  'x, y, z' 

loop_
_atom_site_label
_atom_site_fract_x
_atom_site_fract_y
_atom_site_fract_z
_atom_site_type_symbol
N      0.00291  0.36424  0.52191     N
N      0.00291  0.63576  0.02191     N
C      0.00596  0.46893  0.34067     C
C      0.00596  0.53107  0.84067     C
C      0.00619  0.42024  0.57281     C
C      0.00619  0.57976  0.07281     C
H       0.0072   0.2062   0.5087     H
H       0.0072   0.7938   0.0087     H
H       0.0095   0.4301   0.3117     H
H       0.0095   0.5699   0.8117     H
C       0.0361  0.23101  0.51244     C
C       0.0361  0.76899  0.01244     C
C      0.04041  0.49767  0.67435     C
C      0.04041  0.50233  0.17435     C
C      0.04083  0.45131  0.94146     C
C      0.04083  0.54869  0.44146     C
C      0.04173  0.31554   0.5209     C
C      0.04173  0.68446   0.0209     C
C      0.04619  0.36007  0.02401     C
C      0.04619  0.63993  0.52401     C
C      0.04661  0.49205  0.39724     C
C      0.04661  0.50795  0.89724     C
C      0.04682  0.44227   0.6303     C
C      0.04682  0.55773   0.1303     C
H       0.0476   0.2818   0.0976     H
H       0.0476   0.7182   0.5976     H
H       0.0614    0.361   0.2415     H
H       0.0614    0.639   0.7415     H
C      0.06695  0.31479  0.08354     C
C      0.06695  0.68521  0.58354     C
H       0.0689   0.1267   0.5037     H
H       0.0689   0.8733   0.0037     H
C      0.07309  0.18349  0.50952     C
C      0.07309  0.81651  0.00952     C
C      0.07421  0.41301  0.00306     C
C      0.07421  0.58699  0.50306     C
H       0.0772   0.4702   0.4057     H
H       0.0772   0.5298   0.9057     H
H       0.0775   0.4205    0.639     H
H       0.0775   0.5795    0.139     H
C       0.0823  0.47923   0.2384     C
C       0.0823  0.52077   0.7384     C
C      0.08505  0.35175  0.52715     C
C      0.08505  0.64825  0.02715     C
C      0.08533  0.39985  0.26456     C
C      0.08533  0.60015  0.76456     C
H       0.0892   0.4086    0.533     H
H       0.0892   0.5914    0.033     H
H       0.0912   0.1786   0.1589     H
H       0.0912   0.8214   0.6589     H
H       0.1162   0.4102   0.7584     H
H       0.1162   0.5898   0.2584     H
C      0.11632  0.21879  0.51512     C
C      0.11632  0.78121  0.01512     C
C      0.11695  0.32004  0.12113     C
C      0.11695  0.67996  0.62113     C
C      0.11804   0.4638  0.77458     C
C      0.11804   0.5362  0.27458     C
C      0.11941  0.19857  0.19353     C
C      0.11941  0.80143  0.69353     C
C      0.12214  0.30366  0.52478     C
C      0.12214  0.69634  0.02478     C
C      0.12372  0.37821  0.32475     C
C      0.12372  0.62179  0.82475     C
C      0.12424  0.41886   0.0417     C
C      0.12424  0.58114   0.5417     C
H       0.1253   0.1066   0.2585     H
H       0.1253   0.3251   0.3417     H
H       0.1253   0.6749   0.8417     H
H       0.1253   0.8934   0.7585     H
C      0.13993  0.15518  0.25331     C
C      0.13993  0.84482  0.75331     C
C       0.1403  0.27133  0.18449     C
C       0.1403  0.72867  0.68449     C
H       0.1434   0.4535   0.0285     H
H       0.1434   0.5465   0.5285     H
C      0.14536  0.37267  0.09991     C
C      0.14536  0.62733  0.59991     C
O       0.1488   0.0925  0.49727     O
O       0.1488   0.9075  0.99727     O
H       0.1514   0.3283   0.5297     H
H       0.1514   0.6717   0.0297     H
C      0.15537   0.1675  0.50898     C
C      0.15537   0.8325  0.00898     C
C      0.15672  0.48587  0.83489     C
C      0.15672  0.51413  0.33489     C
C      0.15961  0.43492   0.3597     C
C      0.15961  0.56508   0.8597     C
H       0.1789   0.3763   0.1256     H
H       0.1789   0.6237   0.6256     H
H       0.1806   0.4472   0.8584     H
H       0.1806   0.5528   0.3584     H
O      0.18156   0.0763  0.37863     O
O      0.18156   0.9237  0.87863     O
C      0.18238  0.18391  0.30585     C
C      0.18238  0.81609  0.80585     C
C      0.18331  0.29829  0.23687     C
C      0.18331  0.70171  0.73687     C
O      0.19373   0.1988   0.5165     O
O      0.19373   0.8012   0.0165     O
H       0.1987    0.346   0.2317     H
H       0.1987    0.654   0.7317     H
Zn     0.20158  0.04852  0.47437    Zn
Zn     0.20158  0.95148  0.97437    Zn
C      0.20199   0.1409  0.37243     C
C      0.20199   0.8591  0.87243     C
C      0.20243  0.40812  0.42231     C
C      0.20243  0.59188  0.92231     C
O      0.20304  0.33395  0.43842     O
O      0.20304  0.66605  0.93842     O
C       0.2034   0.2541   0.2968     C
C       0.2034   0.7459   0.7968     C
H       0.2319   0.2732   0.3314     H
H       0.2319   0.7268   0.8314     H
O      0.23347  0.46332  0.45356     O
O      0.23347  0.53668  0.95356     O
O      0.23874  0.17035  0.41953     O
O      0.23874  0.82965  0.91953     O
Zn        0.25     0.25      0.5    Zn
Zn        0.25     0.75      0.0    Zn
O      0.26126  0.32965  0.58047     O
O      0.26126  0.67035  0.08047     O
O      0.26653  0.03668  0.54644     O
O      0.26653  0.96332  0.04644     O
H       0.2681   0.2268   0.6686     H
H       0.2681   0.7732   0.1686     H
C       0.2966   0.2459   0.7032     C
C       0.2966   0.7541   0.2032     C
O      0.29696  0.16605  0.56158     O
O      0.29696  0.83395  0.06158     O
C      0.29757  0.09188  0.57769     C
C      0.29757  0.90812  0.07769     C
C      0.29801   0.3591  0.62757     C
C      0.29801   0.6409  0.12757     C
Zn     0.29842  0.45148  0.52563    Zn
Zn     0.29842  0.54852  0.02563    Zn
H       0.3013    0.154   0.7683     H
H       0.3013    0.846   0.2683     H
O      0.30627   0.3012   0.4835     O
O      0.30627   0.6988   0.9835     O
C      0.31669  0.20171  0.76313     C
C      0.31669  0.79829  0.26313     C
C      0.31762  0.31609  0.69415     C
C      0.31762  0.68391  0.19415     C
O      0.31844   0.4237  0.62137     O
O      0.31844   0.5763  0.12137     O
H       0.3194   0.0528   0.1416     H
H       0.3194   0.9472   0.6416     H
H       0.3211   0.1237   0.8744     H
H       0.3211   0.8763   0.3744     H
C      0.34039  0.06508   0.6403     C
C      0.34039  0.93492   0.1403     C
C      0.34328  0.01413  0.16511     C
C      0.34328  0.98587  0.66511     C
C      0.34463   0.3325  0.49102     C
C      0.34463   0.6675  0.99102     C
H       0.3486   0.1717   0.4703     H
H       0.3486   0.8283   0.9703     H
O       0.3512   0.4075  0.50273     O
O       0.3512   0.5925  0.00273     O
C      0.35464  0.12733  0.90009     C
C      0.35464  0.87267  0.40009     C
H       0.3566   0.0465   0.9715     H
H       0.3566   0.9535   0.4715     H
C       0.3597  0.22867  0.81551     C
C       0.3597  0.77133  0.31551     C
C      0.36007  0.34482  0.74669     C
C      0.36007  0.65518  0.24669     C
H       0.3747   0.1749   0.6583     H
H       0.3747   0.3934   0.7415     H
H       0.3747   0.6066   0.2415     H
H       0.3747   0.8251   0.1583     H
C      0.37576  0.08114   0.9583     C
C      0.37576  0.91886   0.4583     C
C      0.37628  0.12179  0.67525     C
C      0.37628  0.87821  0.17525     C
C      0.37786  0.19634  0.47522     C
C      0.37786  0.80366  0.97522     C
C      0.38059  0.30143  0.80647     C
C      0.38059  0.69857  0.30647     C
C      0.38196   0.0362  0.22542     C
C      0.38196   0.9638  0.72542     C
C      0.38305  0.17996  0.87887     C
C      0.38305  0.82004  0.37887     C
C      0.38368  0.28121  0.48488     C
C      0.38368  0.71879  0.98488     C
H       0.3838   0.0898   0.2416     H
H       0.3838   0.9102   0.7416     H
H       0.4088   0.3214   0.8411     H
H       0.4088   0.6786   0.3411     H
H       0.4108   0.0914    0.467     H
H       0.4108   0.9086    0.967     H
C      0.41467  0.10015  0.73544     C
C      0.41467  0.89985  0.23544     C
C      0.41495  0.14825  0.47285     C
C      0.41495  0.85175  0.97285     C
C       0.4177  0.02077   0.7616     C
C       0.4177  0.97923   0.2616     C
H       0.4225   0.0795    0.361     H
H       0.4225   0.9205    0.861     H
H       0.4228   0.0298   0.5943     H
H       0.4228   0.9702   0.0943     H
C      0.42579  0.08699  0.99694     C
C      0.42579  0.91301  0.49694     C
C      0.42691  0.31651  0.49048     C
C      0.42691  0.68349  0.99048     C
H       0.4311   0.3733   0.4963     H
H       0.4311   0.6267   0.9963     H
C      0.43305  0.18521  0.91646     C
C      0.43305  0.81479  0.41646     C
H       0.4386    0.139   0.7585     H
H       0.4386    0.861   0.2585     H
H       0.4524   0.2182   0.9024     H
H       0.4524   0.7818   0.4024     H
C      0.45318  0.05773   0.3697     C
C      0.45318  0.94227   0.8697     C
C      0.45339  0.00795  0.60276     C
C      0.45339  0.99205  0.10276     C
C      0.45381  0.13993  0.97599     C
C      0.45381  0.86007  0.47599     C
C      0.45827  0.18446   0.4791     C
C      0.45827  0.81554   0.9791     C
C      0.45917  0.04869  0.05854     C
C      0.45917  0.95131  0.55854     C
C      0.45959  0.00233  0.32565     C
C      0.45959  0.99767  0.82565     C
C       0.4639  0.26899  0.48756     C
C       0.4639  0.73101  0.98756     C
H       0.4905   0.0699   0.6883     H
H       0.4905   0.9301   0.1883     H
H       0.4928   0.2938   0.4913     H
H       0.4928   0.7062   0.9913     H
C      0.49381  0.07976  0.42719     C
C      0.49381  0.92024  0.92719     C
C      0.49404  0.03107  0.65933     C
C      0.49404  0.96893  0.15933     C
N      0.49709  0.13576  0.47809     N
N      0.49709  0.86424  0.97809     N
N      0.50291  0.13576  0.02191     N
N      0.50291  0.86424  0.52191     N
C      0.50596  0.03107  0.84067     C
C      0.50596  0.96893  0.34067     C
C      0.50619  0.07976  0.07281     C
C      0.50619  0.92024  0.57281     C
H       0.5072   0.2938   0.0087     H
H       0.5072   0.7062   0.5087     H
H       0.5095   0.0699   0.8117     H
H       0.5095   0.9301   0.3117     H
C       0.5361  0.26899  0.01244     C
C       0.5361  0.73101  0.51244     C
C      0.54041  0.00233  0.17435     C
C      0.54041  0.99767  0.67435     C
C      0.54083  0.04869  0.44146     C
C      0.54083  0.95131  0.94146     C
C      0.54173  0.18446   0.0209     C
C      0.54173  0.81554   0.5209     C
C      0.54619  0.13993  0.52401     C
C      0.54619  0.86007  0.02401     C
C      0.54661  0.00795  0.89724     C
C      0.54661  0.99205  0.39724     C
C      0.54682  0.05773   0.1303     C
C      0.54682  0.94227   0.6303     C
H       0.5476   0.2182   0.5976     H
H       0.5476   0.7818   0.0976     H
H       0.5614    0.139   0.7415     H
H       0.5614    0.861   0.2415     H
C      0.56695  0.18521  0.58354     C
C      0.56695  0.81479  0.08354     C
H       0.5689   0.3733   0.0037     H
H       0.5689   0.6267   0.5037     H
C      0.57309  0.31651  0.00952     C
C      0.57309  0.68349  0.50952     C
C      0.57421  0.08699  0.50306     C
C      0.57421  0.91301  0.00306     C
H       0.5772   0.0298   0.9057     H
H       0.5772   0.9702   0.4057     H
H       0.5775   0.0795    0.139     H
H       0.5775   0.9205    0.639     H
C       0.5823  0.02077   0.7384     C
C       0.5823  0.97923   0.2384     C
C      0.58505  0.14825  0.02715     C
C      0.58505  0.85175  0.52715     C
C      0.58533  0.10015  0.76456     C
C      0.58533  0.89985  0.26456     C
H       0.5892   0.0914    0.033     H
H       0.5892   0.9086    0.533     H
H       0.5912   0.3214   0.6589     H
H       0.5912   0.6786   0.1589     H
H       0.6162   0.0898   0.2584     H
H       0.6162   0.9102   0.7584     H
C      0.61632  0.28121  0.01512     C
C      0.61632  0.71879  0.51512     C
C      0.61695  0.17996  0.62113     C
C      0.61695  0.82004  0.12113     C
C      0.61804   0.0362  0.27458     C
C      0.61804   0.9638  0.77458     C
C      0.61941  0.30143  0.69353     C
C      0.61941  0.69857  0.19353     C
C      0.62214  0.19634  0.02478     C
C      0.62214  0.80366  0.52478     C
C      0.62372  0.12179  0.82475     C
C      0.62372  0.87821  0.32475     C
C      0.62424  0.08114   0.5417     C
C      0.62424  0.91886   0.0417     C
H       0.6253   0.1749   0.8417     H
H       0.6253   0.3934   0.7585     H
H       0.6253   0.6066   0.2585     H
H       0.6253   0.8251   0.3417     H
C      0.63993  0.34482  0.75331     C
C      0.63993  0.65518  0.25331     C
C       0.6403  0.22867  0.68449     C
C       0.6403  0.77133  0.18449     C
H       0.6434   0.0465   0.5285     H
H       0.6434   0.9535   0.0285     H
C      0.64536  0.12733  0.59991     C
C      0.64536  0.87267  0.09991     C
O       0.6488   0.4075  0.99727     O
O       0.6488   0.5925  0.49727     O
H       0.6514   0.1717   0.0297     H
H       0.6514   0.8283   0.5297     H
C      0.65537   0.3325  0.00898     C
C      0.65537   0.6675  0.50898     C
C      0.65672  0.01413  0.33489     C
C      0.65672  0.98587  0.83489     C
C      0.65961  0.06508   0.8597     C
C      0.65961  0.93492   0.3597     C
H       0.6789   0.1237   0.6256     H
H       0.6789   0.8763   0.1256     H
H       0.6806   0.0528   0.3584     H
H       0.6806   0.9472   0.8584     H
O      0.68156   0.4237  0.87863     O
O      0.68156   0.5763  0.37863     O
C      0.68238  0.31609  0.80585     C
C      0.68238  0.68391  0.30585     C
C      0.68331  0.20171  0.73687     C
C      0.68331  0.79829  0.23687     C
O      0.69373   0.3012   0.0165     O
O      0.69373   0.6988   0.5165     O
H       0.6987    0.154   0.7317     H
H       0.6987    0.846   0.2317     H
Zn     0.70158  0.45148  0.97437    Zn
Zn     0.70158  0.54852  0.47437    Zn
C      0.70199   0.3591  0.87243     C
C      0.70199   0.6409  0.37243     C
C      0.70243  0.09188  0.92231     C
C      0.70243  0.90812  0.42231     C
O      0.70304  0.16605  0.93842     O
O      0.70304  0.83395  0.43842     O
C       0.7034   0.2459   0.7968     C
C       0.7034   0.7541   0.2968     C
H       0.7319   0.2268   0.8314     H
H       0.7319   0.7732   0.3314     H
O      0.73347  0.03668  0.95356     O
O      0.73347  0.96332  0.45356     O
O      0.73874  0.32965  0.91953     O
O      0.73874  0.67035  0.41953     O
Zn        0.75     0.25      0.0    Zn
Zn        0.75     0.75      0.5    Zn
O      0.76126  0.17035  0.08047     O
O      0.76126  0.82965  0.58047     O
O      0.76653  0.46332  0.04644     O
O      0.76653  0.53668  0.54644     O
H       0.7681   0.2732   0.1686     H
H       0.7681   0.7268   0.6686     H
C       0.7966   0.2541   0.2032     C
C       0.7966   0.7459   0.7032     C
O      0.79696  0.33395  0.06158     O
O      0.79696  0.66605  0.56158     O
C      0.79757  0.40812  0.07769     C
C      0.79757  0.59188  0.57769     C
C      0.79801   0.1409  0.12757     C
C      0.79801   0.8591  0.62757     C
Zn     0.79842  0.04852  0.02563    Zn
Zn     0.79842  0.95148  0.52563    Zn
H       0.8013    0.346   0.2683     H
H       0.8013    0.654   0.7683     H
O      0.80627   0.1988   0.9835     O
O      0.80627   0.8012   0.4835     O
C      0.81669  0.29829  0.26313     C
C      0.81669  0.70171  0.76313     C
C      0.81762  0.18391  0.19415     C
C      0.81762  0.81609  0.69415     C
O      0.81844   0.0763  0.12137     O
O      0.81844   0.9237  0.62137     O
H       0.8194   0.4472   0.6416     H
H       0.8194   0.5528   0.1416     H
H       0.8211   0.3763   0.3744     H
H       0.8211   0.6237   0.8744     H
C      0.84039  0.43492   0.1403     C
C      0.84039  0.56508   0.6403     C
C      0.84328  0.48587  0.66511     C
C      0.84328  0.51413  0.16511     C
C      0.84463   0.1675  0.99102     C
C      0.84463   0.8325  0.49102     C
H       0.8486   0.3283   0.9703     H
H       0.8486   0.6717   0.4703     H
O       0.8512   0.0925  0.00273     O
O       0.8512   0.9075  0.50273     O
C      0.85464  0.37267  0.40009     C
C      0.85464  0.62733  0.90009     C
H       0.8566   0.4535   0.4715     H
H       0.8566   0.5465   0.9715     H
C       0.8597  0.27133  0.31551     C
C       0.8597  0.72867  0.81551     C
C      0.86007  0.15518  0.24669     C
C      0.86007  0.84482  0.74669     C
H       0.8747   0.1066   0.2415     H
H       0.8747   0.3251   0.1583     H
H       0.8747   0.6749   0.6583     H
H       0.8747   0.8934   0.7415     H
C      0.87576  0.41886   0.4583     C
C      0.87576  0.58114   0.9583     C
C      0.87628  0.37821  0.17525     C
C      0.87628  0.62179  0.67525     C
C      0.87786  0.30366  0.97522     C
C      0.87786  0.69634  0.47522     C
C      0.88059  0.19857  0.30647     C
C      0.88059  0.80143  0.80647     C
C      0.88196   0.4638  0.72542     C
C      0.88196   0.5362  0.22542     C
C      0.88305  0.32004  0.37887     C
C      0.88305  0.67996  0.87887     C
C      0.88368  0.21879  0.98488     C
C      0.88368  0.78121  0.48488     C
H       0.8838   0.4102   0.7416     H
H       0.8838   0.5898   0.2416     H
H       0.9088   0.1786   0.3411     H
H       0.9088   0.8214   0.8411     H
H       0.9108   0.4086    0.967     H
H       0.9108   0.5914    0.467     H
C      0.91467  0.39985  0.23544     C
C      0.91467  0.60015  0.73544     C
C      0.91495  0.35175  0.97285     C
C      0.91495  0.64825  0.47285     C
C       0.9177  0.47923   0.2616     C
C       0.9177  0.52077   0.7616     C
H       0.9225   0.4205    0.861     H
H       0.9225   0.5795    0.361     H
H       0.9228   0.4702   0.0943     H
H       0.9228   0.5298   0.5943     H
C      0.92579  0.41301  0.49694     C
C      0.92579  0.58699  0.99694     C
C      0.92691  0.18349  0.99048     C
C      0.92691  0.81651  0.49048     C
H       0.9311   0.1267   0.9963     H
H       0.9311   0.8733   0.4963     H
C      0.93305  0.31479  0.41646     C
C      0.93305  0.68521  0.91646     C
H       0.9386    0.361   0.2585     H
H       0.9386    0.639   0.7585     H
H       0.9524   0.2818   0.4024     H
H       0.9524   0.7182   0.9024     H
C      0.95318  0.44227   0.8697     C
C      0.95318  0.55773   0.3697     C
C      0.95339  0.49205  0.10276     C
C      0.95339  0.50795  0.60276     C
C      0.95381  0.36007  0.47599     C
C      0.95381  0.63993  0.97599     C
C      0.95827  0.31554   0.9791     C
C      0.95827  0.68446   0.4791     C
C      0.95917  0.45131  0.55854     C
C      0.95917  0.54869  0.05854     C
C      0.95959  0.49767  0.82565     C
C      0.95959  0.50233  0.32565     C
C       0.9639  0.23101  0.98756     C
C       0.9639  0.76899  0.48756     C
H       0.9905   0.4301   0.1883     H
H       0.9905   0.5699   0.6883     H
H       0.9928   0.2062   0.9913     H
H       0.9928   0.7938   0.4913     H
C      0.99381  0.42024  0.92719     C
C      0.99381  0.57976  0.42719     C
C      0.99404  0.46893  0.15933     C
C      0.99404  0.53107  0.65933     C
N      0.99709  0.36424  0.97809     N
N      0.99709  0.63576  0.47809     N
