data_I
_chemical_name_common  '/home/zhangsd/repos/MofS-CGCNN/ML/data/SSD/clean_cifs/VARHIH_clean'
_cell_length_a 17.57100
_cell_length_b 17.57100
_cell_length_c 23.40400
_cell_angle_alpha 90.00000
_cell_angle_beta  90.00000
_cell_angle_gamma 90.00000
_space_group_name_H-M_alt      'P 1'


loop_
_space_group_symop_operation_xyz
  'x, y, z' 

loop_
_atom_site_label
_atom_site_fract_x
_atom_site_fract_y
_atom_site_fract_z
_atom_site_type_symbol
C       0.0006   0.0794   0.5107     C
C       0.0006   0.4206   0.0107     C
C       0.0008   0.1617   0.5216     C
C       0.0008   0.3383   0.0216     C
C        0.034   0.0635   0.0228     C
C        0.034   0.4365   0.5228     C
C       0.0431   0.5634   0.4879     C
C       0.0431   0.9366   0.9879     C
H       0.0568   0.1075   0.0391     H
H       0.0568   0.3925   0.5391     H
C       0.0629   0.7055   0.9904     C
C       0.0629   0.7945   0.4904     C
C       0.0634   0.5431   0.0121     C
C       0.0634   0.9569   0.5121     C
C       0.0635    0.034   0.5228     C
C       0.0635    0.466   0.0228     C
C        0.065   0.1975   0.5439     C
C        0.065   0.3025   0.0439     C
H       0.0722   0.6078     0.48     H
H       0.0722   0.8922     0.98     H
C       0.0794   0.0006   0.0107     C
C       0.0794   0.4994   0.5107     C
H       0.1075   0.0568   0.5391     H
H       0.1075   0.4432   0.0391     H
H       0.1078   0.5722     0.02     H
H       0.1078   0.9278     0.52     H
N       0.1183   0.7387  0.00174     N
N       0.1183   0.7613  0.50174     N
N       0.1201   0.2244   0.5624     N
N       0.1201   0.2756   0.0624     N
H       0.1502   0.1992   0.2685     H
H       0.1502   0.3008   0.7685     H
H       0.1509   0.1935   0.8567     H
H       0.1509   0.3065   0.3567     H
H       0.1516   0.6903   0.7059     H
H       0.1516   0.8097   0.2059     H
H       0.1543   0.1992   0.1718     H
H       0.1543   0.3008   0.6718     H
H       0.1553   0.6934   0.6069     H
H       0.1553   0.8066   0.1069     H
H        0.157   0.1959    0.955     H
H        0.157   0.3041    0.455     H
C       0.1617   0.0008   0.0216     C
C       0.1617   0.4992   0.5216     C
H       0.1903   0.6516   0.7941     H
H       0.1903   0.8484   0.2941     H
C       0.1925   0.7151    0.687     C
C       0.1925   0.7849    0.187     C
C       0.1926   0.2171   0.8755     C
C       0.1926   0.2829   0.3755     C
C        0.193   0.2206   0.2496     C
C        0.193   0.2794   0.7496     C
H       0.1934   0.6553   0.8931     H
H       0.1934   0.8447   0.3931     H
H       0.1935   0.1509   0.3567     H
H       0.1935   0.3491   0.8567     H
C        0.195   0.7172   0.6278     C
C        0.195   0.7828   0.1278     C
H       0.1959    0.157    0.455     H
H       0.1959    0.343    0.955     H
C        0.196   0.2213   0.1917     C
C        0.196   0.2787   0.6917     C
C        0.197   0.2193   0.9342     C
C        0.197   0.2807   0.4342     C
C       0.1975    0.065   0.0439     C
C       0.1975    0.435   0.5439     C
H       0.1992   0.1502   0.7685     H
H       0.1992   0.1543   0.6718     H
H       0.1992   0.3457   0.1718     H
H       0.1992   0.3498   0.2685     H
C       0.2055   0.5629   0.5096     C
C       0.2055   0.9371   0.0096     C
C       0.2151   0.6925    0.813     C
C       0.2151   0.8075    0.313     C
C       0.2171   0.1926   0.3755     C
C       0.2171   0.3074   0.8755     C
C       0.2172    0.695   0.8722     C
C       0.2172    0.805   0.3722     C
C       0.2193    0.197   0.4342     C
C       0.2193    0.303   0.9342     C
C       0.2206    0.193   0.7496     C
C       0.2206    0.307   0.2496     C
C       0.2213    0.196   0.6917     C
C       0.2213    0.304   0.1917     C
N       0.2244   0.1201   0.0624     N
N       0.2244   0.3799   0.5624     N
N       0.2387   0.6183  0.49826     N
N       0.2387   0.8817  0.99826     N
Cd        0.25     0.25  0.06373    Cd
N         0.25     0.25    0.161     N
C         0.25     0.25   0.2801     C
C         0.25     0.25   0.3447     C
N         0.25     0.25   0.4632     N
Cd        0.25     0.25  0.56373    Cd
N         0.25     0.25    0.661     N
C         0.25     0.25   0.7801     C
C         0.25     0.25   0.8447     C
N         0.25     0.25   0.9632     N
Cd        0.25     0.75      0.0    Cd
N         0.25     0.75   0.0993     N
C         0.25     0.75   0.2186     C
C         0.25     0.75   0.2814     C
N         0.25     0.75   0.4007     N
Cd        0.25     0.75      0.5    Cd
N         0.25     0.75   0.5993     N
C         0.25     0.75   0.7186     C
C         0.25     0.75   0.7814     C
N         0.25     0.75   0.9007     N
N       0.2613   0.6183  0.99826     N
N       0.2613   0.8817  0.49826     N
N       0.2756   0.1201   0.5624     N
N       0.2756   0.3799   0.0624     N
C       0.2787    0.196   0.1917     C
C       0.2787    0.304   0.6917     C
C       0.2794    0.193   0.2496     C
C       0.2794    0.307   0.7496     C
C       0.2807    0.197   0.9342     C
C       0.2807    0.303   0.4342     C
C       0.2828    0.695   0.3722     C
C       0.2828    0.805   0.8722     C
C       0.2829   0.1926   0.8755     C
C       0.2829   0.3074   0.3755     C
C       0.2849   0.6925    0.313     C
C       0.2849   0.8075    0.813     C
C       0.2945   0.5629   0.0096     C
C       0.2945   0.9371   0.5096     C
H       0.3008   0.1502   0.2685     H
H       0.3008   0.1543   0.1718     H
H       0.3008   0.3457   0.6718     H
H       0.3008   0.3498   0.7685     H
C       0.3025    0.065   0.5439     C
C       0.3025    0.435   0.0439     C
C        0.303   0.2193   0.4342     C
C        0.303   0.2807   0.9342     C
C        0.304   0.2213   0.6917     C
C        0.304   0.2787   0.1917     C
H       0.3041    0.157    0.955     H
H       0.3041    0.343    0.455     H
C        0.305   0.7172   0.1278     C
C        0.305   0.7828   0.6278     C
H       0.3065   0.1509   0.8567     H
H       0.3065   0.3491   0.3567     H
H       0.3066   0.6553   0.3931     H
H       0.3066   0.8447   0.8931     H
C        0.307   0.2206   0.7496     C
C        0.307   0.2794   0.2496     C
C       0.3074   0.2171   0.3755     C
C       0.3074   0.2829   0.8755     C
C       0.3075   0.7151    0.187     C
C       0.3075   0.7849    0.687     C
H       0.3097   0.6516   0.2941     H
H       0.3097   0.8484   0.7941     H
C       0.3383   0.0008   0.5216     C
C       0.3383   0.4992   0.0216     C
H        0.343   0.1959    0.455     H
H        0.343   0.3041    0.955     H
H       0.3447   0.6934   0.1069     H
H       0.3447   0.8066   0.6069     H
H       0.3457   0.1992   0.6718     H
H       0.3457   0.3008   0.1718     H
H       0.3484   0.6903   0.2059     H
H       0.3484   0.8097   0.7059     H
H       0.3491   0.1935   0.3567     H
H       0.3491   0.3065   0.8567     H
H       0.3498   0.1992   0.7685     H
H       0.3498   0.3008   0.2685     H
N       0.3799   0.2244   0.0624     N
N       0.3799   0.2756   0.5624     N
N       0.3817   0.7387  0.50174     N
N       0.3817   0.7613  0.00174     N
H       0.3922   0.5722     0.52     H
H       0.3922   0.9278     0.02     H
H       0.3925   0.0568   0.0391     H
H       0.3925   0.4432   0.5391     H
C       0.4206   0.0006   0.5107     C
C       0.4206   0.4994   0.0107     C
H       0.4278   0.6078     0.98     H
H       0.4278   0.8922     0.48     H
C        0.435   0.1975   0.0439     C
C        0.435   0.3025   0.5439     C
C       0.4365    0.034   0.0228     C
C       0.4365    0.466   0.5228     C
C       0.4366   0.5431   0.5121     C
C       0.4366   0.9569   0.0121     C
C       0.4371   0.7055   0.4904     C
C       0.4371   0.7945   0.9904     C
H       0.4432   0.1075   0.5391     H
H       0.4432   0.3925   0.0391     H
C       0.4569   0.5634   0.9879     C
C       0.4569   0.9366   0.4879     C
C        0.466   0.0635   0.5228     C
C        0.466   0.4365   0.0228     C
C       0.4992   0.1617   0.0216     C
C       0.4992   0.3383   0.5216     C
C       0.4994   0.0794   0.0107     C
C       0.4994   0.4206   0.5107     C
C       0.5006   0.5794   0.4893     C
C       0.5006   0.9206   0.9893     C
C       0.5008   0.6617   0.4784     C
C       0.5008   0.8383   0.9784     C
C        0.534   0.5635   0.9772     C
C        0.534   0.9365   0.4772     C
C       0.5431   0.0634   0.5121     C
C       0.5431   0.4366   0.0121     C
H       0.5568   0.6075   0.9609     H
H       0.5568   0.8925   0.4609     H
C       0.5629   0.2055   0.0096     C
C       0.5629   0.2945   0.5096     C
C       0.5634   0.0431   0.9879     C
C       0.5634   0.4569   0.4879     C
C       0.5635    0.534   0.4772     C
C       0.5635    0.966   0.9772     C
C        0.565   0.6975   0.4561     C
C        0.565   0.8025   0.9561     C
H       0.5722   0.1078     0.52     H
H       0.5722   0.3922     0.02     H
C       0.5794   0.5006   0.9893     C
C       0.5794   0.9994   0.4893     C
H       0.6075   0.5568   0.4609     H
H       0.6075   0.9432   0.9609     H
H       0.6078   0.0722     0.98     H
H       0.6078   0.4278     0.48     H
N       0.6183   0.2387  0.99826     N
N       0.6183   0.2613  0.49826     N
N       0.6201   0.7244   0.4376     N
N       0.6201   0.7756   0.9376     N
H       0.6502   0.6992   0.7315     H
H       0.6502   0.8008   0.2315     H
H       0.6509   0.6935   0.1433     H
H       0.6509   0.8065   0.6433     H
H       0.6516   0.1903   0.2941     H
H       0.6516   0.3097   0.7941     H
H       0.6543   0.6992   0.8282     H
H       0.6543   0.8008   0.3282     H
H       0.6553   0.1934   0.3931     H
H       0.6553   0.3066   0.8931     H
H        0.657   0.6959    0.045     H
H        0.657   0.8041    0.545     H
C       0.6617   0.5008   0.9784     C
C       0.6617   0.9992   0.4784     C
H       0.6903   0.1516   0.2059     H
H       0.6903   0.3484   0.7059     H
C       0.6925   0.2151    0.313     C
C       0.6925   0.2849    0.813     C
C       0.6926   0.7171   0.1245     C
C       0.6926   0.7829   0.6245     C
C        0.693   0.7206   0.7504     C
C        0.693   0.7794   0.2504     C
H       0.6934   0.1553   0.1069     H
H       0.6934   0.3447   0.6069     H
H       0.6935   0.6509   0.6433     H
H       0.6935   0.8491   0.1433     H
C        0.695   0.2172   0.3722     C
C        0.695   0.2828   0.8722     C
H       0.6959    0.657    0.545     H
H       0.6959    0.843    0.045     H
C        0.696   0.7213   0.8083     C
C        0.696   0.7787   0.3083     C
C        0.697   0.7193   0.0658     C
C        0.697   0.7807   0.5658     C
C       0.6975    0.565   0.9561     C
C       0.6975    0.935   0.4561     C
H       0.6992   0.6502   0.2315     H
H       0.6992   0.6543   0.3282     H
H       0.6992   0.8457   0.8282     H
H       0.6992   0.8498   0.7315     H
C       0.7055   0.0629   0.4904     C
C       0.7055   0.4371   0.9904     C
C       0.7151   0.1925    0.187     C
C       0.7151   0.3075    0.687     C
C       0.7171   0.6926   0.6245     C
C       0.7171   0.8074   0.1245     C
C       0.7172    0.195   0.1278     C
C       0.7172    0.305   0.6278     C
C       0.7193    0.697   0.5658     C
C       0.7193    0.803   0.0658     C
C       0.7206    0.693   0.2504     C
C       0.7206    0.807   0.7504     C
C       0.7213    0.696   0.3083     C
C       0.7213    0.804   0.8083     C
N       0.7244   0.6201   0.9376     N
N       0.7244   0.8799   0.4376     N
N       0.7387   0.1183  0.50174     N
N       0.7387   0.3817  0.00174     N
Cd        0.75     0.25      0.0    Cd
N         0.75     0.25   0.0993     N
C         0.75     0.25   0.2186     C
C         0.75     0.25   0.2814     C
N         0.75     0.25   0.4007     N
Cd        0.75     0.25      0.5    Cd
N         0.75     0.25   0.5993     N
C         0.75     0.25   0.7186     C
C         0.75     0.25   0.7814     C
N         0.75     0.25   0.9007     N
N         0.75     0.75   0.0368     N
C         0.75     0.75   0.1553     C
C         0.75     0.75   0.2199     C
N         0.75     0.75    0.339     N
Cd        0.75     0.75  0.43627    Cd
N         0.75     0.75   0.5368     N
C         0.75     0.75   0.6553     C
C         0.75     0.75   0.7199     C
N         0.75     0.75    0.839     N
Cd        0.75     0.75  0.93627    Cd
N       0.7613   0.1183  0.00174     N
N       0.7613   0.3817  0.50174     N
N       0.7756   0.6201   0.4376     N
N       0.7756   0.8799   0.9376     N
C       0.7787    0.696   0.8083     C
C       0.7787    0.804   0.3083     C
C       0.7794    0.693   0.7504     C
C       0.7794    0.807   0.2504     C
C       0.7807    0.697   0.0658     C
C       0.7807    0.803   0.5658     C
C       0.7828    0.195   0.6278     C
C       0.7828    0.305   0.1278     C
C       0.7829   0.6926   0.1245     C
C       0.7829   0.8074   0.6245     C
C       0.7849   0.1925    0.687     C
C       0.7849   0.3075    0.187     C
C       0.7945   0.0629   0.9904     C
C       0.7945   0.4371   0.4904     C
H       0.8008   0.6502   0.7315     H
H       0.8008   0.6543   0.8282     H
H       0.8008   0.8457   0.3282     H
H       0.8008   0.8498   0.2315     H
C       0.8025    0.565   0.4561     C
C       0.8025    0.935   0.9561     C
C        0.803   0.7193   0.5658     C
C        0.803   0.7807   0.0658     C
C        0.804   0.7213   0.3083     C
C        0.804   0.7787   0.8083     C
H       0.8041    0.657    0.045     H
H       0.8041    0.843    0.545     H
C        0.805   0.2172   0.8722     C
C        0.805   0.2828   0.3722     C
H       0.8065   0.6509   0.1433     H
H       0.8065   0.8491   0.6433     H
H       0.8066   0.1553   0.6069     H
H       0.8066   0.3447   0.1069     H
C        0.807   0.7206   0.2504     C
C        0.807   0.7794   0.7504     C
C       0.8074   0.7171   0.6245     C
C       0.8074   0.7829   0.1245     C
C       0.8075   0.2151    0.813     C
C       0.8075   0.2849    0.313     C
H       0.8097   0.1516   0.7059     H
H       0.8097   0.3484   0.2059     H
C       0.8383   0.5008   0.4784     C
C       0.8383   0.9992   0.9784     C
H        0.843   0.6959    0.545     H
H        0.843   0.8041    0.045     H
H       0.8447   0.1934   0.8931     H
H       0.8447   0.3066   0.3931     H
H       0.8457   0.6992   0.3282     H
H       0.8457   0.8008   0.8282     H
H       0.8484   0.1903   0.7941     H
H       0.8484   0.3097   0.2941     H
H       0.8491   0.6935   0.6433     H
H       0.8491   0.8065   0.1433     H
H       0.8498   0.6992   0.2315     H
H       0.8498   0.8008   0.7315     H
N       0.8799   0.7244   0.9376     N
N       0.8799   0.7756   0.4376     N
N       0.8817   0.2387  0.49826     N
N       0.8817   0.2613  0.99826     N
H       0.8922   0.0722     0.48     H
H       0.8922   0.4278     0.98     H
H       0.8925   0.5568   0.9609     H
H       0.8925   0.9432   0.4609     H
C       0.9206   0.5006   0.4893     C
C       0.9206   0.9994   0.9893     C
H       0.9278   0.1078     0.02     H
H       0.9278   0.3922     0.52     H
C        0.935   0.6975   0.9561     C
C        0.935   0.8025   0.4561     C
C       0.9365    0.534   0.9772     C
C       0.9365    0.966   0.4772     C
C       0.9366   0.0431   0.4879     C
C       0.9366   0.4569   0.9879     C
C       0.9371   0.2055   0.5096     C
C       0.9371   0.2945   0.0096     C
H       0.9432   0.6075   0.4609     H
H       0.9432   0.8925   0.9609     H
C       0.9569   0.0634   0.0121     C
C       0.9569   0.4366   0.5121     C
C        0.966   0.5635   0.4772     C
C        0.966   0.9365   0.9772     C
C       0.9992   0.6617   0.9784     C
C       0.9992   0.8383   0.4784     C
C       0.9994   0.5794   0.9893     C
C       0.9994   0.9206   0.4893     C
