data_I
_chemical_name_common  '/home/zhangsd/repos/MofS-CGCNN/ML/data/SSD/clean_cifs/VAXMUF_clean'
_cell_length_a 12.55990
_cell_length_b 12.74810
_cell_length_c 13.36700
_cell_angle_alpha 99.74900
_cell_angle_beta  105.53700
_cell_angle_gamma 111.87800
_space_group_name_H-M_alt      'P 1'


loop_
_space_group_symop_operation_xyz
  'x, y, z' 

loop_
_atom_site_label
_atom_site_fract_x
_atom_site_fract_y
_atom_site_fract_z
_atom_site_type_symbol
Cu         0.0      0.0      0.0    Cu
H       0.0045   0.7567   0.8875     H
H       0.0071   0.4721   0.5983     H
C       0.0113   0.6357   0.6032     C
H       0.0257   0.6178   0.0515     H
C       0.0299   0.8123   0.8514     C
H       0.0316   0.6913   0.5622     H
N       0.0323   0.9184   0.8745     N
C       0.0332   0.5298   0.5603     C
H       0.0413   0.8489   0.1667     H
H       0.0531   0.5193   0.1825     H
C        0.054   0.5574    0.039     C
H       0.0676   0.0539   0.4682     H
N       0.0684   0.7966   0.7702     N
H       0.0703   0.6387   0.7611     H
C       0.0714   0.9641   0.8004     C
H       0.0751    0.391   0.4068     H
H         0.08   0.0385   0.7955     H
C       0.0882   0.6963   0.7215     C
N       0.0966   0.8943   0.7351     N
C       0.1135   0.5425    0.148     C
H       0.1152   0.5841   0.0058     H
C       0.1174   0.9042   0.1715     C
H       0.1208   0.5562   0.5769     H
N       0.1301   0.9758   0.1065     N
H       0.1378   0.4792    0.135     H
H       0.1499   0.9382   0.5465     H
C       0.1534    0.092   0.5162     C
H       0.1578   0.1284    0.588     H
H       0.1743   0.7246   0.7302     H
H       0.1948   0.9612   0.4502     H
H       0.1996   0.7156   0.2438     H
C       0.2012   0.9988   0.5224     C
N       0.2138   0.1595   0.3706     N
N       0.2216   0.9198   0.2413     N
N       0.2237   0.1836   0.4761     N
C       0.2249   0.6542   0.2247     C
C       0.2505    0.038    0.138     C
N       0.2592   0.6534   0.4145     N
H       0.2824   0.6817   0.1882     H
N        0.286   0.6339   0.3235     N
H       0.2902   0.0952   0.1087     H
C       0.2915   0.2593   0.3671     C
H       0.3036   0.2706   0.3034     H
N       0.3058    0.006   0.2185     N
C       0.3072   0.2929   0.5304     C
C       0.3264   0.6176   0.4806     C
H        0.329   0.6223   0.5515     H
H       0.3301   0.9068    0.647     H
H       0.3304   0.3282   0.6045     H
C       0.3326   0.0496   0.5985     C
H       0.3403    0.094   0.6687     H
N       0.3533   0.3451   0.4643     N
C        0.365   0.5878   0.3382     C
H        0.368   0.9124   0.5444     H
C        0.378   0.9594   0.6144     C
H       0.3846   0.1048   0.5704     H
N       0.3912   0.5733   0.4362     N
H       0.3977   0.5684   0.2871     H
C       0.4372    0.065   0.2904     C
H       0.4376   0.9287   0.3453     H
H       0.4465   0.1141    0.359     H
H       0.4754   0.9303   0.2426     H
H       0.4848   0.1162   0.2567     H
C       0.4851   0.9797   0.3113     C
Cu         0.5      0.5      0.5    Cu
C       0.5149   0.0203   0.6887     C
H       0.5152   0.8838   0.7433     H
H       0.5246   0.0697   0.7574     H
H       0.5535   0.8859    0.641     H
H       0.5624   0.0713   0.6547     H
C       0.5628    0.935   0.7096     C
H       0.6023   0.4316   0.7129     H
N       0.6088   0.4267   0.5638     N
H       0.6154   0.8952   0.4296     H
C        0.622   0.0406   0.3856     C
H        0.632   0.0876   0.4556     H
C        0.635   0.4122   0.6618     C
N       0.6467   0.6549   0.5357     N
H       0.6597    0.906   0.3313     H
C       0.6674   0.9504   0.4015     C
H       0.6696   0.6718   0.3955     H
H       0.6699   0.0932    0.353     H
H        0.671   0.3777   0.4485     H
C       0.6736   0.3824   0.5194     C
C       0.6928   0.7071   0.4696     C
N       0.6942    0.994   0.7815     N
H       0.6964   0.7294   0.6966     H
C       0.7085   0.7407   0.6329     C
H       0.7098   0.9048   0.8913     H
N        0.714   0.3661   0.6765     N
H       0.7176   0.3183   0.8118     H
N       0.7408   0.3466   0.5855     N
C       0.7495    0.962    0.862     C
C       0.7751   0.3458   0.7753     C
N       0.7763   0.8164   0.5239     N
N       0.7784   0.0802   0.7587     N
N       0.7862   0.8405   0.6294     N
C       0.7988   0.0012   0.4776     C
H       0.8004   0.2844   0.7562     H
H       0.8052   0.0388   0.5498     H
H       0.8257   0.2754   0.2698     H
H       0.8422   0.8716    0.412     H
C       0.8466    0.908   0.4838     C
H       0.8501   0.0618   0.4535     H
H       0.8622   0.5208    0.865     H
N       0.8699   0.0242   0.8935     N
H       0.8792   0.4438   0.4231     H
C       0.8826   0.0958   0.8285     C
H       0.8848   0.4159   0.9942     H
C       0.8865   0.4575    0.852     C
N       0.9034   0.1057   0.2649     N
C       0.9118   0.3037   0.2785     C
H         0.92   0.9615   0.2045     H
H       0.9249    0.609   0.5932     H
C       0.9286   0.0359   0.1996     C
H       0.9297   0.3613   0.2389     H
N       0.9316   0.2034   0.2298     N
H       0.9324   0.9461   0.5318     H
C        0.946   0.4426    0.961     C
H       0.9469   0.4807   0.8175     H
H       0.9587   0.1511   0.8333     H
C       0.9668   0.4702   0.4397     C
N       0.9677   0.0816   0.1255     N
H       0.9684   0.3087   0.4378     H
C       0.9701   0.1877   0.1486     C
H       0.9743   0.3822   0.9485     H
C       0.9887   0.3643   0.3968     C
H       0.9929   0.5279   0.4017     H
H       0.9955   0.2433   0.1125     H
