data_I
_chemical_name_common  '/home/zhangsd/repos/MofS-CGCNN/ML/data/SSD/clean_cifs/VAYWID_clean'
_cell_length_a 13.05600
_cell_length_b 22.96400
_cell_length_c 11.80800
_cell_angle_alpha 90.00000
_cell_angle_beta  91.94100
_cell_angle_gamma 90.00000
_space_group_name_H-M_alt      'P 1'


loop_
_space_group_symop_operation_xyz
  'x, y, z' 

loop_
_atom_site_label
_atom_site_fract_x
_atom_site_fract_y
_atom_site_fract_z
_atom_site_type_symbol
N       0.0073   0.1712   0.0063     N
N       0.0073   0.3288   0.5063     N
H       0.0365   0.0863   0.0442     H
H       0.0365   0.4137   0.5442     H
H       0.0543   0.2433    0.927     H
H       0.0543   0.2567    0.427     H
C       0.0576   0.1199   0.0074     C
C       0.0576   0.3801   0.5074     C
C       0.0691   0.2044   0.9428     C
C       0.0691   0.2956   0.4428     C
Ag     0.11678  0.70108  0.39013    Ag
Ag     0.11678  0.79892  0.89013    Ag
H       0.1316    0.701    0.112     H
H       0.1316    0.799    0.612     H
N       0.1418   0.1245   0.9478     N
N       0.1418   0.3755   0.4478     N
N       0.1498   0.1792   0.9052     N
N       0.1498   0.3208   0.4052     N
C       0.1724   0.7319   0.1376     C
C       0.1724   0.7681   0.6376     C
H       0.1918   0.0412   0.9371     H
H       0.1918   0.4588   0.4371     H
N       0.1947   0.7405    0.248     N
N       0.1947   0.7595    0.748     N
N       0.2108   0.7313   0.5695     N
N       0.2108   0.7687   0.0695     N
C       0.2223   0.0797   0.9367     C
C       0.2223   0.4203   0.4367     C
Ag     0.24034   0.2114  0.77307    Ag
Ag     0.24034   0.2886  0.27307    Ag
C       0.2532   0.7128   0.7451     C
C       0.2532   0.7872   0.2451     C
H       0.2565   0.0848   0.8658     H
H       0.2565   0.4152   0.3658     H
H       0.2637   0.0974   0.1036     H
H       0.2637   0.4026   0.6036     H
N       0.2637   0.6947   0.6426     N
N       0.2637   0.8053   0.1426     N
H       0.2805   0.2002    0.504     H
H       0.2805   0.2998    0.004     H
H       0.2832    0.695   0.8088     H
H       0.2832    0.805   0.3088     H
H       0.2856   0.6281   0.5365     H
H       0.2856   0.8719   0.0365     H
C       0.2997    0.086   0.0366     C
C       0.2997    0.414   0.5366     C
H       0.3076   0.0009   0.0692     H
H       0.3076   0.4991   0.5692     H
C       0.3224   0.6453   0.6008     C
C       0.3224   0.8547   0.1008     C
H       0.3288    0.616   0.6598     H
H       0.3288    0.884   0.1598     H
C       0.3341   0.2218   0.5366     C
C       0.3341   0.2782   0.0366     C
H       0.3357   0.0139   0.2915     H
H       0.3357   0.4861   0.7915     H
N       0.3435   0.2378   0.6447     N
N       0.3435   0.2622   0.1447     N
H       0.3481   0.1166   0.0198     H
H       0.3481   0.3834   0.5198     H
C       0.3548    0.033   0.0599     C
C       0.3548    0.467   0.5599     C
H       0.3812   0.7376   0.4923     H
H       0.3812   0.7624   0.9923     H
H       0.3872   0.5597   0.2214     H
H       0.3872   0.9403   0.7214     H
H       0.3945   0.6869   0.4054     H
H       0.3945   0.8131   0.9054     H
C       0.3992   0.0263   0.2676     C
C       0.3992   0.4737   0.7676     C
H       0.3993   0.0238   0.9981     H
H       0.3993   0.4762   0.4981     H
N       0.4149    0.242   0.4832     N
N       0.4149    0.258   0.9832     N
N       0.4163   0.0429   0.1662     N
N       0.4163   0.4571   0.6662     N
C       0.4255   0.7056   0.4718     C
C       0.4255   0.7944   0.9718     C
C       0.4295   0.6634   0.5651     C
C       0.4295   0.8366   0.0651     C
C       0.4301   0.2321   0.1581     C
C       0.4301   0.2679   0.6581     C
C       0.4543   0.5504    0.244     C
C       0.4543   0.9496    0.744     C
H       0.4554   0.2158   0.2255     H
H       0.4554   0.2842   0.7255     H
H       0.4666   0.6804   0.6296     H
H       0.4666   0.8196   0.1296     H
H       0.4668   0.6291   0.5419     H
H       0.4668   0.8709   0.0419     H
N       0.4742   0.2295   0.0583     N
N       0.4742   0.2705   0.5583     N
N       0.4787    0.029   0.3308     N
N       0.4787    0.471   0.8308     N
N       0.4871   0.5572    0.345     N
N       0.4871   0.9428    0.845     N
Ag         0.5      0.0      0.5    Ag
Ag         0.5      0.5      0.0    Ag
N       0.5129   0.0572    0.155     N
N       0.5129   0.4428    0.655     N
N       0.5213    0.529   0.1692     N
N       0.5213    0.971   0.6692     N
N       0.5258   0.7295   0.4417     N
N       0.5258   0.7705   0.9417     N
H       0.5332   0.1291   0.9581     H
H       0.5332   0.3709   0.4581     H
H       0.5334   0.1804   0.8704     H
H       0.5334   0.3196   0.3704     H
H       0.5446   0.7158   0.2745     H
H       0.5446   0.7842   0.7745     H
C       0.5457   0.0504    0.256     C
C       0.5457   0.4496    0.756     C
C       0.5699   0.7321   0.3419     C
C       0.5699   0.7679   0.8419     C
C       0.5705   0.1634   0.9349     C
C       0.5705   0.3366   0.4349     C
C       0.5745   0.2056   0.0282     C
C       0.5745   0.2944   0.5282     C
N       0.5837   0.5429   0.3338     N
N       0.5837   0.9571   0.8338     N
N       0.5851    0.742   0.0168     N
N       0.5851    0.758   0.5168     N
H       0.6007   0.5238   0.5019     H
H       0.6007   0.9762   0.0019     H
C       0.6008   0.5263   0.2324     C
C       0.6008   0.9737   0.7324     C
H       0.6055   0.1869   0.0946     H
H       0.6055   0.3131   0.5946     H
H       0.6128   0.0597   0.2786     H
H       0.6128   0.4403   0.7786     H
H       0.6188   0.2376   0.0077     H
H       0.6188   0.2624   0.5077     H
C       0.6452    0.533   0.4401     C
C       0.6452    0.967   0.9401     C
H       0.6519   0.6166   0.4802     H
H       0.6519   0.8834   0.9802     H
N       0.6565   0.7378   0.8553     N
N       0.6565   0.7622   0.3553     N
H       0.6643   0.5139   0.2085     H
H       0.6643   0.9861   0.7085     H
C       0.6659   0.7218   0.9634     C
C       0.6659   0.7782   0.4634     C
H       0.6712    0.116   0.8402     H
H       0.6712    0.384   0.3402     H
C       0.6776   0.1453   0.8992     C
C       0.6776   0.3547   0.3992     C
H       0.6924   0.5009   0.4308     H
H       0.6924   0.9991   0.9308     H
C       0.7003    0.586   0.4634     C
C       0.7003    0.914   0.9634     C
H       0.7144   0.1281   0.9635     H
H       0.7144   0.3719   0.4635     H
H       0.7168    0.195   0.6912     H
H       0.7168    0.305   0.1912     H
H       0.7195   0.7002    0.996     H
H       0.7195   0.7998    0.496     H
N       0.7363   0.1947   0.8574     N
N       0.7363   0.3053   0.3574     N
H       0.7363   0.5974   0.3964     H
H       0.7363   0.9026   0.8964     H
H       0.7435   0.5848   0.6342     H
H       0.7435   0.9152   0.1342     H
C       0.7468   0.2128   0.7549     C
C       0.7468   0.2872   0.2549     C
Ag     0.75966   0.7114  0.72693    Ag
Ag     0.75966   0.7886  0.22693    Ag
C       0.7777   0.5797   0.5633     C
C       0.7777   0.9203   0.0633     C
N       0.7892   0.2313   0.9305     N
N       0.7892   0.2687   0.4305     N
N       0.8053   0.2405    0.252     N
N       0.8053   0.2595    0.752     N
H       0.8082   0.5412   0.5629     H
H       0.8082   0.9588   0.0629     H
C       0.8276   0.2319   0.3624     C
C       0.8276   0.2681   0.8624     C
N       0.8502   0.6792   0.5948     N
N       0.8502   0.8208   0.0948     N
N       0.8582   0.6245   0.5522     N
N       0.8582   0.8755   0.0522     N
H       0.8684    0.201    0.388     H
H       0.8684    0.299    0.888     H
Ag     0.88322  0.20108  0.10987    Ag
Ag     0.88322  0.29892  0.60987    Ag
C       0.9309   0.7044   0.5572     C
C       0.9309   0.7956   0.0572     C
C       0.9424   0.6199   0.4926     C
C       0.9424   0.8801   0.9926     C
H       0.9457   0.7433    0.573     H
H       0.9457   0.7567    0.073     H
H       0.9635   0.5863   0.4558     H
H       0.9635   0.9137   0.9558     H
N       0.9927   0.6712   0.4937     N
N       0.9927   0.8288   0.9937     N
