data_I
_chemical_name_common  '/home/zhangsd/repos/MofS-CGCNN/ML/data/SSD/clean_cifs/VAZLUF_clean'
_cell_length_a  9.95130
_cell_length_b  9.95130
_cell_length_c 13.48490
_cell_angle_alpha 85.78940
_cell_angle_beta  69.76560
_cell_angle_gamma 115.58400
_space_group_name_H-M_alt      'P 1'


loop_
_space_group_symop_operation_xyz
  'x, y, z' 

loop_
_atom_site_label
_atom_site_fract_x
_atom_site_fract_y
_atom_site_fract_z
_atom_site_type_symbol
O       0.0074   0.3314    0.037     O
H       0.0138   0.9468    0.854     H
O       0.0297   0.6277   0.6354     O
Sm     0.04057  0.26747  0.49804    Sm
C       0.0622   0.4058   0.2656     C
O       0.0721   0.4935   0.1896     O
C       0.1029    0.998   0.8709     C
C       0.1203   0.7718   0.9619     C
O       0.1316   0.9556    0.537     O
O       0.1647   0.6801   0.3976     O
C       0.1673   0.9329   0.9182     C
C       0.1714   0.3278   0.2344     C
H       0.1813   0.2344   0.8209     H
O       0.1831   0.2617   0.3104     O
C       0.1968   0.1589   0.8523     C
O       0.2134   0.7501   0.9973     O
C       0.2337   0.0822   0.5381     C
O       0.2369   0.3349   0.1354     O
O       0.2474   0.2107   0.5027     O
Sm     0.26551  0.53861  0.00196    Sm
O       0.2747   0.5305     0.41     O
C       0.2788   0.6578   0.3996     C
O       0.2996   0.0441   0.9281     O
H       0.3008   0.8678    0.646     H
C       0.3141   0.1827   0.8888     C
C       0.3511   0.0855   0.5818     C
C       0.3689   0.9738   0.6291     C
O       0.4223   0.4377   0.8976     O
C       0.4285   0.7971   0.3888     C
O       0.4405   0.6847     0.09     O
C       0.4426   0.3216   0.8996     C
H       0.4447   0.9978   0.3209     H
O       0.4722   0.2277   0.5719     O
C       0.4888   0.9509   0.3523     C
C       0.5112   0.0491   0.6477     C
O       0.5278   0.7723   0.4281     O
H       0.5553   0.0022   0.6791     H
C       0.5574   0.6784   0.1004     C
O       0.5595   0.3153     0.91     O
C       0.5715   0.2029   0.6112     C
O       0.5777   0.5623   0.1024     O
C       0.6311   0.0262   0.3709     C
C       0.6489   0.9145   0.4182     C
C       0.6859   0.8173   0.1112     C
H       0.6992   0.1322    0.354     H
O       0.7004   0.9559   0.0719     O
C       0.7212   0.3422   0.6004     C
O       0.7253   0.4695     0.59     O
Sm     0.73449  0.46139  0.99804    Sm
O       0.7526   0.7893   0.4973     O
O       0.7631   0.6651   0.8646     O
C       0.7663   0.9178   0.4619     C
O       0.7866   0.2499   0.0027     O
C       0.8032   0.8411   0.1477     C
O       0.8169   0.7383   0.6896     O
H       0.8187   0.7656   0.1791     H
C       0.8286   0.6722   0.7656     C
C       0.8327   0.0671   0.0818     C
O       0.8353   0.3199   0.6024     O
O       0.8684   0.0444    0.463     O
C       0.8797   0.2282   0.0381     C
C       0.8971    0.002   0.1291     C
O       0.9279   0.5065   0.8104     O
C       0.9378   0.5942   0.7344     C
Sm     0.95943  0.73253  0.50196    Sm
O       0.9703   0.3723   0.3646     O
H       0.9862   0.0532    0.146     H
O       0.9926   0.6686    0.963     O
