data_I
_chemical_name_common  '/home/zhangsd/repos/MofS-CGCNN/ML/data/SSD/clean_cifs/VAZMOA_clean'
_cell_length_a  9.81840
_cell_length_b  9.81840
_cell_length_c 13.26160
_cell_angle_alpha 84.78870
_cell_angle_beta  70.77290
_cell_angle_gamma 115.62700
_space_group_name_H-M_alt      'P 1'


loop_
_space_group_symop_operation_xyz
  'x, y, z' 

loop_
_atom_site_label
_atom_site_fract_x
_atom_site_fract_y
_atom_site_fract_z
_atom_site_type_symbol
H       0.0079   0.9476   0.8507     H
O       0.0143   0.3382   0.0403     O
O       0.0242   0.6219   0.6359     O
Yb     0.04229  0.26846  0.49651    Yb
C       0.0683   0.4131    0.265     C
O       0.0804   0.5034   0.1852     O
C       0.0977   0.9985   0.8688     C
C       0.1159   0.7661   0.9602     C
O       0.1215   0.9454   0.5403     O
O       0.1551   0.6802   0.4055     O
C       0.1641   0.9309   0.9162     C
H       0.1772   0.2409   0.8207     H
C       0.1781   0.3333    0.235     C
O       0.1886   0.2656   0.3148     O
C       0.1927    0.163   0.8519     C
O       0.2119   0.7415    0.994     O
C       0.2263   0.0761   0.5398     C
O       0.2355   0.2059    0.506     O
O       0.2422   0.3399   0.1359     O
Yb     0.26497   0.5388  0.00349    Yb
O       0.2681   0.5277    0.414     O
C       0.2728   0.6585   0.4039     C
O       0.2976   0.0427   0.9289     O
H       0.2983   0.8586   0.6493     H
C       0.3107    0.184   0.8905     C
C       0.3471   0.0803   0.5838     C
C       0.3673   0.9665   0.6312     C
O       0.4143   0.4394   0.9055     O
C       0.4255   0.7988   0.3905     C
C       0.4376   0.3233   0.9039     C
H       0.4384   0.0021   0.3207     H
O       0.4417   0.6821    0.086     O
O       0.4716   0.2265   0.5711     O
C       0.4851   0.9554   0.3519     C
C       0.5149   0.0446   0.6481     C
O       0.5284   0.7735   0.4289     O
O       0.5583   0.3179    0.914     O
H       0.5616   0.9979   0.6793     H
C       0.5624   0.6767   0.0961     C
C       0.5745   0.2012   0.6095     C
O       0.5857   0.5606   0.0945     O
C       0.6327   0.0335   0.3688     C
C       0.6529   0.9197   0.4162     C
C       0.6893    0.816   0.1095     C
H       0.7017   0.1414   0.3507     H
O       0.7024   0.9573   0.0711     O
C       0.7272   0.3415   0.5961     C
O       0.7319   0.4723    0.586     O
Yb     0.73503   0.4612  0.99651    Yb
O       0.7578   0.6601   0.8641     O
O       0.7645   0.7941    0.494     O
C       0.7737   0.9239   0.4602     C
O       0.7881   0.2585    0.006     O
C       0.8073    0.837   0.1481     C
O       0.8114   0.7344   0.6852     O
C       0.8219   0.6667    0.765     C
H       0.8228   0.7591   0.1793     H
C       0.8359   0.0691   0.0838     C
O       0.8449   0.3198   0.5945     O
O       0.8785   0.0546   0.4597     O
C       0.8841   0.2339   0.0398     C
C       0.9023   0.0015   0.1312     C
O       0.9196   0.4966   0.8148     O
C       0.9317   0.5869    0.735     C
Yb     0.95771  0.73154  0.50349    Yb
O       0.9758   0.3781   0.3641     O
O       0.9857   0.6618   0.9597     O
H       0.9921   0.0524   0.1493     H
