data_I
_chemical_name_common  '/home/zhangsd/repos/MofS-CGCNN/ML/data/SSD/clean_cifs/VAZMIU_clean'
_cell_length_a  9.85460
_cell_length_b  9.85460
_cell_length_c 13.30950
_cell_angle_alpha 85.16130
_cell_angle_beta  70.35120
_cell_angle_gamma 115.59100
_space_group_name_H-M_alt      'P 1'


loop_
_space_group_symop_operation_xyz
  'x, y, z' 

loop_
_atom_site_label
_atom_site_fract_x
_atom_site_fract_y
_atom_site_fract_z
_atom_site_type_symbol
H       0.0103   0.9462   0.8523     H
O       0.0116   0.3356   0.0392     O
O       0.0264   0.6244   0.6354     O
Ho     0.04166  0.26813  0.49713    Ho
C       0.0662   0.4104   0.2652     C
O       0.0776   0.5002   0.1868     O
C       0.0999   0.9978   0.8699     C
C       0.1182   0.7682    0.961     C
O       0.1252   0.9492   0.5392     O
O       0.1587   0.6805   0.4022     O
C       0.1648   0.9318    0.917     C
C       0.1756   0.3314   0.2348     C
H       0.1783   0.2387   0.8206     H
O        0.187   0.2644   0.3132     O
C       0.1941   0.1619    0.852     C
O       0.2119   0.7443   0.9956     O
C       0.2292   0.0792    0.539     C
O       0.2399   0.2075   0.5044     O
O       0.2402   0.3382   0.1354     O
Ho     0.26526  0.53879  0.00287    Ho
O       0.2697   0.5283   0.4132     O
C       0.2753   0.6582   0.4015     C
O       0.2983   0.0433   0.9284     O
H       0.2985   0.8626   0.6477     H
C       0.3116   0.1834   0.8898     C
C       0.3488   0.0818    0.583     C
C       0.3677   0.9698   0.6301     C
O       0.4173   0.4391   0.9022     O
C       0.4268   0.7986   0.3898     C
C       0.4403   0.3232   0.9015     C
H       0.4407   0.0011   0.3206     H
O       0.4415   0.6829   0.0868     O
O       0.4717   0.2267   0.5716     O
C       0.4861   0.9539    0.352     C
C       0.5139   0.0461    0.648     C
O       0.5283   0.7733   0.4284     O
O       0.5585   0.3171   0.9132     O
H       0.5593   0.9989   0.6794     H
C       0.5597   0.6768   0.0985     C
C       0.5732   0.2014   0.6102     C
O       0.5827   0.5609   0.0978     O
C       0.6323   0.0302   0.3699     C
C       0.6512   0.9182    0.417     C
C       0.6884   0.8166   0.1102     C
H       0.7015   0.1374   0.3523     H
O       0.7017   0.9567   0.0716     O
C       0.7247   0.3418   0.5985     C
O       0.7303   0.4717   0.5868     O
Ho     0.73474  0.46121  0.99713    Ho
O       0.7598   0.6618   0.8646     O
O       0.7601   0.7925   0.4956     O
C       0.7708   0.9208    0.461     C
O       0.7881   0.2557   0.0044     O
C       0.8059   0.8381    0.148     C
O        0.813   0.7356   0.6868     O
H       0.8217   0.7613   0.1794     H
C       0.8244   0.6686   0.7652     C
C       0.8352   0.0682    0.083     C
O       0.8413   0.3195   0.5978     O
O       0.8748   0.0508   0.4608     O
C       0.8818   0.2318    0.039     C
C       0.9001   0.0022   0.1301     C
O       0.9224   0.4998   0.8132     O
C       0.9338   0.5896   0.7348     C
Ho     0.95834  0.73187  0.50287    Ho
O       0.9736   0.3756   0.3646     O
O       0.9884   0.6644   0.9608     O
H       0.9897   0.0538   0.1477     H
