data_I
_chemical_name_common  '/home/zhangsd/repos/MofS-CGCNN/ML/data/SSD/clean_cifs/VEGXIQ_clean'
_cell_length_a  7.31600
_cell_length_b 16.53300
_cell_length_c 32.02300
_cell_angle_alpha 90.00000
_cell_angle_beta  90.00000
_cell_angle_gamma 99.91000
_space_group_name_H-M_alt      'P 1'


loop_
_space_group_symop_operation_xyz
  'x, y, z' 

loop_
_atom_site_label
_atom_site_fract_x
_atom_site_fract_y
_atom_site_fract_z
_atom_site_type_symbol
Mn         0.0      0.0      0.5    Mn
Mn         0.0      0.5      0.0    Mn
C       0.0083    0.268  0.79565     C
C       0.0083    0.768  0.70435     C
F       0.0168  0.47878  0.67819     F
F       0.0168  0.97878  0.82181     F
F       0.0178  0.15386  0.18152     F
F       0.0178  0.65386  0.31848     F
C        0.023   0.4603  0.17833     C
C        0.023   0.9603  0.32167     C
C       0.0233   0.0565  0.91225     C
C       0.0233   0.5565  0.58775     C
O       0.0263  0.16913  0.40313     O
O       0.0263  0.66913  0.09687     O
C       0.0342    0.408  0.61321     C
C       0.0342    0.908  0.88679     C
C       0.0397   0.0175  0.60266     C
C       0.0397   0.5175  0.89734     C
H        0.045   0.1749   0.9313     H
H        0.045   0.6749   0.5687     H
O       0.0524  0.00276  0.43134     O
O       0.0524  0.50276  0.06866     O
C       0.0535   0.2392  0.33702     C
C       0.0535   0.7392  0.16298     C
C       0.0565   0.3106   0.8706     C
C       0.0565   0.8106   0.6294     C
H       0.0581   0.3751   0.5333     H
H       0.0581   0.8751   0.9667     H
C       0.0616   0.4457  0.13645     C
C       0.0616   0.9457  0.36355     C
H       0.0623   0.2682   0.2362     H
H       0.0623   0.7682   0.2638     H
C        0.071   0.4133  0.66117     C
C        0.071   0.9133  0.83883     C
H       0.0739   0.0119   0.6851     H
H       0.0739   0.5119   0.8149     H
C       0.1013   0.2746  0.26404     C
C       0.1013   0.7746  0.23596     C
H       0.1041   0.4448   0.2379     H
H       0.1041   0.9448   0.2621     H
H       0.1052   0.4527   0.4082     H
H       0.1052   0.9527   0.0918     H
C       0.1064   0.3346   0.5479     C
C       0.1064   0.8346   0.9521     C
C       0.1135   0.1334  0.92571     C
C       0.1135   0.6334  0.57429     C
C       0.1175   0.3387   0.5917     C
C       0.1175   0.8387   0.9083     C
H       0.1219    0.301   0.7891     H
H       0.1219    0.801   0.7109     H
C        0.122   0.4933  0.59518     C
C        0.122   0.9933  0.90482     C
C       0.1283   0.4334  0.20998     C
C       0.1283   0.9334  0.29002     C
H       0.1501   0.2679    0.497     H
H       0.1501   0.7679    0.003     H
C       0.1657   0.2716  0.52596     C
C       0.1657   0.7716  0.97404     C
C       0.1808   0.1118  0.10688     C
C       0.1808   0.6118  0.39312     C
C       0.1981     0.28  0.61274     C
C       0.1981     0.78  0.88726     C
O       0.2004  0.00357  0.60888     O
O       0.2004  0.50357  0.89112     O
O       0.2005  0.11656   0.4924     O
O       0.2005  0.61656   0.0076     O
C       0.2018   0.4008  0.12677     C
C       0.2018   0.9008  0.37323     C
H       0.2056   0.2815   0.6419     H
H       0.2056   0.7815   0.8581     H
H         0.21    0.386   0.0028     H
H         0.21    0.886   0.4972     H
O       0.2192   0.4344  0.99233     O
O       0.2192   0.9344  0.50767     O
C         0.22   0.2915  0.34677     C
C         0.22   0.7915  0.15323     C
H        0.226   0.3897   0.0989     H
H        0.226   0.8897   0.4011     H
F       0.2291  0.09837  0.06743     F
F       0.2291  0.59837  0.43257     F
O       0.2295   0.3322  0.86616     O
O       0.2295   0.8322  0.63384     O
F       0.2464  0.19167  0.11516     F
F       0.2464  0.69167  0.38484     F
C        0.249   0.2136   0.5473     C
C        0.249   0.7136   0.9527     C
Mn     0.25237  0.39854  0.92932    Mn
Mn     0.25237  0.89854  0.57068    Mn
F       0.2537  0.41898  0.66933     F
F       0.2537  0.91898  0.83067     F
H       0.2603   0.2972   0.3745     H
H       0.2603   0.7972   0.1255     H
C        0.268   0.2187  0.59071     C
C        0.268   0.7187  0.90929     C
C       0.2691   0.3269  0.27358     C
C       0.2691   0.8269  0.22642     C
C       0.2709   0.3894  0.20034     C
C       0.2709   0.8894  0.29966     C
Mn     0.27354  0.12514  0.42635    Mn
Mn     0.27354  0.62514  0.07365    Mn
F       0.2749  0.06762  0.13156     F
F       0.2749  0.56762  0.36844     F
O       0.3024  0.28464  0.95466     O
O       0.3024  0.78464  0.54534     O
C       0.3052   0.3726  0.15847     C
C       0.3052   0.8726  0.34153     C
C       0.3063   0.1432  0.52384     C
C       0.3063   0.6432  0.97616     C
C       0.3068   0.1486  0.93082     C
C       0.3068   0.6486  0.56918     C
C       0.3151   0.0079  0.91139     C
C       0.3151   0.5079  0.58861     C
C       0.3258   0.3352   0.3153     C
C       0.3258   0.8352   0.1847     C
H       0.3272   0.1812    0.605     H
H       0.3272   0.6812    0.895     H
F       0.3334  0.06797  0.77355     F
F       0.3334  0.56797  0.72645     F
F       0.3505  0.16866  0.69708     F
F       0.3505  0.66866  0.80292     F
H       0.3829   0.4655   0.5927     H
H       0.3829   0.9655   0.9073     H
C       0.3912   0.3659  0.23679     C
C       0.3912   0.8659  0.26321     C
H        0.398   0.3424   0.1518     H
H        0.398   0.8424   0.3482     H
C       0.4015   0.2354  0.94126     C
C       0.4015   0.7354  0.55874     C
F       0.4028  0.01114  0.71648     F
F       0.4028  0.51114  0.78352     F
C       0.4056   0.0853    0.924     C
C       0.4056   0.5853    0.576     C
F       0.4064  0.22791  0.75698     F
F       0.4064  0.72791  0.74302     F
F       0.4083  0.23605  0.20534     F
F       0.4083  0.73605  0.29466     F
O       0.4237  0.24728  0.43457     O
O       0.4237  0.74728  0.06543     O
F       0.4317   0.4957  0.27166     F
F       0.4317   0.9957  0.22834     F
H        0.436   0.3704   0.3221     H
H        0.436   0.8704   0.1779     H
H        0.439    0.004   0.4225     H
H        0.439    0.504   0.0775     H
O       0.4396  0.11139  0.53535     O
O       0.4396  0.61139  0.96465     O
H       0.4658   0.4053   0.4279     H
H       0.4658   0.9053   0.0721     H
O       0.4672  0.04652  0.43587     O
O       0.4672  0.54652  0.06413     O
C       0.4756   0.0538   0.7501     C
C       0.4756   0.5538   0.7499     C
C       0.4889   0.1992   0.7239     C
C       0.4889   0.6992   0.7761     C
Mn         0.5     -0.0      0.5    Mn
Mn         0.5      0.5      0.0    Mn
C       0.5111   0.3008   0.2239     C
C       0.5111   0.8008   0.2761     C
C       0.5244   0.4462   0.2501     C
C       0.5244   0.9462   0.2499     C
O       0.5328  0.45348  0.93587     O
O       0.5328  0.95348  0.56413     O
H       0.5342   0.0947   0.9279     H
H       0.5342   0.5947   0.5721     H
O       0.5604  0.38861  0.03535     O
O       0.5604  0.88861  0.46465     O
H        0.561    0.496   0.9225     H
H        0.561    0.996   0.5775     H
H        0.564   0.1296   0.8221     H
H        0.564   0.6296   0.6779     H
F       0.5683   0.0043  0.77166     F
F       0.5683   0.5043  0.72834     F
O       0.5763  0.25272  0.93457     O
O       0.5763  0.75272  0.56543     O
F       0.5917  0.26395  0.70534     F
F       0.5917  0.76395  0.79466     F
F       0.5936  0.27209  0.25698     F
F       0.5936  0.77209  0.24302     F
C       0.5944   0.4147    0.424     C
C       0.5944   0.9147    0.076     C
F       0.5972  0.48886  0.21648     F
F       0.5972  0.98886  0.28352     F
C       0.5985   0.2646  0.44126     C
C       0.5985   0.7646  0.05874     C
H        0.602   0.1576   0.6518     H
H        0.602   0.6576   0.8482     H
C       0.6088   0.1341  0.73679     C
C       0.6088   0.6341  0.76321     C
H       0.6171   0.0345   0.0927     H
H       0.6171   0.5345   0.4073     H
F       0.6495  0.33134  0.19708     F
F       0.6495  0.83134  0.30292     F
F       0.6666  0.43203  0.27355     F
F       0.6666  0.93203  0.22645     F
H       0.6728   0.3188    0.105     H
H       0.6728   0.8188    0.395     H
C       0.6742   0.1648   0.8153     C
C       0.6742   0.6648   0.6847     C
C       0.6849   0.4921  0.41139     C
C       0.6849   0.9921  0.08861     C
C       0.6932   0.3514  0.43082     C
C       0.6932   0.8514  0.06918     C
C       0.6937   0.3568  0.02384     C
C       0.6937   0.8568  0.47616     C
C       0.6948   0.1274  0.65847     C
C       0.6948   0.6274  0.84153     C
O       0.6976  0.21536  0.45466     O
O       0.6976  0.71536  0.04534     O
F       0.7251  0.43238  0.63156     F
F       0.7251  0.93238  0.86844     F
Mn     0.72646  0.37486  0.92635    Mn
Mn     0.72646  0.87486  0.57365    Mn
C       0.7291   0.1106  0.70034     C
C       0.7291   0.6106  0.79966     C
C       0.7309   0.1731  0.77358     C
C       0.7309   0.6731  0.72642     C
C        0.732   0.2813  0.09071     C
C        0.732   0.7813  0.40929     C
H       0.7397   0.2028   0.8745     H
H       0.7397   0.7028   0.6255     H
F       0.7463  0.08102  0.16933     F
F       0.7463  0.58102  0.33067     F
Mn     0.74763  0.10146  0.42932    Mn
Mn     0.74763  0.60146  0.07068    Mn
C        0.751   0.2864   0.0473     C
C        0.751   0.7864   0.4527     C
F       0.7536  0.30833  0.61516     F
F       0.7536  0.80833  0.88484     F
O       0.7705   0.1678  0.36616     O
O       0.7705   0.6678  0.13384     O
F       0.7709  0.40163  0.56743     F
F       0.7709  0.90163  0.93257     F
H        0.774   0.1103   0.5989     H
H        0.774   0.6103   0.9011     H
C         0.78   0.2085  0.84677     C
C         0.78   0.7085  0.65323     C
O       0.7808   0.0656  0.49233     O
O       0.7808   0.5656  0.00767     O
H         0.79    0.114   0.5028     H
H         0.79    0.614   0.9972     H
H       0.7944   0.2185   0.1419     H
H       0.7944   0.7185   0.3581     H
C       0.7982   0.0992  0.62677     C
C       0.7982   0.5992  0.87323     C
O       0.7995  0.38344   0.9924     O
O       0.7995  0.88344   0.5076     O
O       0.7996  0.49643  0.10888     O
O       0.7996  0.99643  0.39112     O
C       0.8019     0.22  0.11274     C
C       0.8019     0.72  0.38726     C
C       0.8192   0.3882  0.60688     C
C       0.8192   0.8882  0.89312     C
C       0.8343   0.2284  0.02596     C
C       0.8343   0.7284  0.47404     C
H       0.8499   0.2321    0.997     H
H       0.8499   0.7321    0.503     H
C       0.8717   0.0666  0.70998     C
C       0.8717   0.5666  0.79002     C
C        0.878   0.0067  0.09518     C
C        0.878   0.5067  0.40482     C
H       0.8781    0.199   0.2891     H
H       0.8781    0.699   0.2109     H
C       0.8825   0.1613   0.0917     C
C       0.8825   0.6613   0.4083     C
C       0.8865   0.3666  0.42571     C
C       0.8865   0.8666  0.07429     C
C       0.8936   0.1654   0.0479     C
C       0.8936   0.6654   0.4521     C
H       0.8948   0.0473   0.9082     H
H       0.8948   0.5473   0.5918     H
H       0.8959   0.0552   0.7379     H
H       0.8959   0.5552   0.7621     H
C       0.8987   0.2254  0.76404     C
C       0.8987   0.7254  0.73596     C
H       0.9261   0.4881   0.1851     H
H       0.9261   0.9881   0.3149     H
C        0.929   0.0867  0.16117     C
C        0.929   0.5867  0.33883     C
H       0.9377   0.2318   0.7362     H
H       0.9377   0.7318   0.7638     H
C       0.9384   0.0543  0.63645     C
C       0.9384   0.5543  0.86355     C
H       0.9419   0.1249   0.0333     H
H       0.9419   0.6249   0.4667     H
C       0.9435   0.1894   0.3706     C
C       0.9435   0.6894   0.1294     C
C       0.9465   0.2608  0.83702     C
C       0.9465   0.7608  0.66298     C
O       0.9476  0.49724  0.93134     O
O       0.9476  0.99724  0.56866     O
H        0.955   0.3251   0.4313     H
H        0.955   0.8251   0.0687     H
C       0.9603   0.4825  0.10266     C
C       0.9603   0.9825  0.39734     C
C       0.9658    0.092  0.11321     C
C       0.9658    0.592  0.38679     C
O       0.9737  0.33087  0.90313     O
O       0.9737  0.83087  0.59687     O
C       0.9767   0.4435  0.41225     C
C       0.9767   0.9435  0.08775     C
C        0.977   0.0397  0.67833     C
C        0.977   0.5397  0.82167     C
F       0.9822  0.34614  0.68152     F
F       0.9822  0.84614  0.81848     F
F       0.9832  0.02122  0.17819     F
F       0.9832  0.52122  0.32181     F
C       0.9917    0.232  0.29565     C
C       0.9917    0.732  0.20435     C
