data_I
_chemical_name_common  '/home/zhangsd/repos/MofS-CGCNN/ML/data/SSD/clean_cifs/VEHJOJ_clean'
_cell_length_a 20.57300
_cell_length_b 20.57300
_cell_length_c 20.57300
_cell_angle_alpha 90.00000
_cell_angle_beta  90.00000
_cell_angle_gamma 90.00000
_space_group_name_H-M_alt      'P 1'


loop_
_space_group_symop_operation_xyz
  'x, y, z' 

loop_
_atom_site_label
_atom_site_fract_x
_atom_site_fract_y
_atom_site_fract_z
_atom_site_type_symbol
H          0.0   0.2331   0.2331     H
H          0.0   0.2331   0.7669     H
C          0.0   0.2651   0.2651     C
C          0.0   0.2651   0.7349     C
C          0.0     0.36     0.36     C
C          0.0     0.36     0.64     C
C          0.0   0.4133   0.4133     C
C          0.0   0.4133   0.5867     C
C          0.0   0.5867   0.4133     C
C          0.0   0.5867   0.5867     C
C          0.0     0.64     0.36     C
C          0.0     0.64     0.64     C
C          0.0   0.7349   0.2651     C
C          0.0   0.7349   0.7349     C
H          0.0   0.7669   0.2331     H
H          0.0   0.7669   0.7669     H
O       0.0539   0.4318   0.4318     O
O       0.0539   0.4318   0.5682     O
O       0.0539   0.5682   0.4318     O
O       0.0539   0.5682   0.5682     O
C        0.057   0.2882   0.2882     C
C        0.057   0.2882   0.7118     C
C        0.057   0.7118   0.2882     C
C        0.057   0.7118   0.7118     C
C        0.059   0.3341   0.3341     C
C        0.059   0.3341   0.6659     C
C        0.059   0.6659   0.3341     C
C        0.059   0.6659   0.6659     C
Zn     0.07243      0.5      0.5    Zn
H       0.0989   0.3491   0.3491     H
H       0.0989   0.3491   0.6509     H
H       0.0989   0.6509   0.3491     H
H       0.0989   0.6509   0.6509     H
O       0.1123   0.2186   0.2186     O
O       0.1123   0.2186   0.7814     O
O       0.1123   0.7814   0.2186     O
O       0.1123   0.7814   0.7814     O
C       0.1188    0.261    0.261     C
C       0.1188    0.261    0.739     C
C       0.1188    0.739    0.261     C
C       0.1188    0.739    0.739     C
Zn     0.16524  0.16524  0.16524    Zn
Zn     0.16524  0.16524  0.83476    Zn
Zn     0.16524  0.83476  0.16524    Zn
Zn     0.16524  0.83476  0.83476    Zn
O       0.1717   0.2831   0.2831     O
O       0.1717   0.2831   0.7169     O
O       0.1717   0.7169   0.2831     O
O       0.1717   0.7169   0.7169     O
O       0.2186   0.1123   0.2186     O
O       0.2186   0.1123   0.7814     O
O       0.2186   0.2186   0.1123     O
O       0.2186   0.2186   0.8877     O
O       0.2186   0.7814   0.1123     O
O       0.2186   0.7814   0.8877     O
O       0.2186   0.8877   0.2186     O
O       0.2186   0.8877   0.7814     O
H       0.2331      0.0   0.2331     H
H       0.2331      0.0   0.7669     H
H       0.2331   0.2331      0.0     H
H       0.2331   0.7669      0.0     H
C        0.261   0.1188    0.261     C
C        0.261   0.1188    0.739     C
C        0.261    0.261   0.1188     C
C        0.261    0.261   0.8812     C
C        0.261    0.739   0.1188     C
C        0.261    0.739   0.8812     C
C        0.261   0.8812    0.261     C
C        0.261   0.8812    0.739     C
Zn     0.26319  0.26319  0.26319    Zn
Zn     0.26319  0.26319  0.73681    Zn
Zn     0.26319  0.73681  0.26319    Zn
Zn     0.26319  0.73681  0.73681    Zn
C       0.2651      0.0   0.2651     C
C       0.2651      0.0   0.7349     C
C       0.2651   0.2651      0.0     C
C       0.2651   0.7349      0.0     C
O       0.2831   0.1717   0.2831     O
O       0.2831   0.1717   0.7169     O
O       0.2831   0.2831   0.1717     O
O       0.2831   0.2831   0.8283     O
O       0.2831   0.7169   0.1717     O
O       0.2831   0.7169   0.8283     O
O       0.2831   0.8283   0.2831     O
O       0.2831   0.8283   0.7169     O
C       0.2882    0.057   0.2882     C
C       0.2882    0.057   0.7118     C
C       0.2882   0.2882    0.057     C
C       0.2882   0.2882    0.943     C
C       0.2882   0.7118    0.057     C
C       0.2882   0.7118    0.943     C
C       0.2882    0.943   0.2882     C
C       0.2882    0.943   0.7118     C
C       0.3341    0.059   0.3341     C
C       0.3341    0.059   0.6659     C
C       0.3341   0.3341    0.059     C
C       0.3341   0.3341    0.941     C
C       0.3341   0.6659    0.059     C
C       0.3341   0.6659    0.941     C
C       0.3341    0.941   0.3341     C
C       0.3341    0.941   0.6659     C
H       0.3491   0.0989   0.3491     H
H       0.3491   0.0989   0.6509     H
H       0.3491   0.3491   0.0989     H
H       0.3491   0.3491   0.9011     H
H       0.3491   0.6509   0.0989     H
H       0.3491   0.6509   0.9011     H
H       0.3491   0.9011   0.3491     H
H       0.3491   0.9011   0.6509     H
C         0.36      0.0     0.36     C
C         0.36      0.0     0.64     C
C         0.36     0.36      0.0     C
C         0.36     0.64      0.0     C
C       0.4133      0.0   0.4133     C
C       0.4133      0.0   0.5867     C
C       0.4133   0.4133      0.0     C
C       0.4133   0.5867      0.0     C
O       0.4318   0.0539   0.4318     O
O       0.4318   0.0539   0.5682     O
O       0.4318   0.4318   0.0539     O
O       0.4318   0.4318   0.9461     O
O       0.4318   0.5682   0.0539     O
O       0.4318   0.5682   0.9461     O
O       0.4318   0.9461   0.4318     O
O       0.4318   0.9461   0.5682     O
Zn         0.5  0.07243      0.5    Zn
Zn         0.5      0.5  0.07243    Zn
Zn         0.5      0.5  0.92757    Zn
Zn         0.5  0.92757      0.5    Zn
O       0.5682   0.0539   0.4318     O
O       0.5682   0.0539   0.5682     O
O       0.5682   0.4318   0.0539     O
O       0.5682   0.4318   0.9461     O
O       0.5682   0.5682   0.0539     O
O       0.5682   0.5682   0.9461     O
O       0.5682   0.9461   0.4318     O
O       0.5682   0.9461   0.5682     O
C       0.5867      0.0   0.4133     C
C       0.5867      0.0   0.5867     C
C       0.5867   0.4133      0.0     C
C       0.5867   0.5867      0.0     C
C         0.64      0.0     0.36     C
C         0.64      0.0     0.64     C
C         0.64     0.36      0.0     C
C         0.64     0.64      0.0     C
H       0.6509   0.0989   0.3491     H
H       0.6509   0.0989   0.6509     H
H       0.6509   0.3491   0.0989     H
H       0.6509   0.3491   0.9011     H
H       0.6509   0.6509   0.0989     H
H       0.6509   0.6509   0.9011     H
H       0.6509   0.9011   0.3491     H
H       0.6509   0.9011   0.6509     H
C       0.6659    0.059   0.3341     C
C       0.6659    0.059   0.6659     C
C       0.6659   0.3341    0.059     C
C       0.6659   0.3341    0.941     C
C       0.6659   0.6659    0.059     C
C       0.6659   0.6659    0.941     C
C       0.6659    0.941   0.3341     C
C       0.6659    0.941   0.6659     C
C       0.7118    0.057   0.2882     C
C       0.7118    0.057   0.7118     C
C       0.7118   0.2882    0.057     C
C       0.7118   0.2882    0.943     C
C       0.7118   0.7118    0.057     C
C       0.7118   0.7118    0.943     C
C       0.7118    0.943   0.2882     C
C       0.7118    0.943   0.7118     C
O       0.7169   0.1717   0.2831     O
O       0.7169   0.1717   0.7169     O
O       0.7169   0.2831   0.1717     O
O       0.7169   0.2831   0.8283     O
O       0.7169   0.7169   0.1717     O
O       0.7169   0.7169   0.8283     O
O       0.7169   0.8283   0.2831     O
O       0.7169   0.8283   0.7169     O
C       0.7349      0.0   0.2651     C
C       0.7349      0.0   0.7349     C
C       0.7349   0.2651      0.0     C
C       0.7349   0.7349      0.0     C
Zn     0.73681  0.26319  0.26319    Zn
Zn     0.73681  0.26319  0.73681    Zn
Zn     0.73681  0.73681  0.26319    Zn
Zn     0.73681  0.73681  0.73681    Zn
C        0.739   0.1188    0.261     C
C        0.739   0.1188    0.739     C
C        0.739    0.261   0.1188     C
C        0.739    0.261   0.8812     C
C        0.739    0.739   0.1188     C
C        0.739    0.739   0.8812     C
C        0.739   0.8812    0.261     C
C        0.739   0.8812    0.739     C
H       0.7669      0.0   0.2331     H
H       0.7669      0.0   0.7669     H
H       0.7669   0.2331      0.0     H
H       0.7669   0.7669      0.0     H
O       0.7814   0.1123   0.2186     O
O       0.7814   0.1123   0.7814     O
O       0.7814   0.2186   0.1123     O
O       0.7814   0.2186   0.8877     O
O       0.7814   0.7814   0.1123     O
O       0.7814   0.7814   0.8877     O
O       0.7814   0.8877   0.2186     O
O       0.7814   0.8877   0.7814     O
O       0.8283   0.2831   0.2831     O
O       0.8283   0.2831   0.7169     O
O       0.8283   0.7169   0.2831     O
O       0.8283   0.7169   0.7169     O
Zn     0.83476  0.16524  0.16524    Zn
Zn     0.83476  0.16524  0.83476    Zn
Zn     0.83476  0.83476  0.16524    Zn
Zn     0.83476  0.83476  0.83476    Zn
C       0.8812    0.261    0.261     C
C       0.8812    0.261    0.739     C
C       0.8812    0.739    0.261     C
C       0.8812    0.739    0.739     C
O       0.8877   0.2186   0.2186     O
O       0.8877   0.2186   0.7814     O
O       0.8877   0.7814   0.2186     O
O       0.8877   0.7814   0.7814     O
H       0.9011   0.3491   0.3491     H
H       0.9011   0.3491   0.6509     H
H       0.9011   0.6509   0.3491     H
H       0.9011   0.6509   0.6509     H
Zn     0.92757      0.5      0.5    Zn
C        0.941   0.3341   0.3341     C
C        0.941   0.3341   0.6659     C
C        0.941   0.6659   0.3341     C
C        0.941   0.6659   0.6659     C
C        0.943   0.2882   0.2882     C
C        0.943   0.2882   0.7118     C
C        0.943   0.7118   0.2882     C
C        0.943   0.7118   0.7118     C
O       0.9461   0.4318   0.4318     O
O       0.9461   0.4318   0.5682     O
O       0.9461   0.5682   0.4318     O
O       0.9461   0.5682   0.5682     O
