data_I
_chemical_name_common  '/home/zhangsd/repos/MofS-CGCNN/ML/data/SSD/clean_cifs/VEHLAW_clean'
_cell_length_a 16.17490
_cell_length_b  8.32470
_cell_length_c 17.06730
_cell_angle_alpha 90.00000
_cell_angle_beta  114.78100
_cell_angle_gamma 90.00000
_space_group_name_H-M_alt      'P 1'


loop_
_space_group_symop_operation_xyz
  'x, y, z' 

loop_
_atom_site_label
_atom_site_fract_x
_atom_site_fract_y
_atom_site_fract_z
_atom_site_type_symbol
Zn         0.0  0.33863     0.75    Zn
Zn         0.0  0.66137     0.25    Zn
P      0.00752  0.39687  0.12375     P
P      0.00752  0.60313  0.62375     P
H         0.01    0.281    0.332     H
H         0.01    0.719    0.832     H
O       0.0489   0.4658   0.6848     O
O       0.0489   0.5342   0.1848     O
O       0.0734   0.3211   0.0933     O
O       0.0734   0.6789   0.5933     O
O       0.0835   0.4378   0.4484     O
O       0.0835   0.5622   0.9484     O
H        0.105    0.018    0.372     H
H        0.105    0.982    0.872     H
O       0.1055   0.2158   0.8193     O
O       0.1055   0.7842   0.3193     O
Zn     0.13532  0.38111  0.02182    Zn
Zn     0.13532  0.61889  0.52182    Zn
O       0.1388   0.1668   0.9746     O
O       0.1388   0.8332   0.4746     O
P      0.14664  0.10585  0.89384     P
P      0.14664  0.89415  0.39384     P
O       0.2401   0.0573   0.9082     O
O       0.2401   0.9427   0.4082     O
O       0.2599   0.4427   0.0918     O
O       0.2599   0.5573   0.5918     O
P      0.35336  0.39415  0.10616     P
P      0.35336  0.60585  0.60616     P
O       0.3612   0.3332   0.0254     O
O       0.3612   0.6668   0.5254     O
Zn     0.36468  0.11889  0.97818    Zn
Zn     0.36468  0.88111  0.47818    Zn
O       0.3945   0.2842   0.1807     O
O       0.3945   0.7158   0.6807     O
H        0.395    0.482    0.628     H
H        0.395    0.518    0.128     H
O       0.4165   0.0622   0.5516     O
O       0.4165   0.9378   0.0516     O
O       0.4266   0.1789   0.9067     O
O       0.4266   0.8211   0.4067     O
O       0.4511   0.0342   0.3152     O
O       0.4511   0.9658   0.8152     O
H         0.49    0.219    0.668     H
H         0.49    0.781    0.168     H
P      0.49248  0.10313  0.87625     P
P      0.49248  0.89687  0.37625     P
Zn         0.5  0.16137     0.25    Zn
Zn         0.5  0.83863     0.75    Zn
P      0.50752  0.10313  0.62375     P
P      0.50752  0.89687  0.12375     P
H         0.51    0.219    0.832     H
H         0.51    0.781    0.332     H
O       0.5489   0.0342   0.1848     O
O       0.5489   0.9658   0.6848     O
O       0.5734   0.1789   0.5933     O
O       0.5734   0.8211   0.0933     O
O       0.5835   0.0622   0.9484     O
O       0.5835   0.9378   0.4484     O
H        0.605    0.482    0.872     H
H        0.605    0.518    0.372     H
O       0.6055   0.2842   0.3193     O
O       0.6055   0.7158   0.8193     O
Zn     0.63532  0.11889  0.52182    Zn
Zn     0.63532  0.88111  0.02182    Zn
O       0.6388   0.3332   0.4746     O
O       0.6388   0.6668   0.9746     O
P      0.64664  0.39415  0.39384     P
P      0.64664  0.60585  0.89384     P
O       0.7401   0.4427   0.4082     O
O       0.7401   0.5573   0.9082     O
O       0.7599   0.0573   0.5918     O
O       0.7599   0.9427   0.0918     O
P      0.85336  0.10585  0.60616     P
P      0.85336  0.89415  0.10616     P
O       0.8612   0.1668   0.5254     O
O       0.8612   0.8332   0.0254     O
Zn     0.86468  0.38111  0.47818    Zn
Zn     0.86468  0.61889  0.97818    Zn
O       0.8945   0.2158   0.6807     O
O       0.8945   0.7842   0.1807     O
H        0.895    0.018    0.128     H
H        0.895    0.982    0.628     H
O       0.9165   0.4378   0.0516     O
O       0.9165   0.5622   0.5516     O
O       0.9266   0.3211   0.4067     O
O       0.9266   0.6789   0.9067     O
O       0.9511   0.4658   0.8152     O
O       0.9511   0.5342   0.3152     O
H         0.99    0.281    0.168     H
H         0.99    0.719    0.668     H
P      0.99248  0.39687  0.37625     P
P      0.99248  0.60313  0.87625     P
