data_I
_chemical_name_common  '/home/zhangsd/repos/MofS-CGCNN/ML/data/SSD/clean_cifs/VEHLIE_clean'
_cell_length_a  9.06060
_cell_length_b 15.75870
_cell_length_c 32.04530
_cell_angle_alpha 90.00000
_cell_angle_beta  90.00000
_cell_angle_gamma 90.00000
_space_group_name_H-M_alt      'P 1'


loop_
_space_group_symop_operation_xyz
  'x, y, z' 

loop_
_atom_site_label
_atom_site_fract_x
_atom_site_fract_y
_atom_site_fract_z
_atom_site_type_symbol
O       0.0068   0.0485  0.09249     O
O       0.0068   0.2015  0.15751     O
O       0.0068   0.5485  0.59249     O
O       0.0068   0.7015  0.65751     O
H       0.0255   0.3478   0.9281     H
H       0.0255   0.4022   0.8219     H
H       0.0255   0.8478   0.4281     H
H       0.0255   0.9022   0.3219     H
O       0.0525    0.357  0.27155     O
O       0.0525    0.393  0.47845     O
O       0.0525    0.857  0.77155     O
O       0.0525    0.893  0.97845     O
O       0.0813   0.0288  0.29664     O
O       0.0813   0.2212  0.95336     O
O       0.0813   0.5288  0.79664     O
O       0.0813   0.7212  0.45336     O
P       0.1052  0.30563  0.30804     P
P       0.1052  0.44437  0.44196     P
P       0.1052  0.80563  0.80804     P
P       0.1052  0.94437  0.94196     P
Zn       0.125    0.125    0.125    Zn
Zn       0.125    0.125  0.26083    Zn
Zn       0.125    0.125  0.98917    Zn
Zn       0.125    0.625  0.48917    Zn
Zn       0.125    0.625    0.625    Zn
Zn       0.125    0.625  0.76083    Zn
P       0.1448  0.30563  0.94196     P
P       0.1448  0.44437  0.80804     P
P       0.1448  0.80563  0.44196     P
P       0.1448  0.94437  0.30804     P
O       0.1687   0.0288  0.95336     O
O       0.1687   0.2212  0.29664     O
O       0.1687   0.5288  0.45336     O
O       0.1687   0.7212  0.79664     O
O       0.1975    0.357  0.97845     O
O       0.1975    0.393  0.77155     O
O       0.1975    0.857  0.47845     O
O       0.1975    0.893  0.27155     O
H       0.2245   0.3478   0.3219     H
H       0.2245   0.4022   0.4281     H
H       0.2245   0.8478   0.8219     H
H       0.2245   0.9022   0.9281     H
O       0.2432   0.0485  0.15751     O
O       0.2432   0.2015  0.09249     O
O       0.2432   0.5485  0.65751     O
O       0.2432   0.7015  0.59249     O
O       0.2568   0.2985  0.90751     O
O       0.2568   0.4515  0.84249     O
O       0.2568   0.7985  0.40751     O
O       0.2568   0.9515  0.34249     O
H       0.2755   0.0978   0.5719     H
H       0.2755   0.1522   0.6781     H
H       0.2755   0.5978   0.0719     H
H       0.2755   0.6522   0.1781     H
O       0.3025    0.107  0.22845     O
O       0.3025    0.143  0.02155     O
O       0.3025    0.607  0.72845     O
O       0.3025    0.643  0.52155     O
O       0.3313   0.2788  0.70336     O
O       0.3313   0.4712  0.04664     O
O       0.3313   0.7788  0.20336     O
O       0.3313   0.9712  0.54664     O
P       0.3552  0.05563  0.19196     P
P       0.3552  0.19437  0.05804     P
P       0.3552  0.55563  0.69196     P
P       0.3552  0.69437  0.55804     P
Zn       0.375    0.375  0.01083    Zn
Zn       0.375    0.375  0.73917    Zn
Zn       0.375    0.375    0.875    Zn
Zn       0.375    0.875  0.23917    Zn
Zn       0.375    0.875    0.375    Zn
Zn       0.375    0.875  0.51083    Zn
P       0.3948  0.05563  0.55804     P
P       0.3948  0.19437  0.69196     P
P       0.3948  0.55563  0.05804     P
P       0.3948  0.69437  0.19196     P
O       0.4187   0.2788  0.04664     O
O       0.4187   0.4712  0.70336     O
O       0.4187   0.7788  0.54664     O
O       0.4187   0.9712  0.20336     O
O       0.4475    0.107  0.52155     O
O       0.4475    0.143  0.72845     O
O       0.4475    0.607  0.02155     O
O       0.4475    0.643  0.22845     O
H       0.4745   0.0978   0.1781     H
H       0.4745   0.1522   0.0719     H
H       0.4745   0.5978   0.6781     H
H       0.4745   0.6522   0.5719     H
O       0.4932   0.2985  0.84249     O
O       0.4932   0.4515  0.90751     O
O       0.4932   0.7985  0.34249     O
O       0.4932   0.9515  0.40751     O
O       0.5068   0.0485  0.59249     O
O       0.5068   0.2015  0.65751     O
O       0.5068   0.5485  0.09249     O
O       0.5068   0.7015  0.15751     O
H       0.5255   0.3478   0.4281     H
H       0.5255   0.4022   0.3219     H
H       0.5255   0.8478   0.9281     H
H       0.5255   0.9022   0.8219     H
O       0.5525    0.357  0.77155     O
O       0.5525    0.393  0.97845     O
O       0.5525    0.857  0.27155     O
O       0.5525    0.893  0.47845     O
O       0.5813   0.0288  0.79664     O
O       0.5813   0.2212  0.45336     O
O       0.5813   0.5288  0.29664     O
O       0.5813   0.7212  0.95336     O
P       0.6052  0.30563  0.80804     P
P       0.6052  0.44437  0.94196     P
P       0.6052  0.80563  0.30804     P
P       0.6052  0.94437  0.44196     P
Zn       0.625    0.125  0.48917    Zn
Zn       0.625    0.125    0.625    Zn
Zn       0.625    0.125  0.76083    Zn
Zn       0.625    0.625    0.125    Zn
Zn       0.625    0.625  0.26083    Zn
Zn       0.625    0.625  0.98917    Zn
P       0.6448  0.30563  0.44196     P
P       0.6448  0.44437  0.30804     P
P       0.6448  0.80563  0.94196     P
P       0.6448  0.94437  0.80804     P
O       0.6687   0.0288  0.45336     O
O       0.6687   0.2212  0.79664     O
O       0.6687   0.5288  0.95336     O
O       0.6687   0.7212  0.29664     O
O       0.6975    0.357  0.47845     O
O       0.6975    0.393  0.27155     O
O       0.6975    0.857  0.97845     O
O       0.6975    0.893  0.77155     O
H       0.7245   0.3478   0.8219     H
H       0.7245   0.4022   0.9281     H
H       0.7245   0.8478   0.3219     H
H       0.7245   0.9022   0.4281     H
O       0.7432   0.0485  0.65751     O
O       0.7432   0.2015  0.59249     O
O       0.7432   0.5485  0.15751     O
O       0.7432   0.7015  0.09249     O
O       0.7568   0.2985  0.40751     O
O       0.7568   0.4515  0.34249     O
O       0.7568   0.7985  0.90751     O
O       0.7568   0.9515  0.84249     O
H       0.7755   0.0978   0.0719     H
H       0.7755   0.1522   0.1781     H
H       0.7755   0.5978   0.5719     H
H       0.7755   0.6522   0.6781     H
O       0.8025    0.107  0.72845     O
O       0.8025    0.143  0.52155     O
O       0.8025    0.607  0.22845     O
O       0.8025    0.643  0.02155     O
O       0.8313   0.2788  0.20336     O
O       0.8313   0.4712  0.54664     O
O       0.8313   0.7788  0.70336     O
O       0.8313   0.9712  0.04664     O
P       0.8552  0.05563  0.69196     P
P       0.8552  0.19437  0.55804     P
P       0.8552  0.55563  0.19196     P
P       0.8552  0.69437  0.05804     P
Zn       0.875    0.375  0.23917    Zn
Zn       0.875    0.375    0.375    Zn
Zn       0.875    0.375  0.51083    Zn
Zn       0.875    0.875  0.01083    Zn
Zn       0.875    0.875  0.73917    Zn
Zn       0.875    0.875    0.875    Zn
P       0.8948  0.05563  0.05804     P
P       0.8948  0.19437  0.19196     P
P       0.8948  0.55563  0.55804     P
P       0.8948  0.69437  0.69196     P
O       0.9187   0.2788  0.54664     O
O       0.9187   0.4712  0.20336     O
O       0.9187   0.7788  0.04664     O
O       0.9187   0.9712  0.70336     O
O       0.9475    0.107  0.02155     O
O       0.9475    0.143  0.22845     O
O       0.9475    0.607  0.52155     O
O       0.9475    0.643  0.72845     O
H       0.9745   0.0978   0.6781     H
H       0.9745   0.1522   0.5719     H
H       0.9745   0.5978   0.1781     H
H       0.9745   0.6522   0.0719     H
O       0.9932   0.2985  0.34249     O
O       0.9932   0.4515  0.40751     O
O       0.9932   0.7985  0.84249     O
O       0.9932   0.9515  0.90751     O
