data_I
_chemical_name_common  '/home/zhangsd/repos/MofS-CGCNN/ML/data/SSD/clean_cifs/VEHYUE_clean'
_cell_length_a 21.56090
_cell_length_b 21.56090
_cell_length_c 11.36770
_cell_angle_alpha 90.00000
_cell_angle_beta  90.00000
_cell_angle_gamma 90.00000
_space_group_name_H-M_alt      'P 1'


loop_
_space_group_symop_operation_xyz
  'x, y, z' 

loop_
_atom_site_label
_atom_site_fract_x
_atom_site_fract_y
_atom_site_fract_z
_atom_site_type_symbol
O        0.002  0.10375  0.04839     O
O       0.0071   0.7022  0.68088     O
O      0.01631  0.57568  0.63359     O
Rb     0.01654  0.43485  0.63187    Rb
O      0.01664  0.62738  0.86845     O
H       0.0181   0.7543   0.2016     H
C      0.01959  0.69049  0.90761     C
O      0.02336  0.80301  0.78651     O
Rb     0.03101  0.21399  0.50311    Rb
S      0.03429  0.08246  0.31401     S
Mo     0.03487  0.38398  0.28368    Mo
P      0.04434  0.73508  0.77797     P
Mo     0.04813  0.14114  0.14452    Mo
C      0.04835  0.77529  0.15585     C
H       0.0485   0.6641   0.0745     H
H       0.0585   0.8559    0.235     H
P      0.06112  0.29071  0.05644     P
C      0.06493  0.69133  0.01157     C
Rb     0.06515  0.01654  0.86813    Rb
O      0.06754  0.22003  0.04213     O
N      0.07019  0.83165  0.17668     N
O      0.07568  0.98369  0.13359     O
N       0.0758  0.75325   0.0607     N
O      0.07896  0.32264  0.94324     O
S      0.08246  0.46571  0.18599     S
O       0.0951  0.31483  0.16519     O
O      0.10375    0.498  0.45161     O
H       0.1051   0.6738   0.9854     H
O      0.10612  0.20249  0.28164     O
S       0.1086  0.35522  0.42229     S
H        0.113   0.2328    0.263     H
O      0.11319   0.7297  0.76328     O
C      0.11342  0.84634  0.09398     C
Mo     0.11602  0.03487  0.21632    Mo
H       0.1162   0.6365   0.5892     H
C      0.11709  0.79733  0.01987     C
O      0.12738  0.98336  0.36845     O
H       0.1365   0.8838   0.0892     H
H       0.1374   0.1845    0.301     H
Mo     0.14114  0.45187  0.35548    Mo
H       0.1431   0.7939   0.9527     H
H       0.1441   0.5585    0.735     H
S      0.14478   0.1086  0.07771     S
C      0.15366  0.61342  0.59398     C
H       0.1641   0.9515   0.5745     H
N      0.16835  0.57019  0.67668     N
H       0.1738   0.8949   0.4854     H
O      0.17736  0.07896  0.55676     O
H       0.1845   0.3626    0.199     H
O      0.18517   0.0951  0.33481     O
C      0.19049  0.98041  0.40761     C
C      0.19133  0.93507  0.51157     C
O      0.19699  0.52336  0.28651     O
O       0.2022   0.9929  0.18088     O
O      0.20249  0.39388  0.21836     O
C      0.20267  0.61709  0.51987     C
H       0.2061   0.6431   0.4527     H
P      0.20929  0.06112  0.44356     P
Rb     0.21399  0.46899  0.99689    Rb
O      0.22003  0.43246  0.45787     O
C      0.22471  0.54835  0.65585     C
O       0.2297  0.88681  0.26328     O
H       0.2328    0.387    0.237     H
P      0.23508  0.95566  0.27797     P
H       0.2457   0.5181   0.7016     H
N      0.24675   0.5758   0.5607     N
N      0.25325   0.9242   0.5607     N
H       0.2543   0.9819   0.7016     H
P      0.26492  0.54434  0.27797     P
H       0.2672    0.113    0.237     H
O       0.2703  0.61319  0.26328     O
C      0.27529  0.95165  0.65585     C
O      0.27997  0.06754  0.45787     O
Rb     0.28601  0.03101  0.99689    Rb
P      0.29071  0.43888  0.44356     P
H       0.2939   0.8569   0.4527     H
C      0.29733  0.88291  0.51987     C
O      0.29751  0.10612  0.21836     O
O       0.2978   0.5071  0.18088     O
O      0.30301  0.97664  0.28651     O
C      0.30867  0.56493  0.51157     C
C      0.30951  0.51959  0.40761     C
O      0.31483   0.4049  0.33481     O
H       0.3155   0.1374    0.199     H
O      0.32264  0.42104  0.55676     O
H       0.3262   0.6051   0.4854     H
N      0.33165  0.92981  0.67668     N
H       0.3359   0.5485   0.5745     H
C      0.34634  0.88658  0.59398     C
S      0.35522   0.3914  0.07771     S
H       0.3559   0.9415    0.735     H
H       0.3569   0.7061   0.9527     H
Mo     0.35886  0.04813  0.35548    Mo
H       0.3626   0.3155    0.301     H
H       0.3635   0.6162   0.0892     H
O      0.37262  0.51664  0.36845     O
C      0.38291  0.70267  0.01987     C
H       0.3838   0.8635   0.5892     H
Mo     0.38398  0.46513  0.21632    Mo
C      0.38658  0.65366  0.09398     C
O      0.38681   0.7703  0.76328     O
H        0.387   0.2672    0.263     H
S       0.3914  0.14478  0.42229     S
O      0.39388  0.29751  0.28164     O
H       0.3949   0.8262   0.9854     H
O      0.39625    0.002  0.45161     O
O       0.4049  0.18517  0.16519     O
S      0.41754  0.03429  0.18599     S
O      0.42104  0.17736  0.94324     O
N       0.4242  0.74675   0.0607     N
O      0.42432  0.51631  0.13359     O
N      0.42981  0.66835  0.17668     N
O      0.43246  0.27997  0.04213     O
Rb     0.43485  0.48346  0.86813    Rb
C      0.43507  0.80867  0.01157     C
P      0.43888  0.20929  0.05644     P
H       0.4415   0.6441    0.235     H
H       0.4515   0.8359   0.0745     H
C      0.45165  0.72471  0.15585     C
Mo     0.45187  0.35886  0.14452    Mo
P      0.45566  0.76492  0.77797     P
Mo     0.46513  0.11602  0.28368    Mo
S      0.46571  0.41754  0.31401     S
Rb     0.46899  0.28601  0.50311    Rb
O      0.47664  0.69699  0.78651     O
C      0.48041  0.80951  0.90761     C
H       0.4819   0.7457   0.2016     H
O      0.48336  0.87262  0.86845     O
Rb     0.48346  0.06515  0.63187    Rb
O      0.48369  0.92432  0.63359     O
O       0.4929   0.7978  0.68088     O
O        0.498  0.39625  0.04839     O
O        0.502  0.60375  0.95161     O
O       0.5071   0.2022  0.31912     O
O      0.51631  0.07568  0.36641     O
Rb     0.51654  0.93485  0.36813    Rb
O      0.51664  0.12738  0.13155     O
H       0.5181   0.2543   0.7984     H
C      0.51959  0.19049  0.09239     C
O      0.52336  0.30301  0.21349     O
Rb     0.53101  0.71399  0.49689    Rb
S      0.53429  0.58246  0.68599     S
Mo     0.53487  0.88398  0.71632    Mo
P      0.54434  0.23508  0.22203     P
Mo     0.54813  0.64114  0.85548    Mo
C      0.54835  0.27529  0.84415     C
H       0.5485   0.1641   0.9255     H
H       0.5585   0.3559    0.765     H
P      0.56112  0.79071  0.94356     P
C      0.56493  0.19133  0.98843     C
Rb     0.56515  0.51654  0.13187    Rb
O      0.56754  0.72003  0.95787     O
N      0.57019  0.33165  0.82332     N
O      0.57568  0.48369  0.86641     O
N       0.5758  0.25325   0.9393     N
O      0.57896  0.82264  0.05676     O
S      0.58246  0.96571  0.81401     S
O       0.5951  0.81483  0.83481     O
O      0.60375    0.998  0.54839     O
H       0.6051   0.1738   0.0146     H
O      0.60612  0.70249  0.71836     O
S       0.6086  0.85522  0.57771     S
H        0.613   0.7328    0.737     H
O      0.61319   0.2297  0.23672     O
C      0.61342  0.34634  0.90602     C
Mo     0.61602  0.53487  0.78368    Mo
H       0.6162   0.1365   0.4108     H
C      0.61709  0.29733  0.98013     C
O      0.62738  0.48336  0.63155     O
H       0.6365   0.3838   0.9108     H
H       0.6374   0.6845    0.699     H
Mo     0.64114  0.95187  0.64452    Mo
H       0.6431   0.2939   0.0473     H
H       0.6441   0.0585    0.265     H
S      0.64478   0.6086  0.92229     S
C      0.65366  0.11342  0.40602     C
H       0.6641   0.4515   0.4255     H
N      0.66835  0.07019  0.32332     N
H       0.6738   0.3949   0.5146     H
O      0.67736  0.57896  0.44324     O
H       0.6845   0.8626    0.801     H
O      0.68517   0.5951  0.66519     O
C      0.69049  0.48041  0.59239     C
C      0.69133  0.43507  0.48843     C
O      0.69699  0.02336  0.71349     O
O       0.7022   0.4929  0.81912     O
O      0.70249  0.89388  0.78164     O
C      0.70267  0.11709  0.48013     C
H       0.7061   0.1431   0.5473     H
P      0.70929  0.56112  0.55644     P
Rb     0.71399  0.96899  0.00311    Rb
O      0.72003  0.93246  0.54213     O
C      0.72471  0.04835  0.34415     C
O       0.7297  0.38681  0.73672     O
H       0.7328    0.887    0.763     H
P      0.73508  0.45566  0.72203     P
H       0.7457   0.0181   0.2984     H
N      0.74675   0.0758   0.4393     N
N      0.75325   0.4242   0.4393     N
H       0.7543   0.4819   0.2984     H
P      0.76492  0.04434  0.72203     P
H       0.7672    0.613    0.763     H
O       0.7703  0.11319  0.73672     O
C      0.77529  0.45165  0.34415     C
O      0.77997  0.56754  0.54213     O
Rb     0.78601  0.53101  0.00311    Rb
P      0.79071  0.93888  0.55644     P
H       0.7939   0.3569   0.5473     H
C      0.79733  0.38291  0.48013     C
O      0.79751  0.60612  0.78164     O
O       0.7978   0.0071  0.81912     O
O      0.80301  0.47664  0.71349     O
C      0.80867  0.06493  0.48843     C
C      0.80951  0.01959  0.59239     C
O      0.81483   0.9049  0.66519     O
H       0.8155   0.6374    0.801     H
O      0.82264  0.92104  0.44324     O
H       0.8262   0.1051   0.5146     H
N      0.83165  0.42981  0.32332     N
H       0.8359   0.0485   0.4255     H
C      0.84634  0.38658  0.40602     C
S      0.85522  0.89139  0.92229     S
H       0.8559   0.4415    0.265     H
H       0.8569   0.2061   0.0473     H
Mo     0.85886  0.54813  0.64452    Mo
H       0.8626   0.8155    0.699     H
H       0.8635   0.1162   0.9108     H
O      0.87262  0.01664  0.63155     O
C      0.88291  0.20267  0.98013     C
H       0.8838   0.3635   0.4108     H
Mo     0.88398  0.96513  0.78368    Mo
C      0.88658  0.15366  0.90602     C
O      0.88681   0.2703  0.23672     O
H        0.887   0.7672    0.737     H
S       0.8914  0.64478  0.57771     S
O      0.89388  0.79751  0.71836     O
H       0.8949   0.3262   0.0146     H
O      0.89625    0.502  0.54839     O
O       0.9049  0.68517  0.83481     O
S      0.91754  0.53429  0.81401     S
O      0.92104  0.67736  0.05676     O
N       0.9242  0.24675   0.9393     N
O      0.92432  0.01631  0.86641     O
N      0.92981  0.16835  0.82332     N
O      0.93246  0.77997  0.95787     O
Rb     0.93485  0.98346  0.13187    Rb
C      0.93507  0.30867  0.98843     C
P      0.93888  0.70929  0.94356     P
H       0.9415   0.1441    0.765     H
H       0.9515   0.3359   0.9255     H
C      0.95165  0.22471  0.84415     C
Mo     0.95187  0.85886  0.85548    Mo
P      0.95566  0.26492  0.22203     P
Mo     0.96513  0.61602  0.71632    Mo
S      0.96571  0.91754  0.68599     S
Rb     0.96899  0.78601  0.49689    Rb
O      0.97664  0.19699  0.21349     O
C      0.98041  0.30951  0.09239     C
H       0.9819   0.2457   0.7984     H
O      0.98336  0.37262  0.13155     O
Rb     0.98346  0.56515  0.36813    Rb
O      0.98369  0.42432  0.36641     O
O       0.9929   0.2978  0.31912     O
O        0.998  0.89625  0.95161     O
