data_I
_chemical_name_common  '/home/zhangsd/repos/MofS-CGCNN/ML/data/SSD/clean_cifs/VERPOZ_clean'
_cell_length_a 19.37170
_cell_length_b 19.37170
_cell_length_c 52.61600
_cell_angle_alpha 90.00000
_cell_angle_beta  90.00000
_cell_angle_gamma 120.00000
_space_group_name_H-M_alt      'P 1'


loop_
_space_group_symop_operation_xyz
  'x, y, z' 

loop_
_atom_site_label
_atom_site_fract_x
_atom_site_fract_y
_atom_site_fract_z
_atom_site_type_symbol
Mn         0.0      0.0  0.15498    Mn
O          0.0      0.0  0.22159     O
O          0.0      0.0  0.27841     O
Mn         0.0      0.0  0.34502    Mn
Mn         0.0      0.0  0.65498    Mn
O          0.0      0.0  0.72159     O
O          0.0      0.0  0.77841     O
Mn         0.0      0.0  0.84502    Mn
C          0.0  0.35635     0.25     C
C          0.0  0.64365     0.75     C
H      0.00107  0.41423  0.05073     H
H      0.00107  0.58683  0.55073     H
H        0.003    0.324   0.8089     H
H        0.003    0.679   0.3089     H
H       0.0033   0.2652   0.6413     H
H       0.0033   0.7381   0.1413     H
C       0.0036   0.1598  0.64298     C
C       0.0036   0.8438  0.14298     C
N       0.0045   0.0981  0.17887     N
N       0.0045   0.9064  0.67887     N
H      0.00673  0.23267  0.49087     H
H      0.00673  0.77407  0.99087     H
C      0.00713  0.38867  0.35946     C
C      0.00713  0.61847  0.85946     C
H      0.00797  0.42983  0.91623     H
H      0.00797  0.57813  0.41623     H
C      0.00917  0.47773  0.63608     C
C      0.00917  0.53143  0.13608     C
N       0.0092   0.1563  0.33018     N
N       0.0092   0.8529  0.83018     N
H      0.00933  0.34567  0.47557     H
H      0.00933  0.66367  0.97557     H
C       0.0097   0.2276  0.86783     C
C       0.0097   0.7821  0.36783     C
C      0.00983  0.39717  0.57083     C
C      0.00983  0.61267  0.07083     C
H      0.01233  0.34267  0.35777     H
H      0.01233  0.66967  0.85777     H
N       0.0128   0.1049  0.86882     N
N       0.0128   0.9079  0.36882     N
H      0.01537  0.43223  0.63473     H
H      0.01537  0.58313  0.13473     H
N       0.0159   0.1466  0.77937     N
N       0.0159   0.8693  0.27937     N
C        0.017   0.2125  0.78525     C
C        0.017   0.8045  0.28525     C
N       0.0222   0.2164  0.33893     N
N       0.0222   0.8058  0.83893     N
C      0.02302  0.33333  0.58333     C
C      0.02302  0.68968  0.08333     C
H      0.02497  0.39873  0.23693     H
H      0.02497  0.62623  0.73693     H
H       0.0257   0.1689   0.6596     H
H       0.0257   0.8568   0.1596     H
H       0.0318   0.0927   0.4004     H
H       0.0318   0.9391   0.9004     H
H      0.03267  0.40473  0.94223     H
H      0.03267  0.62793  0.44223     H
Mn     0.03495  0.10968  0.21917    Mn
Mn     0.03495  0.92527  0.71917    Mn
H      0.03623  0.50207  0.46007     H
H      0.03623  0.53417  0.96007     H
H      0.03873  0.30067  0.27557     H
H      0.03873  0.73807  0.77557     H
H      0.04043  0.30837  0.57027     H
H      0.04043  0.73207  0.07027     H
H      0.04193  0.48757  0.43037     H
H      0.04193  0.55437  0.93037     H
C        0.042   0.2479  0.89179     C
C        0.042   0.7941  0.39179     C
C      0.04263  0.46827  0.44755     C
C      0.04263  0.57437  0.94755     C
C       0.0464   0.1268  0.89192     C
C       0.0464   0.9196  0.39192     C
C       0.0482   0.3262  0.69279     C
C       0.0482    0.722  0.19279     C
C      0.05353  0.27327  0.48293     C
C      0.05353  0.78027  0.98293     C
C        0.054   0.3235  0.90416     C
C        0.054   0.7305  0.40416     C
C       0.0549   0.2645  0.70464     C
C       0.0549   0.7904  0.20464     C
C      0.05533  0.34047  0.47388     C
C      0.05533  0.71487  0.97388     C
C      0.06007  0.44693  0.14959     C
C      0.06007  0.61313  0.64959     C
C      0.06083  0.52587  0.37324     C
C      0.06083  0.53497  0.87324     C
H       0.0609   0.0927   0.9004     H
C       0.0609   0.1965    0.904     C
C       0.0609   0.8644    0.404     C
H       0.0609   0.9682   0.4004     H
C      0.06383  0.34317  0.26251     C
C      0.06383  0.72067  0.76251     C
H       0.0654   0.3583   0.5964     H
H       0.0654   0.7071   0.0964     H
H      0.06813  0.40477  0.30797     H
H      0.06813  0.66337  0.80797     H
C      0.06883  0.45707  0.37131     C
C      0.06883  0.61177  0.87131     C
C      0.06897  0.52233  0.14713     C
C      0.06897  0.54663  0.64713     C
O      0.06934  0.15472  0.26896     O
O      0.06934  0.91462  0.76896     O
H       0.0714    0.366   0.8911     H
H       0.0714   0.7054   0.3911     H
H      0.07143  0.40147  0.52537     H
H      0.07143  0.66997  0.02537     H
O      0.07381  0.21935  0.21765     O
O      0.07381  0.85446  0.71765     O
Mn     0.07473  0.10968  0.71917    Mn
Mn     0.07473  0.96505  0.21917    Mn
H      0.07983  0.33227  0.38407     H
H      0.07983  0.74757  0.88407     H
C       0.0804   0.1268  0.39192     C
C       0.0804   0.9536  0.89192     C
H       0.0809   0.3344   0.7826     H
H       0.0809   0.7465   0.2826     H
H      0.08353  0.31797  0.96807     H
H      0.08353  0.76557  0.46807     H
H       0.0837   0.2087   0.9205     H
H       0.0837    0.875   0.4205     H
O      0.08538  0.15472  0.76896     O
O      0.08538  0.93066  0.26896     O
C      0.08543  0.46077  0.55846     C
C      0.08543  0.62467  0.05846     C
H      0.08853  0.32537  0.24957     H
H      0.08853  0.76317  0.74957     H
N       0.0921   0.1049  0.36882     N
N       0.0921   0.9872  0.86882     N
C       0.0923   0.2907  0.78088     C
C       0.0923   0.8016  0.28088     C
H       0.0927   0.0318   0.0996     H
H       0.0927   0.0609   0.5996     H
N       0.0936   0.0981  0.67887     N
N       0.0936   0.9955  0.17887     N
H       0.0965   0.3413   0.9171     H
H       0.0965   0.7552   0.4171     H
N       0.0981   0.0045  0.32113     N
N       0.0981   0.0936  0.82113     N
H       0.0989   0.3487   0.1986     H
H       0.0989   0.7502   0.6986     H
H      0.09893  0.21727  0.98637     H
H      0.09893  0.88167  0.48637     H
H      0.10067  0.44073  0.15753     H
H      0.10067  0.65993  0.65753     H
N       0.1049   0.0128  0.63118     N
N       0.1049   0.0921  0.13118     N
C      0.10573  0.44877   0.5345     C
C      0.10573  0.65697   0.0345     C
H       0.1074    0.434   0.6758     H
H       0.1074   0.6734   0.1758     H
Mn     0.10968  0.03495  0.28083    Mn
Mn     0.10968  0.07473  0.78083    Mn
H       0.1123   0.2914   0.7637     H
H       0.1123   0.8209   0.2637     H
C       0.1136   0.3934  0.68374     C
C       0.1136   0.7202  0.18374     C
O      0.11398  0.52113  0.88432     O
O      0.11398  0.59286  0.38432     O
C      0.11543  0.43907  0.29884     C
C      0.11543  0.67637  0.79884     C
H      0.11607  0.54833  0.65303     H
H      0.11607  0.56773  0.15303     H
N      0.11693  0.47247   0.0056     N
N      0.11693  0.64447   0.5056     N
H      0.11833  0.21727  0.48637     H
H      0.11833  0.90107  0.98637     H
C      0.12003  0.26437  0.48047     C
C      0.12003  0.85567  0.98047     C
C      0.12083  0.47117  0.45192     C
C      0.12083  0.64967  0.95192     C
C      0.12373  0.40217  0.46203     C
C      0.12373  0.72157  0.96203     C
H      0.12463  0.54167  0.58717     H
H      0.12463  0.58297  0.08717     H
H        0.125   0.2087   0.4205     H
H        0.125   0.9163   0.9205     H
C       0.1268   0.0464  0.60808     C
C       0.1268   0.0804  0.10808     C
C      0.12743  0.41877  0.27488     C
C      0.12743  0.70867  0.77488     C
N       0.1307   0.1466  0.27937     N
N       0.1307   0.9841  0.77937     N
C       0.1317   0.2725  0.70657     C
C       0.1317   0.8592  0.20657     C
H       0.1325   0.2971   0.7934     H
H       0.1325   0.8354   0.2934     H
C      0.13493  0.37597  0.38579     C
C      0.13493  0.75897  0.88579     C
C      0.13523  0.32417  0.96942     C
C      0.13523  0.81107  0.46942     C
C       0.1356   0.1965    0.404     C
C       0.1356   0.9391    0.904     C
C      0.13683  0.53107  0.57067     C
C      0.13683  0.60577  0.07067     C
C      0.13783  0.45417  0.38142     C
C      0.13783  0.68367  0.88142     C
N      0.13913  0.45027  0.82774     N
N      0.13913  0.68887  0.32774     N
C       0.1408   0.2725  0.20657     C
C       0.1408   0.8683  0.70657     C
H       0.1432   0.1689   0.1596     H
H       0.1432   0.9743   0.6596     H
C      0.14433  0.26437  0.98047     C
C      0.14433  0.87997  0.48047     C
C       0.1444   0.3425  0.19725     C
C       0.1444   0.8019  0.69725     C
O      0.14554  0.21935  0.71765     O
O      0.14554  0.92619  0.21765     O
N       0.1466   0.0159  0.72063     N
N       0.1466   0.1307  0.22063     N
N       0.1471   0.1563  0.83018     N
N       0.1471   0.9908  0.33018     N
H      0.15423  0.37527  0.40297     H
H      0.15423  0.77897  0.90297     H
O      0.15472  0.06934  0.23104     O
O      0.15472  0.08538  0.73104     O
C       0.1562   0.1598  0.14298     C
C       0.1562   0.9964  0.64298     C
N       0.1563   0.0092  0.16982     N
N       0.1563   0.1471  0.66982     N
C       0.1598   0.0036  0.85702     C
C       0.1598   0.1562  0.35702     C
H      0.16443  0.52347  0.32627     H
H      0.16443  0.64097  0.82627     H
H       0.1646   0.2971   0.2934     H
H       0.1646   0.8675   0.7934     H
H      0.16873  0.36957  0.37327     H
H      0.16873  0.79917  0.87327     H
H       0.1689   0.0257   0.8404     H
H       0.1689   0.1432   0.3404     H
C      0.17353  0.51047  0.30965     C
C      0.17353  0.66307  0.80965     C
N      0.17703  0.51957  0.99685     N
N      0.17703  0.65747  0.49685     N
C      0.17713  0.50687  0.52369     C
C      0.17713  0.67027  0.02369     C
O      0.17861  0.58129  0.93563     O
O      0.17861  0.59733  0.43563     O
H       0.1791   0.2914   0.2637     H
H       0.1791   0.8877   0.7637     H
N      0.18623  0.51037  0.83649     N
N      0.18623  0.67587  0.33649     N
N      0.18673  0.53597  0.44604     N
N      0.18673  0.65077  0.94604     N
O      0.18779  0.44732  0.94902     O
O      0.18779  0.74048  0.44902     O
C      0.18893  0.32417  0.46942     C
C      0.18893  0.86477  0.96942     C
C        0.189   0.4023   0.6862     C
C        0.189   0.7867   0.1862     C
H      0.19013  0.49777  0.50707     H
H      0.19013  0.69237  0.00707     H
C      0.19253  0.39417   0.4601     C
C      0.19253  0.79837   0.9601     C
N       0.1942   0.2164  0.83893     N
N       0.1942   0.9778  0.33893     N
C       0.1955   0.2125  0.28525     C
C       0.1955    0.983  0.78525     C
C       0.1965   0.0609    0.596     C
C       0.1965   0.1356    0.096     C
C      0.19773  0.47017  0.26267     C
C      0.19773  0.72757  0.76267     C
C       0.1981   0.3425  0.69725     C
C       0.1981   0.8556  0.19725     C
C       0.1984   0.2907  0.28088     C
C       0.1984   0.9077  0.78088     C
H      0.20083  0.36957  0.87327     H
H      0.20083  0.83127  0.37327     H
C      0.20163  0.39417   0.9601     C
C      0.20163  0.80747   0.4601     C
N      0.20263  0.52007   0.3873     N
N      0.20263  0.68257   0.8873     N
C       0.2059   0.2479  0.39179     C
C       0.2059    0.958  0.89179     C
C      0.20653  0.58627  0.55859     C
C      0.20653  0.62027  0.05859     C
H      0.20833  0.45797  0.24617     H
H      0.20833  0.75037  0.74617     H
H       0.2087   0.0837   0.5795     H
H       0.2087    0.125   0.0795     H
C       0.2096   0.2645  0.20464     C
C       0.2096   0.9451  0.70464     C
C       0.2125    0.017  0.71475     C
C       0.2125   0.1955  0.21475     C
C       0.2133   0.4023   0.1862     C
C       0.2133    0.811   0.6862     C
H        0.215   0.4494   0.1803     H
H        0.215   0.7656   0.6803     H
N       0.2164   0.0222  0.16107     N
N       0.2164   0.1942  0.66107     N
H      0.21727  0.09893  0.51363     H
H      0.21727  0.11833  0.01363     H
C       0.2179   0.2276  0.36783     C
C       0.2179   0.9903  0.86783     C
O      0.21935  0.07381  0.28235     O
O      0.21935  0.14554  0.78235     O
C      0.21973  0.27327  0.98293     C
C      0.21973  0.94647  0.48293     C
H      0.22103  0.37527  0.90297     H
H      0.22103  0.84577  0.40297     H
Mn     0.22365  0.59194  0.88584    Mn
Mn     0.22365  0.63172  0.38584    Mn
H      0.22593  0.23267  0.99087     H
H      0.22593  0.99327  0.49087     H
C       0.2276   0.0097  0.63217     C
C       0.2276   0.2179  0.13217     C
N      0.22843  0.57457  0.53549     N
N      0.22843  0.65387  0.03549     N
H      0.23267  0.00673  0.00913     H
H      0.23267  0.22593  0.50913     H
H       0.2344   0.4494   0.6803     H
H       0.2344    0.785   0.1803     H
H      0.23443  0.31797  0.46807     H
H      0.23443  0.91647  0.96807     H
N      0.23523  0.57307  0.84554     N
N      0.23523  0.66217  0.34554     N
H      0.23683  0.32537  0.74957     H
H      0.23683  0.91147  0.24957     H
N      0.23973  0.56857   0.9878     N
N      0.23973  0.67117   0.4878     N
H      0.24063  0.60577  0.06707     H
H      0.24063  0.63487  0.56707     H
C      0.24103  0.37597  0.88579     C
C      0.24103  0.86507  0.38579     C
N      0.24123  0.56177  0.29785     N
N      0.24123  0.67947  0.79785     N
H       0.2448   0.3413   0.4171     H
H       0.2448   0.9035   0.9171     H
C       0.2479    0.042  0.60821     C
C       0.2479   0.2059  0.10821     C
O      0.24795  0.51195  0.89771     O
O      0.24795  0.73601  0.39771     O
H      0.24963  0.45797  0.74617     H
H      0.24963  0.79167  0.24617     H
H       0.2498   0.3487   0.6986     H
H       0.2498   0.9011   0.1986     H
H      0.25243  0.33227  0.88407     H
H      0.25243  0.92017  0.38407     H
C      0.25293  0.53987  0.27475     C
C      0.25293  0.71307  0.77475     C
H       0.2535   0.3344   0.2826     H
H       0.2535   0.9191   0.7826     H
Mn      0.2586  0.55699  0.94749    Mn
Mn      0.2586  0.70162  0.44749    Mn
O      0.25952  0.44732  0.44902     O
O      0.25952  0.81221  0.94902     O
H       0.2619   0.2652   0.1413     H
H       0.2619   0.9967   0.6413     H
H      0.26193  0.30067  0.77557     H
H      0.26193  0.96127  0.27557     H
O      0.26399  0.51195  0.39771     O
O      0.26399  0.75205  0.89771     O
C      0.26437  0.12003  0.01953     C
C      0.26437  0.14433  0.51953     C
C       0.2645   0.0549  0.79536     C
C       0.2645   0.2096  0.29536     C
H       0.2652   0.0033   0.8587     H
H       0.2652   0.2619   0.3587     H
H      0.26793  0.30837  0.07027     H
H      0.26793  0.95957  0.57027     H
C       0.2695   0.3235  0.40416     C
C       0.2695    0.946  0.90416     C
C      0.27243  0.47017  0.76267     C
H      0.27243  0.57397  0.76627     H
H      0.27243  0.69847  0.26627     H
C      0.27243  0.80227  0.26267     C
C       0.2725   0.1317  0.79343     C
C       0.2725   0.1408  0.29343     C
C      0.27327  0.05353  0.01707     C
C      0.27327  0.21973  0.51707     C
C        0.278   0.3262  0.19279     C
C        0.278   0.9518  0.69279     C
C      0.27843  0.40217  0.96203     C
C      0.27843  0.87627  0.46203     C
C      0.27933  0.34317  0.76251     C
C      0.27933  0.93617  0.26251     C
C       0.2798   0.3934  0.18374     C
C       0.2798   0.8864  0.68374     C
C      0.28513  0.34047  0.97388     C
C      0.28513  0.94467  0.47388     C
C      0.28693  0.53987  0.77475     C
C      0.28693  0.74707  0.27475     C
C       0.2907   0.0923  0.71912     C
C       0.2907   0.1984  0.21912     C
C      0.29133  0.41877  0.77488     C
C      0.29133  0.87257  0.27488     C
H       0.2914   0.1123   0.7363     H
H       0.2914   0.1791   0.2363     H
H       0.2929   0.3583   0.0964     H
H       0.2929   0.9346   0.5964     H
H       0.2946    0.366   0.3911     H
H       0.2946   0.9286   0.8911     H
H       0.2971   0.1325   0.7066     H
H       0.2971   0.1646   0.2066     H
Mn     0.29838  0.55699  0.44749    Mn
Mn     0.29838   0.7414  0.94749    Mn
H      0.30067  0.03873  0.22443     H
H      0.30067  0.26193  0.72443     H
H      0.30153  0.57397  0.26627     H
H      0.30153  0.72757  0.76627     H
H      0.30763  0.49777  0.00707     H
H      0.30763  0.80987  0.50707     H
H      0.30837  0.04043  0.92973     H
H      0.30837  0.26793  0.42973     H
C      0.31032  0.33333  0.08333     C
C      0.31032  0.97698  0.58333     C
N      0.31113  0.45027  0.32774     N
N      0.31113  0.86087  0.82774     N
C      0.31633  0.45417  0.88142     C
C      0.31633  0.86217  0.38142     C
N      0.31743  0.52007   0.8873     N
N      0.31743  0.79737   0.3873     N
H      0.31797  0.08353  0.53193     H
H      0.31797  0.23443  0.03193     H
N      0.32053  0.56177  0.79785     N
N      0.32053  0.75877  0.29785     N
H        0.321    0.324   0.3089     H
H        0.321    0.997   0.8089     H
C       0.3235    0.054  0.59584     C
C       0.3235   0.2695  0.09584     C
C      0.32363  0.43907  0.79884     C
C      0.32363  0.88457  0.29884     C
H        0.324    0.003   0.6911     H
H        0.324    0.321   0.1911     H
N      0.32413  0.51037  0.33649     N
N      0.32413  0.81377  0.83649     N
C      0.32417  0.13523  0.53058     C
C      0.32417  0.18893  0.03058     C
H      0.32537  0.08853  0.25043     H
H      0.32537  0.23683  0.75043     H
C       0.3262   0.0482  0.80721     C
C       0.3262    0.278  0.30721     C
H       0.3266    0.434   0.1758     H
H       0.3266   0.8926   0.6758     H
N      0.32883  0.56857   0.4878     N
N      0.32883  0.76027   0.9878     N
C      0.32973  0.50687  0.02369     C
C      0.32973  0.82287  0.52369     C
H      0.33003  0.40147  0.02537     H
H      0.33003  0.92857  0.52537     H
H      0.33033  0.34267  0.85777     H
H      0.33033  0.98767  0.35777     H
H      0.33227  0.07983  0.11593     H
H      0.33227  0.25243  0.61593     H
C      0.33333  0.02302  0.91667     C
C      0.33333  0.31032  0.41667     C
Mn     0.33333  0.66667  0.01169    Mn
Mn     0.33333  0.66667  0.32165    Mn
O      0.33333  0.66667  0.38826     O
O      0.33333  0.66667  0.44508     O
Mn     0.33333  0.66667  0.51169    Mn
Mn     0.33333  0.66667  0.82165    Mn
O      0.33333  0.66667  0.88826     O
O      0.33333  0.66667  0.94508     O
H       0.3344   0.0809   0.7174     H
H       0.3344   0.2535   0.2174     H
H      0.33633  0.34567  0.97557     H
H      0.33633  0.99067  0.47557     H
H      0.33663  0.40477  0.80797     H
H      0.33663  0.93187  0.30797     H
C      0.33693  0.51047  0.80965     C
C      0.33693  0.82647  0.30965     C
N      0.33783  0.57307  0.34554     N
N      0.33783  0.76477  0.84554     N
H      0.34007  0.44073  0.65753     H
H      0.34007  0.89933  0.15753     H
C      0.34047  0.05533  0.02612     C
C      0.34047  0.28513  0.52612     C
H       0.3413   0.0965   0.5829     H
H       0.3413   0.2448   0.0829     H
C       0.3425   0.1444  0.30275     C
C       0.3425   0.1981  0.80275     C
N      0.34253  0.51957  0.49685     N
N      0.34253  0.82297  0.99685     N
H      0.34267  0.01233  0.14223     H
H      0.34267  0.33033  0.64223     H
C      0.34303  0.44877   0.0345     C
C      0.34303  0.89427   0.5345     C
C      0.34317  0.06383  0.23749     C
C      0.34317  0.27933  0.73749     C
H      0.34567  0.00933  0.02443     H
H      0.34567  0.33633  0.52443     H
N      0.34613  0.57457  0.03549     N
N      0.34613  0.77157  0.53549     N
H       0.3487   0.0989   0.3014     H
H       0.3487   0.2498   0.8014     H
N      0.34923  0.53597  0.94604     N
N      0.34923  0.81327  0.44604     N
C      0.35033  0.47117  0.95192     C
C      0.35033  0.87917  0.45192     C
N      0.35553  0.47247   0.5056     N
N      0.35553  0.88307   0.0056     N
C      0.35635      0.0     0.25     C
C      0.35635  0.35635     0.75     C
H       0.3583   0.0654   0.9036     H
H       0.3583   0.2929   0.4036     H
H      0.35903  0.52347  0.82627     H
H      0.35903  0.83557  0.32627     H
H      0.36513  0.60577  0.56707     H
H      0.36513  0.75937  0.06707     H
H        0.366   0.0714   0.6089     H
H        0.366   0.2946   0.1089     H
Mn     0.36828  0.59194  0.38584    Mn
Mn     0.36828  0.77635  0.88584    Mn
H      0.36957  0.16873  0.12673     H
H      0.36957  0.20083  0.62673     H
H      0.37207  0.40473  0.44223     H
H      0.37207  0.96733  0.94223     H
H      0.37377  0.39873  0.73693     H
H      0.37377  0.97503  0.23693     H
H      0.37527  0.15423  0.09703     H
H      0.37527  0.22103  0.59703     H
C      0.37533  0.46077  0.05846     C
C      0.37533  0.91457  0.55846     C
C      0.37597  0.13493  0.11421     C
C      0.37597  0.24103  0.61421     C
C      0.37973  0.58627  0.05859     C
C      0.37973  0.79347  0.55859     C
C      0.38153  0.38867  0.85946     C
C      0.38153  0.99287  0.35946     C
C      0.38687  0.44693  0.64959     C
C      0.38687  0.93993  0.14959     C
C      0.38733  0.39717  0.07083     C
C      0.38733  0.99017  0.57083     C
C      0.38823  0.45707  0.87131     C
C      0.38823  0.93117  0.37131     C
C      0.38867  0.00713  0.14054     C
C      0.38867  0.38153  0.64054     C
C       0.3934   0.1136  0.81626     C
C       0.3934   0.2798  0.31626     C
C      0.39417  0.19253   0.0399     C
C      0.39417  0.20163   0.5399     C
C      0.39423  0.53107  0.07067     C
H      0.39423  0.63487  0.06707     H
H      0.39423  0.75937  0.56707     H
C      0.39423  0.86317  0.57067     C
C      0.39717  0.00983  0.92917     C
C      0.39717  0.38733  0.42917     C
H      0.39873  0.02497  0.26307     H
H      0.39873  0.37377  0.76307     H
H      0.40147  0.07143  0.97463     H
H      0.40147  0.33003  0.47463     H
C      0.40217  0.12373  0.03797     C
C      0.40217  0.27843  0.53797     C
C       0.4023    0.189   0.8138     C
C       0.4023   0.2133   0.3138     C
O      0.40267  0.58129  0.43563     O
O      0.40267  0.82139  0.93563     O
H      0.40473  0.03267  0.55777     H
H      0.40473  0.37207  0.05777     H
H      0.40477  0.06813  0.19203     H
H      0.40477  0.33663  0.69203     H
O      0.40714  0.52113  0.38432     O
O      0.40714  0.88602  0.88432     O
Mn     0.40806  0.63172  0.88584    Mn
Mn     0.40806  0.77635  0.38584    Mn
H      0.41317  0.41423  0.55073     H
H      0.41317  0.99893  0.05073     H
C      0.41373  0.62027  0.55859     C
C      0.41373  0.79347  0.05859     C
H      0.41423  0.00107  0.44927     H
H      0.41423  0.41317  0.94927     H
H      0.41687  0.43223  0.13473     H
H      0.41687  0.98463  0.63473     H
H      0.41703  0.54167  0.08717     H
H      0.41703  0.87537  0.58717     H
O      0.41871  0.59733  0.93563     O
O      0.41871  0.82139  0.43563     O
C      0.41877  0.12743  0.22512     C
C      0.41877  0.29133  0.72512     C
H      0.42187  0.42983  0.41623     H
H      0.42187  0.99203  0.91623     H
N      0.42543  0.65387  0.53549     N
N      0.42543  0.77157  0.03549     N
C      0.42563  0.46827  0.94755     C
C      0.42563  0.95737  0.44755     C
H      0.42603  0.69847  0.76627     H
H      0.42603  0.72757  0.26627     H
N      0.42693  0.66217  0.84554     N
N      0.42693  0.76477  0.34554     N
H      0.42983  0.00797  0.58377     H
H      0.42983  0.42187  0.08377     H
N      0.43143  0.67117   0.9878     N
N      0.43143  0.76027   0.4878     N
H      0.43223  0.01537  0.86527     H
H      0.43223  0.41687  0.36527     H
H      0.43227  0.54833  0.15303     H
H      0.43227  0.88393  0.65303     H
H        0.434   0.1074   0.8242     H
H        0.434   0.3266   0.3242     H
N      0.43823  0.67947  0.29785     N
N      0.43823  0.75877  0.79785     N
C      0.43907  0.11543  0.20116     C
C      0.43907  0.32363  0.70116     C
H      0.44073  0.10067  0.34247     H
H      0.44073  0.34007  0.84247     H
Mn     0.44301  0.70162  0.94749    Mn
Mn     0.44301   0.7414  0.44749    Mn
H      0.44563  0.48757  0.93037     H
H      0.44563  0.95807  0.43037     H
C      0.44693  0.06007  0.35041     C
C      0.44693  0.38687  0.85041     C
O      0.44732  0.18779  0.55098     O
O      0.44732  0.25952  0.05098     O
C      0.44877  0.10573   0.9655     C
C      0.44877  0.34303   0.4655     C
H       0.4494    0.215   0.3197     H
H       0.4494   0.2344   0.8197     H
N      0.45027  0.13913  0.67226     N
N      0.45027  0.31113  0.17226     N
H      0.45167  0.56773  0.65303     H
H      0.45167  0.88393  0.15303     H
C      0.45337  0.52233  0.64713     C
C      0.45337  0.93103  0.14713     C
C      0.45417  0.13783  0.11858     C
C      0.45417  0.31633  0.61858     C
C      0.45707  0.06883  0.12869     C
C      0.45707  0.38823  0.62869     C
H      0.45797  0.20833  0.25383     H
H      0.45797  0.24963  0.75383     H
H      0.45833  0.58297  0.58717     H
H      0.45833  0.87537  0.08717     H
C      0.46013  0.71307  0.27475     C
C      0.46013  0.74707  0.77475     C
C      0.46077  0.08543  0.94154     C
C      0.46077  0.37533  0.44154     C
N      0.46403  0.65077  0.44604     N
N      0.46403  0.81327  0.94604     N
C      0.46503  0.52587  0.87324     C
C      0.46503  0.93917  0.37324     C
H      0.46583  0.50207  0.96007     H
H      0.46583  0.96377  0.46007     H
C      0.46827  0.04263  0.05245     C
C      0.46827  0.42563  0.55245     C
C      0.46857  0.47773  0.13608     C
C      0.46857  0.99083  0.63608     C
C      0.46893  0.60577  0.57067     C
C      0.46893  0.86317  0.07067     C
C      0.47017  0.19773  0.23733     C
C      0.47017  0.27243  0.73733     C
C      0.47117  0.12083  0.04808     C
C      0.47117  0.35033  0.54808     C
N      0.47247  0.11693   0.4944     N
N      0.47247  0.35553   0.9944     N
C      0.47413  0.53497  0.37324     C
C      0.47413  0.93917  0.87324     C
H      0.47653  0.64097  0.32627     H
H      0.47653  0.83557  0.82627     H
C      0.47767  0.54663  0.14713     C
C      0.47767  0.93103  0.64713     C
C      0.47773  0.00917  0.86392     C
C      0.47773  0.46857  0.36392     C
O      0.47887  0.59286  0.88432     O
O      0.47887  0.88602  0.38432     O
N      0.47993  0.68257   0.3873     N
N      0.47993  0.79737   0.8873     N
N      0.48043  0.65747  0.99685     N
N      0.48043  0.82297  0.49685     N
H      0.48757  0.04193  0.06963     H
H      0.48757  0.44563  0.56963     H
O      0.48805  0.73601  0.89771     O
O      0.48805  0.75205  0.39771     O
C      0.48953  0.66307  0.30965     C
C      0.48953  0.82647  0.80965     C
N      0.48963  0.67587  0.83649     N
N      0.48963  0.81377  0.33649     N
C      0.49313  0.67027  0.52369     C
C      0.49313  0.82287  0.02369     C
H      0.49777  0.19013  0.99293     H
H      0.49777  0.30763  0.49293     H
H      0.49793  0.53417  0.46007     H
H      0.49793  0.96377  0.96007     H
H      0.50207  0.03623  0.03993     H
H      0.50207  0.46583  0.53993     H
H      0.50223  0.69237  0.50707     H
H      0.50223  0.80987  0.00707     H
C      0.50687  0.17713  0.97631     C
C      0.50687  0.32973  0.47631     C
N      0.51037  0.18623  0.66351     N
N      0.51037  0.32413  0.16351     N
C      0.51047  0.17353  0.19035     C
C      0.51047  0.33693  0.69035     C
O      0.51195  0.24795  0.60229     O
O      0.51195  0.26399  0.10229     O
H      0.51243  0.55437  0.43037     H
H      0.51243  0.95807  0.93037     H
N      0.51957  0.17703  0.50315     N
N      0.51957  0.34253  0.00315     N
N      0.52007  0.20263   0.1127     N
N      0.52007  0.31743   0.6127     N
O      0.52113  0.11398  0.61568     O
O      0.52113  0.40714  0.11568     O
C      0.52227  0.53143  0.63608     C
C      0.52227  0.99083  0.13608     C
C      0.52233  0.06897  0.35287     C
C      0.52233  0.45337  0.85287     C
H      0.52347  0.16443  0.17373     H
H      0.52347  0.35903  0.67373     H
C      0.52587  0.06083  0.12676     C
C      0.52587  0.46503  0.62676     C
N      0.52753  0.64447   0.0056     N
N      0.52753  0.88307   0.5056     N
C      0.52883  0.64967  0.45192     C
C      0.52883  0.87917  0.95192     C
C      0.52983  0.72757  0.26267     C
C      0.52983  0.80227  0.76267     C
C      0.53107  0.13683  0.92933     C
C      0.53107  0.39423  0.42933     C
C      0.53143  0.00917  0.36392     C
C      0.53143  0.52227  0.86392     C
C      0.53173  0.57437  0.44755     C
C      0.53173  0.95737  0.94755     C
H      0.53417  0.03623  0.53993     H
H      0.53417  0.49793  0.03993     H
C      0.53497  0.06083  0.62676     C
C      0.53497  0.47413  0.12676     C
N      0.53597  0.18673  0.05396     N
N      0.53597  0.34923  0.55396     N
C      0.53923  0.62467  0.55846     C
C      0.53923  0.91457  0.05846     C
C      0.53987  0.25293  0.22525     C
C      0.53987  0.28693  0.72525     C
H      0.54167  0.12463  0.91283     H
H      0.54167  0.41703  0.41283     H
H      0.54203  0.75037  0.24617     H
H      0.54203  0.79167  0.74617     H
C      0.54293  0.61177  0.37131     C
C      0.54293  0.93117  0.87131     C
C      0.54583  0.68367  0.38142     C
C      0.54583  0.86217  0.88142     C
C      0.54663  0.06897  0.85287     C
C      0.54663  0.47767  0.35287     C
H      0.54833  0.11607  0.84697     H
H      0.54833  0.43227  0.34697     H
N      0.54973  0.68887  0.82774     N
N      0.54973  0.86087  0.32774     N
H       0.5506   0.7656   0.1803     H
H       0.5506    0.785   0.6803     H
C      0.55123  0.65697   0.5345     C
C      0.55123  0.89427   0.0345     C
O      0.55268  0.74048  0.94902     O
O      0.55268  0.81221  0.44902     O
C      0.55307  0.61313  0.14959     C
C      0.55307  0.93993  0.64959     C
H      0.55437  0.04193  0.56963     H
H      0.55437  0.51243  0.06963     H
Mn     0.55699   0.2586  0.55251    Mn
Mn     0.55699  0.29838  0.05251    Mn
H      0.55927  0.65993  0.15753     H
H      0.55927  0.89933  0.65753     H
C      0.56093  0.67637  0.29884     C
C      0.56093  0.88457  0.79884     C
N      0.56177  0.24123  0.20215     N
N      0.56177  0.32053  0.70215     N
H        0.566   0.6734   0.6758     H
H        0.566   0.8926   0.1758     H
H      0.56773  0.11607  0.34697     H
H      0.56773  0.45167  0.84697     H
H      0.56777  0.58313  0.63473     H
H      0.56777  0.98463  0.13473     H
N      0.56857  0.23973   0.5122     N
N      0.56857  0.32883   0.0122     N
H      0.57017  0.57813  0.91623     H
H      0.57017  0.99203  0.41623     H
N      0.57307  0.23523  0.65446     N
N      0.57307  0.33783  0.15446     N
H      0.57397  0.27243  0.73373     H
H      0.57397  0.30153  0.23373     H
C      0.57437  0.04263  0.55245     C
C      0.57437  0.53173  0.05245     C
N      0.57457  0.22843  0.96451     N
N      0.57457  0.34613  0.46451     N
H      0.57813  0.00797  0.08377     H
H      0.57813  0.57017  0.58377     H
C      0.58123  0.70867  0.27488     C
C      0.58123  0.87257  0.77488     C
O      0.58129  0.17861  0.56437     O
O      0.58129  0.40267  0.06437     O
H      0.58297  0.12463  0.41283     H
H      0.58297  0.45833  0.91283     H
H      0.58313  0.01537  0.36527     H
H      0.58313  0.56777  0.86527     H
H      0.58577  0.58683  0.05073     H
H      0.58577  0.99893  0.55073     H
C      0.58627  0.20653  0.94141     C
C      0.58627  0.37973  0.44141     C
H      0.58683  0.00107  0.94927     H
H      0.58683  0.58577  0.44927     H
Mn     0.59194  0.22365  0.61416    Mn
Mn     0.59194  0.36828  0.11416    Mn
O      0.59286  0.11398  0.11568     O
O      0.59286  0.47887  0.61568     O
H      0.59523  0.66337  0.30797     H
H      0.59523  0.93187  0.80797     H
H      0.59527  0.62793  0.94223     H
H      0.59527  0.96733  0.44223     H
O      0.59733  0.17861  0.06437     O
O      0.59733  0.41871  0.56437     O
C       0.5977   0.7867   0.6862     C
C       0.5977    0.811   0.1862     C
C      0.59783  0.72157  0.46203     C
C      0.59783  0.87627  0.96203     C
H      0.59853  0.66997  0.52537     H
H      0.59853  0.92857  0.02537     H
H      0.60127  0.62623  0.23693     H
H      0.60127  0.97503  0.73693     H
C      0.60283  0.61267  0.57083     C
C      0.60283  0.99017  0.07083     C
C      0.60577  0.13683  0.42933     C
H      0.60577  0.24063  0.43293     H
H      0.60577  0.36513  0.93293     H
C      0.60577  0.46893  0.92933     C
C      0.60583  0.79837   0.4601     C
C      0.60583  0.80747   0.9601     C
C       0.6066   0.7202  0.68374     C
C       0.6066   0.8864  0.18374     C
C      0.61133  0.61847  0.35946     C
C      0.61133  0.99287  0.85946     C
C      0.61177  0.06883  0.62869     C
C      0.61177  0.54293  0.12869     C
C      0.61267  0.00983  0.42917     C
C      0.61267  0.60283  0.92917     C
C      0.61313  0.06007  0.85041     C
C      0.61313  0.55307  0.35041     C
C      0.61847  0.00713  0.64054     C
C      0.61847  0.61133  0.14054     C
C      0.62027  0.20653  0.44141     C
C      0.62027  0.41373  0.94141     C
C      0.62403  0.75897  0.38579     C
C      0.62403  0.86507  0.88579     C
C      0.62467  0.08543  0.44154     C
C      0.62467  0.53923  0.94154     C
H      0.62473  0.77897  0.40297     H
H      0.62473  0.84577  0.90297     H
H      0.62623  0.02497  0.76307     H
H      0.62623  0.60127  0.26307     H
H      0.62793  0.03267  0.05777     H
H      0.62793  0.59527  0.55777     H
H      0.63043  0.79917  0.37327     H
H      0.63043  0.83127  0.87327     H
Mn     0.63172  0.22365  0.11416    Mn
Mn     0.63172  0.40806  0.61416    Mn
H        0.634   0.7054   0.8911     H
H        0.634   0.9286   0.3911     H
H      0.63487  0.24063  0.93293     H
H      0.63487  0.39423  0.43293     H
H      0.64097  0.16443  0.67373     H
H      0.64097  0.47653  0.17373     H
H       0.6417   0.7071   0.5964     H
H       0.6417   0.9346   0.0964     H
C      0.64365      0.0     0.75     C
C      0.64365  0.64365     0.25     C
N      0.64447  0.11693   0.9944     N
N      0.64447  0.52753   0.4944     N
C      0.64967  0.12083  0.54808     C
C      0.64967  0.52883  0.04808     C
N      0.65077  0.18673  0.55396     N
N      0.65077  0.46403  0.05396     N
H       0.6513   0.7502   0.1986     H
H       0.6513   0.9011   0.6986     H
N      0.65387  0.22843  0.46451     N
N      0.65387  0.42543  0.96451     N
H      0.65433  0.66367  0.47557     H
H      0.65433  0.99067  0.97557     H
C      0.65683  0.72067  0.26251     C
C      0.65683  0.93617  0.76251     C
C      0.65697  0.10573   0.4655     C
C      0.65697  0.55123   0.9655     C
H      0.65733  0.66967  0.35777     H
H      0.65733  0.98767  0.85777     H
N      0.65747  0.17703  0.00315     N
N      0.65747  0.48043  0.50315     N
C       0.6575   0.8019  0.19725     C
C       0.6575   0.8556  0.69725     C
H       0.6587   0.7552   0.9171     H
H       0.6587   0.9035   0.4171     H
C      0.65953  0.71487  0.47388     C
C      0.65953  0.94467  0.97388     C
H      0.65993  0.10067  0.84247     H
H      0.65993  0.55927  0.34247     H
N      0.66217  0.23523  0.15446     N
N      0.66217  0.42693  0.65446     N
C      0.66307  0.17353  0.69035     C
C      0.66307  0.48953  0.19035     C
H      0.66337  0.06813  0.69203     H
H      0.66337  0.59523  0.19203     H
H      0.66367  0.00933  0.52443     H
H      0.66367  0.65433  0.02443     H
H       0.6656   0.7465   0.7826     H
H       0.6656   0.9191   0.2826     H
O      0.66667  0.33333  0.05492     O
O      0.66667  0.33333  0.11174     O
Mn     0.66667  0.33333  0.17835    Mn
Mn     0.66667  0.33333  0.48831    Mn
O      0.66667  0.33333  0.55492     O
O      0.66667  0.33333  0.61174     O
Mn     0.66667  0.33333  0.67835    Mn
Mn     0.66667  0.33333  0.98831    Mn
C      0.66667  0.68968  0.58333     C
C      0.66667  0.97698  0.08333     C
H      0.66773  0.74757  0.38407     H
H      0.66773  0.92017  0.88407     H
H      0.66967  0.01233  0.64223     H
H      0.66967  0.65733  0.14223     H
H      0.66997  0.07143  0.47463     H
H      0.66997  0.59853  0.97463     H
C      0.67027  0.17713  0.47631     C
C      0.67027  0.49313  0.97631     C
N      0.67117  0.23973   0.0122     N
N      0.67117  0.43143   0.5122     N
H       0.6734   0.1074   0.3242     H
H       0.6734    0.566   0.8242     H
C       0.6738    0.722  0.69279     C
C       0.6738   0.9518  0.19279     C
H      0.67463  0.76317  0.24957     H
H      0.67463  0.91147  0.74957     H
C      0.67583  0.81107  0.96942     C
C      0.67583  0.86477  0.46942     C
N      0.67587  0.18623  0.16351     N
N      0.67587  0.48963  0.66351     N
H        0.676    0.679   0.8089     H
H        0.676    0.997   0.3089     H
C      0.67637  0.11543  0.70116     C
C      0.67637  0.56093  0.20116     C
C       0.6765   0.7305  0.90416     C
C       0.6765    0.946  0.40416     C
H        0.679    0.003   0.1911     H
H        0.679    0.676   0.6911     H
N      0.67947  0.24123  0.70215     N
N      0.67947  0.43823  0.20215     N
H      0.68203  0.76557  0.96807     H
H      0.68203  0.91647  0.46807     H
N      0.68257  0.20263   0.6127     N
N      0.68257  0.47993   0.1127     N
C      0.68367  0.13783  0.61858     C
C      0.68367  0.54583  0.11858     C
N      0.68887  0.13913  0.17226     N
N      0.68887  0.54973  0.67226     N
C      0.68968  0.02302  0.41667     C
C      0.68968  0.66667  0.91667     C
H      0.69163  0.73207  0.57027     H
H      0.69163  0.95957  0.07027     H
H      0.69237  0.19013  0.49293     H
H      0.69237  0.50223  0.99293     H
H      0.69847  0.27243  0.23373     H
H      0.69847  0.42603  0.73373     H
H      0.69933  0.73807  0.27557     H
H      0.69933  0.96127  0.77557     H
Mn     0.70162   0.2586  0.05251    Mn
Mn     0.70162  0.44301  0.55251    Mn
H       0.7029   0.8354   0.7934     H
H       0.7029   0.8675   0.2934     H
H       0.7054   0.0714   0.1089     H
H       0.7054    0.634   0.6089     H
H       0.7071   0.0654   0.4036     H
H       0.7071   0.6417   0.9036     H
H       0.7086   0.8209   0.7637     H
H       0.7086   0.8877   0.2637     H
C      0.70867  0.12743  0.72512     C
C      0.70867  0.58123  0.22512     C
C       0.7093   0.8016  0.78088     C
C       0.7093   0.9077  0.28088     C
C      0.71307  0.25293  0.72525     C
C      0.71307  0.46013  0.22525     C
C      0.71487  0.05533  0.52612     C
C      0.71487  0.65953  0.02612     C
C       0.7202   0.1136  0.31626     C
C       0.7202   0.6066  0.81626     C
C      0.72067  0.06383  0.73749     C
C      0.72067  0.65683  0.23749     C
C      0.72157  0.12373  0.53797     C
C      0.72157  0.59783  0.03797     C
C        0.722   0.0482  0.30721     C
C        0.722   0.6738  0.80721     C
C      0.72673  0.78027  0.48293     C
C      0.72673  0.94647  0.98293     C
C       0.7275   0.8592  0.70657     C
C       0.7275   0.8683  0.20657     C
C      0.72757  0.19773  0.73733     C
H      0.72757  0.30153  0.73373     H
H      0.72757  0.42603  0.23373     H
C      0.72757  0.52983  0.23733     C
C       0.7305    0.054  0.09584     C
C       0.7305   0.6765  0.59584     C
H      0.73207  0.04043  0.42973     H
H      0.73207  0.69163  0.92973     H
H       0.7348   0.7381   0.6413     H
H       0.7348   0.9967   0.1413     H
C       0.7355   0.7904  0.70464     C
C       0.7355   0.9451  0.20464     C
C      0.73563  0.85567  0.48047     C
C      0.73563  0.87997  0.98047     C
O      0.73601  0.24795  0.10229     O
O      0.73601  0.48805  0.60229     O
H      0.73807  0.03873  0.72443     H
H      0.73807  0.69933  0.22443     H
H       0.7381   0.0033   0.3587     H
H       0.7381   0.7348   0.8587     H
O      0.74048  0.18779  0.05098     O
O      0.74048  0.55268  0.55098     O
Mn      0.7414  0.29838  0.55251    Mn
Mn      0.7414  0.44301  0.05251    Mn
H       0.7465   0.0809   0.2174     H
H       0.7465   0.6656   0.7174     H
C      0.74707  0.28693  0.22525     C
C      0.74707  0.46013  0.72525     C
H      0.74757  0.07983  0.61593     H
H      0.74757  0.66773  0.11593     H
H       0.7502   0.0989   0.8014     H
H       0.7502   0.6513   0.3014     H
H      0.75037  0.20833  0.75383     H
H      0.75037  0.54203  0.25383     H
O      0.75205  0.26399  0.60229     O
O      0.75205  0.48805  0.10229     O
C       0.7521   0.7941  0.89179     C
C       0.7521    0.958  0.39179     C
H       0.7552   0.0965   0.0829     H
H       0.7552   0.6587   0.5829     H
N      0.75877  0.32053  0.20215     N
N      0.75877  0.43823  0.70215     N
C      0.75897  0.13493  0.61421     C
C      0.75897  0.62403  0.11421     C
H      0.75937  0.36513  0.43293     H
H      0.75937  0.39423  0.93293     H
N      0.76027  0.32883   0.5122     N
N      0.76027  0.43143   0.0122     N
H      0.76317  0.08853  0.75043     H
H      0.76317  0.67463  0.25043     H
N      0.76477  0.33783  0.65446     N
N      0.76477  0.42693  0.15446     N
H      0.76557  0.08353  0.03193     H
H      0.76557  0.68203  0.53193     H
H       0.7656    0.215   0.8197     H
H       0.7656   0.5506   0.3197     H
H      0.76733  0.77407  0.49087     H
H      0.76733  0.99327  0.99087     H
N      0.77157  0.34613  0.96451     N
N      0.77157  0.42543  0.46451     N
C       0.7724   0.7821  0.86783     C
C       0.7724   0.9903  0.36783     C
H      0.77407  0.00673  0.50913     H
H      0.77407  0.76733  0.00913     H
Mn     0.77635  0.36828  0.61416    Mn
Mn     0.77635  0.40806  0.11416    Mn
H      0.77897  0.15423  0.59703     H
H      0.77897  0.62473  0.09703     H
C      0.78027  0.05353  0.51707     C
C      0.78027  0.72673  0.01707     C
O      0.78065  0.85446  0.21765     O
O      0.78065  0.92619  0.71765     O
C       0.7821   0.0097  0.13217     C
C       0.7821   0.7724  0.63217     C
H      0.78273  0.88167  0.98637     H
H      0.78273  0.90107  0.48637     H
N       0.7836   0.8058  0.33893     N
N       0.7836   0.9778  0.83893     N
H        0.785   0.2344   0.3197     H
H        0.785   0.5506   0.8197     H
C       0.7867    0.189   0.3138     C
C       0.7867   0.5977   0.8138     C
C       0.7875   0.8045  0.78525     C
C       0.7875    0.983  0.28525     C
C       0.7904   0.0549  0.29536     C
C       0.7904   0.7355  0.79536     C
H       0.7913    0.875   0.9205     H
H       0.7913   0.9163   0.4205     H
H      0.79167  0.24963  0.25383     H
H      0.79167  0.54203  0.75383     H
C      0.79347  0.37973  0.94141     C
C      0.79347  0.41373  0.44141     C
C       0.7941    0.042  0.10821     C
C       0.7941   0.7521  0.60821     C
N      0.79737  0.31743   0.1127     N
N      0.79737  0.47993   0.6127     N
C      0.79837  0.19253   0.5399     C
C      0.79837  0.60583   0.0399     C
H      0.79917  0.16873  0.62673     H
H      0.79917  0.63043  0.12673     H
C       0.8016   0.0923  0.21912     C
C       0.8016   0.7093  0.71912     C
C       0.8019   0.1444  0.80275     C
C       0.8019   0.6575  0.30275     C
C      0.80227  0.27243  0.23733     C
C      0.80227  0.52983  0.73733     C
C       0.8035   0.8644    0.904     C
C       0.8035   0.9391    0.404     C
C       0.8045    0.017  0.21475     C
C       0.8045   0.7875  0.71475     C
N       0.8058   0.0222  0.66107     N
N       0.8058   0.7836  0.16107     N
C      0.80747  0.20163   0.0399     C
C      0.80747  0.60583   0.5399     C
H      0.80987  0.30763  0.99293     H
H      0.80987  0.50223  0.49293     H
C        0.811   0.2133   0.8138     C
C        0.811   0.5977   0.3138     C
C      0.81107  0.13523  0.03058     C
C      0.81107  0.67583  0.53058     C
O      0.81221  0.25952  0.55098     O
O      0.81221  0.55268  0.05098     O
N      0.81327  0.34923  0.05396     N
N      0.81327  0.46403  0.55396     N
N      0.81377  0.32413  0.66351     N
N      0.81377  0.48963  0.16351     N
H       0.8209   0.1123   0.2363     H
H       0.8209   0.7086   0.7363     H
O      0.82139  0.40267  0.56437     O
O      0.82139  0.41871  0.06437     O
C      0.82287  0.32973  0.97631     C
C      0.82287  0.49313  0.47631     C
N      0.82297  0.34253  0.50315     N
N      0.82297  0.48043  0.00315     N
C      0.82647  0.33693  0.19035     C
C      0.82647  0.48953  0.69035     C
H       0.8311   0.8568   0.6596     H
H       0.8311   0.9743   0.1596     H
H      0.83127  0.20083  0.12673     H
H      0.83127  0.63043  0.62673     H
H       0.8354   0.1325   0.2066     H
H       0.8354   0.7029   0.7066     H
H      0.83557  0.35903  0.17373     H
H      0.83557  0.47653  0.67373     H
C       0.8402   0.8438  0.64298     C
C       0.8402   0.9964  0.14298     C
N       0.8437   0.8529  0.33018     N
N       0.8437   0.9908  0.83018     N
C       0.8438   0.0036  0.35702     C
C       0.8438   0.8402  0.85702     C
O      0.84528  0.91462  0.26896     O
O      0.84528  0.93066  0.76896     O
H      0.84577  0.22103  0.09703     H
H      0.84577  0.62473  0.59703     H
N       0.8529   0.0092  0.66982     N
N       0.8529   0.8437  0.16982     N
N       0.8534   0.8693  0.77937     N
N       0.8534   0.9841  0.27937     N
O      0.85446  0.07381  0.78235     O
O      0.85446  0.78065  0.28235     O
C       0.8556   0.1981  0.30275     C
C       0.8556   0.6575  0.80275     C
C      0.85567  0.12003  0.51953     C
C      0.85567  0.73563  0.01953     C
H       0.8568   0.0257   0.3404     H
H       0.8568   0.8311   0.8404     H
C       0.8592   0.1317  0.29343     C
C       0.8592   0.7275  0.79343     C
N      0.86087  0.31113  0.67226     N
N      0.86087  0.54973  0.17226     N
C      0.86217  0.31633  0.11858     C
C      0.86217  0.54583  0.61858     C
C      0.86317  0.39423  0.92933     C
C      0.86317  0.46893  0.42933     C
C       0.8644   0.0609    0.096     C
C       0.8644   0.8035    0.596     C
C      0.86477  0.18893  0.53058     C
C      0.86477  0.67583  0.03058     C
C      0.86507  0.24103  0.11421     C
C      0.86507  0.62403  0.61421     C
H       0.8675   0.1646   0.7066     H
H       0.8675   0.7029   0.2066     H
C       0.8683   0.1408  0.79343     C
C       0.8683   0.7275  0.29343     C
N       0.8693   0.0159  0.22063     N
N       0.8693   0.8534  0.72063     N
C      0.87257  0.29133  0.22512     C
C      0.87257  0.58123  0.72512     C
C       0.8732   0.9196  0.89192     C
C       0.8732   0.9536  0.39192     C
H        0.875   0.0837   0.0795     H
H        0.875   0.7913   0.5795     H
H      0.87537  0.41703  0.91283     H
H      0.87537  0.45833  0.41283     H
C      0.87627  0.27843  0.03797     C
C      0.87627  0.59783  0.53797     C
C      0.87917  0.35033  0.04808     C
C      0.87917  0.52883  0.54808     C
C      0.87997  0.14433  0.01953     C
C      0.87997  0.73563  0.51953     C
H      0.88167  0.09893  0.01363     H
H      0.88167  0.78273  0.51363     H
N      0.88307  0.35553   0.4944     N
N      0.88307  0.52753   0.9944     N
H      0.88393  0.43227  0.84697     H
H      0.88393  0.45167  0.34697     H
C      0.88457  0.32363  0.20116     C
C      0.88457  0.56093  0.70116     C
O      0.88602  0.40714  0.61568     O
O      0.88602  0.47887  0.11568     O
C       0.8864   0.2798  0.81626     C
C       0.8864   0.6066  0.31626     C
H       0.8877   0.1791   0.7363     H
H       0.8877   0.7086   0.2363     H
Mn     0.89032  0.92527  0.21917    Mn
Mn     0.89032  0.96505  0.71917    Mn
H       0.8926   0.3266   0.8242     H
H       0.8926    0.566   0.3242     H
C      0.89427  0.34303   0.9655     C
C      0.89427  0.55123   0.4655     C
N       0.8951   0.9079  0.86882     N
N       0.8951   0.9872  0.36882     N
H      0.89933  0.34007  0.34247     H
H      0.89933  0.55927  0.84247     H
H      0.90107  0.11833  0.51363     H
H      0.90107  0.78273  0.01363     H
H       0.9011   0.2498   0.3014     H
H       0.9011   0.6513   0.8014     H
N       0.9019   0.9064  0.17887     N
N       0.9019   0.9955  0.67887     N
H       0.9035   0.2448   0.5829     H
H       0.9035   0.6587   0.0829     H
N       0.9064   0.0045  0.82113     N
N       0.9064   0.9019  0.32113     N
H       0.9073   0.9391   0.4004     H
H       0.9073   0.9682   0.9004     H
C       0.9077   0.1984  0.71912     C
C       0.9077   0.7093  0.21912     C
N       0.9079   0.0128  0.13118     N
N       0.9079   0.8951  0.63118     N
H      0.91147  0.23683  0.25043     H
H      0.91147  0.67463  0.75043     H
C      0.91457  0.37533  0.94154     C
C      0.91457  0.53923  0.44154     C
O      0.91462  0.06934  0.73104     O
O      0.91462  0.84528  0.23104     O
H       0.9163    0.125   0.5795     H
H       0.9163   0.7913   0.0795     H
H      0.91647  0.23443  0.53193     H
H      0.91647  0.68203  0.03193     H
H       0.9191   0.2535   0.7174     H
H       0.9191   0.6656   0.2174     H
C       0.9196   0.0464  0.10808     C
C       0.9196   0.8732  0.60808     C
H      0.92017  0.25243  0.11593     H
H      0.92017  0.66773  0.61593     H
Mn     0.92527  0.03495  0.78083    Mn
Mn     0.92527  0.89032  0.28083    Mn
O      0.92619  0.14554  0.28235     O
O      0.92619  0.78065  0.78235     O
H      0.92857  0.33003  0.97463     H
H      0.92857  0.59853  0.47463     H
H       0.9286   0.2946   0.6089     H
H       0.9286    0.634   0.1089     H
O      0.93066  0.08538  0.23104     O
O      0.93066  0.84528  0.73104     O
C      0.93103  0.45337  0.35287     C
C      0.93103  0.47767  0.85287     C
C      0.93117  0.38823  0.12869     C
C      0.93117  0.54293  0.62869     C
H      0.93187  0.33663  0.19203     H
H      0.93187  0.59523  0.69203     H
H       0.9346   0.2929   0.9036     H
H       0.9346   0.6417   0.4036     H
C      0.93617  0.27933  0.23749     C
C      0.93617  0.65683  0.73749     C
H       0.9391   0.0318   0.5996     H
C       0.9391   0.1356    0.596     C
C       0.9391   0.8035    0.096     C
H       0.9391   0.9073   0.0996     H
C      0.93917  0.46503  0.12676     C
C      0.93917  0.47413  0.62676     C
C      0.93993  0.38687  0.35041     C
C      0.93993  0.55307  0.85041     C
C      0.94467  0.28513  0.02612     C
C      0.94467  0.65953  0.52612     C
C       0.9451   0.2096  0.79536     C
C       0.9451   0.7355  0.29536     C
C        0.946   0.2695  0.59584     C
C        0.946   0.6765  0.09584     C
C      0.94647  0.21973  0.01707     C
C      0.94647  0.72673  0.51707     C
C       0.9518    0.278  0.80721     C
C       0.9518   0.6738  0.30721     C
C       0.9536   0.0804  0.60808     C
C       0.9536   0.8732  0.10808     C
C      0.95737  0.42563  0.05245     C
C      0.95737  0.53173  0.55245     C
C        0.958   0.2059  0.60821     C
C        0.958   0.7521  0.10821     C
H      0.95807  0.44563  0.06963     H
H      0.95807  0.51243  0.56963     H
H      0.95957  0.26793  0.92973     H
H      0.95957  0.69163  0.42973     H
H      0.96127  0.26193  0.22443     H
H      0.96127  0.69933  0.72443     H
H      0.96377  0.46583  0.03993     H
H      0.96377  0.49793  0.53993     H
Mn     0.96505  0.07473  0.28083    Mn
Mn     0.96505  0.89032  0.78083    Mn
H      0.96733  0.37207  0.55777     H
H      0.96733  0.59527  0.05777     H
H       0.9682   0.0609   0.0996     H
H       0.9682   0.9073   0.5996     H
H       0.9743   0.1432   0.8404     H
H       0.9743   0.8311   0.3404     H
H      0.97503  0.37377  0.26307     H
H      0.97503  0.60127  0.76307     H
C      0.97698  0.31032  0.91667     C
C      0.97698  0.66667  0.41667     C
N       0.9778   0.1942  0.16107     N
N       0.9778   0.7836  0.66107     N
C        0.983   0.1955  0.71475     C
C        0.983   0.7875  0.21475     C
N       0.9841   0.1307  0.72063     N
N       0.9841   0.8534  0.22063     N
H      0.98463  0.41687  0.86527     H
H      0.98463  0.56777  0.36527     H
N       0.9872   0.0921  0.63118     N
N       0.9872   0.8951  0.13118     N
H      0.98767  0.33033  0.14223     H
H      0.98767  0.65733  0.64223     H
C      0.99017  0.38733  0.92917     C
C      0.99017  0.60283  0.42917     C
C       0.9903   0.2179  0.63217     C
C       0.9903   0.7724  0.13217     C
H      0.99067  0.33633  0.02443     H
H      0.99067  0.65433  0.52443     H
N       0.9908   0.1471  0.16982     N
N       0.9908   0.8437  0.66982     N
C      0.99083  0.46857  0.86392     C
C      0.99083  0.52227  0.36392     C
H      0.99203  0.42187  0.58377     H
H      0.99203  0.57017  0.08377     H
C      0.99287  0.38153  0.14054     C
C      0.99287  0.61133  0.64054     C
H      0.99327  0.22593  0.00913     H
H      0.99327  0.76733  0.50913     H
N       0.9955   0.0936  0.32113     N
N       0.9955   0.9019  0.82113     N
C       0.9964   0.1562  0.85702     C
C       0.9964   0.8402  0.35702     C
H       0.9967   0.2619   0.8587     H
H       0.9967   0.7348   0.3587     H
H        0.997    0.321   0.6911     H
H        0.997    0.676   0.1911     H
H      0.99893  0.41317  0.44927     H
H      0.99893  0.58577  0.94927     H
