data_I
_chemical_name_common  '/home/zhangsd/repos/MofS-CGCNN/ML/data/SSD/clean_cifs/VERZID_clean'
_cell_length_a  7.68390
_cell_length_b  7.75550
_cell_length_c 13.01950
_cell_angle_alpha 90.00000
_cell_angle_beta  90.00000
_cell_angle_gamma 90.00000
_space_group_name_H-M_alt      'P 1'


loop_
_space_group_symop_operation_xyz
  'x, y, z' 

loop_
_atom_site_label
_atom_site_fract_x
_atom_site_fract_y
_atom_site_fract_z
_atom_site_type_symbol
H       0.0335   0.3248   0.7738     H
O       0.0486   0.6482   0.4622     O
Co     0.05048  0.00544  0.91519    Co
C       0.0741    0.774   0.7384     C
O       0.1071   0.6367  0.69142     O
H       0.1441   0.2256   0.4652     H
O        0.159   0.3354  0.59035     O
O       0.1678   0.8711  0.03503     O
O       0.1729   0.8479  0.79978     O
C       0.1865   0.7318   0.4645     C
C       0.2069   0.2304   0.5262     C
O       0.2434   0.8276  0.39391     O
H       0.2463   0.2771   0.0237     H
H       0.2537   0.7229   0.5237     H
O       0.2566   0.1724  0.89391     O
C       0.2931   0.7696   0.0262     C
C       0.3135   0.2682   0.9645     C
O       0.3271   0.1521  0.29978     O
O       0.3322   0.1289  0.53503     O
O        0.341   0.6646  0.09035     O
H       0.3559   0.7744   0.9652     H
O       0.3929   0.3633  0.19142     O
C       0.4259    0.226   0.2384     C
Co     0.44952  0.99456  0.41519    Co
O       0.4514   0.3518   0.9622     O
H       0.4665   0.6752   0.2738     H
H       0.5335   0.1752   0.2262     H
O       0.5486   0.8518   0.5378     O
Co     0.55048  0.49456  0.08481    Co
C       0.5741    0.726   0.2616     C
O       0.6071   0.8633  0.30858     O
H       0.6441   0.2744   0.5348     H
O        0.659   0.1646  0.40965     O
O       0.6678   0.6289  0.96497     O
O       0.6729   0.6521  0.20022     O
C       0.6865   0.7682   0.5355     C
C       0.7069   0.2696   0.4738     C
O       0.7434   0.6724  0.60609     O
H       0.7463   0.2229   0.9763     H
H       0.7537   0.7771   0.4763     H
O       0.7566   0.3276  0.10609     O
C       0.7931   0.7304   0.9738     C
C       0.8135   0.2318   0.0355     C
O       0.8271   0.3479  0.70022     O
O       0.8322   0.3711  0.46497     O
O        0.841   0.8354  0.90965     O
H       0.8559   0.7256   0.0348     H
O       0.8929   0.1367  0.80858     O
C       0.9259    0.274   0.7616     C
Co     0.94952  0.50544  0.58481    Co
O       0.9514   0.1482   0.0378     O
H       0.9665   0.8248   0.7262     H
