data_I
_chemical_name_common  '/home/zhangsd/repos/MofS-CGCNN/ML/data/SSD/clean_cifs/VIDXOX_clean'
_cell_length_a 10.41350
_cell_length_b 10.55410
_cell_length_c 14.03720
_cell_angle_alpha 99.59500
_cell_angle_beta  99.62000
_cell_angle_gamma 108.84300
_space_group_name_H-M_alt      'P 1'


loop_
_space_group_symop_operation_xyz
  'x, y, z' 

loop_
_atom_site_label
_atom_site_fract_x
_atom_site_fract_y
_atom_site_fract_z
_atom_site_type_symbol
O       0.0002   0.3158   0.7011     O
C       0.0009   0.7414   0.8944     C
C       0.0017   0.8792   0.9443     C
C       0.0302   0.4199   0.5651     C
Er     0.03584  0.53583  0.17855    Er
C       0.0511   0.6417   0.5303     C
C       0.0562    0.326   0.6303     C
O       0.0762   0.6899   0.9426     O
O       0.0802   0.3249    0.189     O
C       0.0829   0.5648   0.5961     C
H       0.0857   0.7373   0.5513     H
O       0.1247   0.2549   0.6058     O
C       0.1248   0.1089   0.0468     C
C       0.1277    0.988   0.9905     C
O       0.1312   0.4425   0.9323     O
O       0.1543    0.593   0.7706     O
C       0.1769   0.6423   0.6967     C
O       0.2068   0.5494   0.0932     O
H       0.2079   0.1817   0.0783     H
C       0.2252   0.4986   0.0118     C
C        0.265   0.9823    0.973     C
O        0.273    0.958   0.8836     O
O       0.2738   0.7523   0.7009     O
H       0.3015   0.3345   0.8915     H
O       0.3624   0.0069   0.0469     O
C       0.3684   0.5016   0.0068     C
C       0.3812   0.4007   0.9351     C
Er     0.45822  0.93462  0.81801    Er
O       0.4744   0.8217   0.1144     O
C       0.4849   0.7205    0.147     C
C       0.4881   0.6018   0.0719     C
O       0.4973   0.2849   0.7637     O
O       0.5027   0.7151   0.2363     O
C       0.5119   0.3982   0.9281     C
C       0.5151   0.2795    0.853     C
O       0.5256   0.1783   0.8856     O
Er     0.54178  0.06538  0.18199    Er
C       0.6188   0.5993   0.0649     C
C       0.6316   0.4984   0.9932     C
O       0.6376   0.9931   0.9531     O
H       0.6985   0.6655   0.1085     H
O       0.7262   0.2477   0.2991     O
O        0.727    0.042   0.1164     O
C        0.735   0.0177    0.027     C
C       0.7748   0.5014   0.9882     C
H       0.7921   0.8183   0.9217     H
O       0.7932   0.4506   0.9068     O
C       0.8231   0.3577   0.3033     C
O       0.8457    0.407   0.2294     O
O       0.8688   0.5575   0.0677     O
C       0.8723    0.012   0.0095     C
C       0.8752   0.8911   0.9532     C
O       0.8753   0.7451   0.3942     O
H       0.9143   0.2627   0.4487     H
C       0.9171   0.4352   0.4039     C
O       0.9198   0.6751    0.811     O
O       0.9238   0.3101   0.0574     O
C       0.9438    0.674   0.3697     C
C       0.9489   0.3583   0.4697     C
Er     0.96416  0.46417  0.82145    Er
C       0.9698   0.5801   0.4349     C
C       0.9983   0.1208   0.0557     C
C       0.9991   0.2586   0.1056     C
O       0.9998   0.6842   0.2989     O
