data_I
_chemical_name_common  '/home/zhangsd/repos/MofS-CGCNN/ML/data/SSD/clean_cifs/VIRVEY_clean'
_cell_length_a 12.76600
_cell_length_b 23.34000
_cell_length_c 14.90300
_cell_angle_alpha 90.00000
_cell_angle_beta  90.00000
_cell_angle_gamma 90.00000
_space_group_name_H-M_alt      'P 1'


loop_
_space_group_symop_operation_xyz
  'x, y, z' 

loop_
_atom_site_label
_atom_site_fract_x
_atom_site_fract_y
_atom_site_fract_z
_atom_site_type_symbol
H       0.0028   0.5006   0.8604     H
Cl     0.00597   0.7488  0.50227    Cl
C       0.0093   0.4611   0.8586     C
C       0.0096    0.949   0.3331     C
N       0.0193  0.16872   0.8429     N
H       0.0216   0.9882   0.3312     H
N       0.0243  0.34225   0.8537     N
Pt     0.02666  0.25589  0.85073    Pt
C       0.0369   0.8546    0.276     C
C       0.0387   0.6294   0.2964     C
C       0.0458   0.5711   0.2962     C
C       0.0501   0.0752   0.9013     C
C       0.0511    0.913   0.2678     C
Cl      0.0578  0.26113  0.69838    Cl
C       0.0626   0.1344   0.9057     C
H       0.0679   0.8306   0.2336     H
C       0.0743   0.4331   0.9177     C
H       0.0783   0.6503   0.2561     H
C       0.0805    0.374   0.9151     C
O       0.0928   0.9839   0.9578     O
H       0.1014   0.1509   0.9516     H
C       0.1054   0.0368    0.968     C
C        0.106    0.935   0.1852     C
O       0.1063  0.90207   0.1185     O
O       0.1087   0.4896   0.2152     O
O       0.1122   0.5179   0.9976     O
C       0.1161    0.542   0.2273     C
H        0.123   0.3549    0.956     H
C       0.1339   0.4672   0.9848     C
O       0.1491  0.98378   0.1919     O
Zn     0.15056  0.90137  0.98828    Zn
O       0.1609  0.06181   0.0254     O
O       0.1771   0.5747   0.1829     O
O       0.2077   0.4423   0.0299     O
Zn     0.24746  0.51532   0.1058    Zn
Zn     0.25254  0.01532   0.1058    Zn
O       0.2923   0.9423   0.0299     O
O       0.3229   0.0747   0.1829     O
O       0.3391  0.56181   0.0254     O
Zn     0.34944  0.40137  0.98828    Zn
O       0.3509  0.48378   0.1919     O
C       0.3661   0.9672   0.9848     C
H        0.377   0.8549    0.956     H
C       0.3839    0.042   0.2273     C
O       0.3878   0.0179   0.9976     O
O       0.3913   0.9896   0.2152     O
O       0.3937  0.40207   0.1185     O
C        0.394    0.435   0.1852     C
C       0.3946   0.5368    0.968     C
H       0.3986   0.6509   0.9516     H
O       0.4072   0.4839   0.9578     O
C       0.4195    0.874   0.9151     C
H       0.4217   0.1503   0.2561     H
C       0.4257   0.9331   0.9177     C
H       0.4321   0.3306   0.2336     H
C       0.4374   0.6344   0.9057     C
Cl      0.4422  0.76113  0.69838    Cl
C       0.4489    0.413   0.2678     C
C       0.4499   0.5752   0.9013     C
C       0.4542   0.0711   0.2962     C
C       0.4613   0.1294   0.2964     C
C       0.4631   0.3546    0.276     C
Pt     0.47334  0.75589  0.85073    Pt
N       0.4757  0.84225   0.8537     N
H       0.4784   0.4882   0.3312     H
N       0.4807  0.66872   0.8429     N
C       0.4904    0.449   0.3331     C
C       0.4907   0.9611   0.8586     C
Cl     0.49403   0.2488  0.50227    Cl
H       0.4972   0.0006   0.8604     H
H       0.5028   0.9994   0.3604     H
Cl     0.50597   0.7512  0.00227    Cl
C       0.5093   0.0389   0.3586     C
C       0.5096    0.551   0.8331     C
N       0.5193  0.33128   0.3429     N
H       0.5216   0.5118   0.8312     H
N       0.5243  0.15775   0.3537     N
Pt     0.52666  0.24411  0.35073    Pt
C       0.5369   0.6454    0.776     C
C       0.5387   0.8706   0.7964     C
C       0.5458   0.9289   0.7962     C
C       0.5501   0.4248   0.4013     C
C       0.5511    0.587   0.7678     C
Cl      0.5578  0.23887  0.19838    Cl
C       0.5626   0.3656   0.4057     C
H       0.5679   0.6694   0.7336     H
C       0.5743   0.0669   0.4177     C
H       0.5783   0.8497   0.7561     H
C       0.5805    0.126   0.4151     C
O       0.5928   0.5161   0.4578     O
H       0.6014   0.3491   0.4516     H
C       0.6054   0.4632    0.468     C
C        0.606    0.565   0.6852     C
O       0.6063  0.59793   0.6185     O
O       0.6087   0.0104   0.7152     O
O       0.6122   0.9821   0.4976     O
C       0.6161    0.958   0.7273     C
H        0.623   0.1451    0.456     H
C       0.6339   0.0328   0.4848     C
O       0.6491  0.51622   0.6919     O
Zn     0.65056  0.59863  0.48828    Zn
O       0.6609  0.43819   0.5254     O
O       0.6771   0.9253   0.6829     O
O       0.7077   0.0577   0.5299     O
Zn     0.74746  0.98468   0.6058    Zn
Zn     0.75254  0.48468   0.6058    Zn
O       0.7923   0.5577   0.5299     O
O       0.8229   0.4253   0.6829     O
O       0.8391  0.93819   0.5254     O
Zn     0.84944  0.09863  0.48828    Zn
O       0.8509  0.01622   0.6919     O
C       0.8661   0.5328   0.4848     C
H        0.877   0.6451    0.456     H
C       0.8839    0.458   0.7273     C
O       0.8878   0.4821   0.4976     O
O       0.8913   0.5104   0.7152     O
O       0.8937  0.09793   0.6185     O
C        0.894    0.065   0.6852     C
C       0.8946   0.9632    0.468     C
H       0.8986   0.8491   0.4516     H
O       0.9072   0.0161   0.4578     O
C       0.9195    0.626   0.4151     C
H       0.9217   0.3497   0.7561     H
C       0.9257   0.5669   0.4177     C
H       0.9321   0.1694   0.7336     H
C       0.9374   0.8656   0.4057     C
Cl      0.9422  0.73887  0.19838    Cl
C       0.9489    0.087   0.7678     C
C       0.9499   0.9248   0.4013     C
C       0.9542   0.4289   0.7962     C
C       0.9613   0.3706   0.7964     C
C       0.9631   0.1454    0.776     C
Pt     0.97334  0.74411  0.35073    Pt
N       0.9757  0.65775   0.3537     N
H       0.9784   0.0118   0.8312     H
N       0.9807  0.83128   0.3429     N
C       0.9904    0.051   0.8331     C
C       0.9907   0.5389   0.3586     C
Cl     0.99403   0.2512  0.00227    Cl
H       0.9972   0.4994   0.3604     H
