data_I
_chemical_name_common  '/home/zhangsd/repos/MofS-CGCNN/ML/data/SSD/clean_cifs/VIWMEV_clean'
_cell_length_a 10.89900
_cell_length_b 19.78500
_cell_length_c 20.33400
_cell_angle_alpha 90.00000
_cell_angle_beta  90.00000
_cell_angle_gamma 99.48000
_space_group_name_H-M_alt      'P 1'


loop_
_space_group_symop_operation_xyz
  'x, y, z' 

loop_
_atom_site_label
_atom_site_fract_x
_atom_site_fract_y
_atom_site_fract_z
_atom_site_type_symbol
O       0.0009   0.7374   0.1853     O
O       0.0014   0.9673   0.8055     O
C       0.0097   0.7276   0.7444     C
H       0.0144   0.4272   0.3126     H
O       0.0271   0.6032   0.1116     O
C       0.0342   0.3911   0.2877     C
O       0.0348   0.2362   0.7116     O
C       0.0373   0.6066   0.1715     C
C       0.0394    0.673   0.7082     C
Sm     0.04045  0.84613  0.37074    Sm
C       0.0421   0.2771   0.7579     C
C       0.0493   0.4624   0.0468     C
C       0.0771   0.5507    0.965     C
C       0.0774   0.4034   0.7851     C
O       0.0791   0.1065   0.1193     O
C       0.0796   0.7995   0.7353     C
Cu      0.0822  0.83157  0.17331    Cu
H       0.0825   0.4368   0.0786     H
O       0.0879   0.8399   0.7824     O
C       0.0915   0.0706   0.1691     C
C       0.0924   0.2833   0.2134     C
O       0.1073   0.6447   0.8914     O
C       0.1094   0.3488    0.749     C
H       0.1106   0.2475   0.1875     H
O       0.1175   0.1104   0.6996     O
O       0.1211   0.8146   0.6782     O
C       0.1273    0.512   0.0132     C
H       0.1283   0.5035   0.8052     H
C       0.1372   0.4016   0.2466     C
O       0.1393   0.6147    0.204     O
O       0.1433   0.9158   0.2835     O
O       0.1476   0.6587   0.6085     O
C       0.1493   0.4675   0.7807     C
C       0.1563   0.6776   0.6662     C
Sm      0.1571   0.9181  0.87241    Sm
C       0.1588   0.6035    0.924     C
O       0.1609   0.9276   0.1748     O
C       0.1675   0.3473   0.2097     C
O       0.1767   0.0215   0.5116     O
C       0.1768     0.95   0.2332     C
O       0.1922   0.9238    0.564     O
O       0.2007   0.1762   0.6198     O
Cu     0.20094  0.90976  0.67326    Cu
C       0.2064   0.4743   0.2402     C
C       0.2107   0.1455   0.6728     C
C       0.2111   0.3605   0.7072     C
C        0.215   0.0761   0.2037     C
O       0.2257   0.4946   0.1827     O
O       0.2264   0.8964   0.4244     O
H       0.2297    0.325    0.681     H
O       0.2332   0.5087   0.2915     O
C       0.2367   0.9762   0.5308     C
O       0.2424   0.8042   0.1972     O
C       0.2468   0.0212   0.2396     C
C       0.2532   0.4788   0.7396     C
O       0.2576   0.6958   0.6972     O
C       0.2633   0.5238   0.0308     C
O       0.2668   0.9913   0.7915     O
H       0.2703    0.175    0.181     H
O       0.2736   0.6036   0.9244     O
O       0.2743   0.0054   0.6827     O
C        0.285   0.4239   0.7037     C
C       0.2889   0.1395   0.2072     C
C       0.2893   0.3545   0.1728     C
C       0.2936   0.0257   0.7402     C
Cu     0.29906  0.59024  0.17326    Cu
O       0.2993   0.3238   0.1198     O
O       0.3078   0.5762    0.064     O
C       0.3232     0.55   0.7332     C
O       0.3233   0.4785   0.0116     O
C       0.3325   0.1527   0.7097     C
O       0.3391   0.5724   0.6748     O
C       0.3412   0.8965    0.424     C
Sm      0.3429   0.5819  0.37241    Sm
C       0.3437   0.8224   0.1662     C
C       0.3507   0.0325   0.2807     C
O       0.3524   0.8413   0.1085     O
O       0.3567   0.5842   0.7835     O
O       0.3607   0.8853    0.704     O
C       0.3628   0.0984   0.7466     C
H       0.3717   0.9965   0.3052     H
C       0.3727    0.988   0.5132     C
O       0.3789   0.6854   0.1782     O
O       0.3825   0.3896   0.1996     O
H       0.3894   0.2525   0.6875     H
C       0.3906   0.1512    0.249     C
O       0.3927   0.8553   0.3914     O
C       0.4076   0.2167   0.7134     C
C       0.4085   0.4294   0.6691     C
O       0.4121   0.6601   0.2824     O
H       0.4175   0.0632   0.5786     H
Cu      0.4178  0.66843  0.67331    Cu
C       0.4204   0.7005   0.2353     C
O       0.4209   0.3935   0.6193     O
C       0.4226   0.0966   0.2851     C
C       0.4229   0.9493    0.465     C
C       0.4507   0.0376   0.5468     C
C       0.4579   0.2229   0.2579     C
Sm     0.45955  0.65387  0.87074    Sm
C       0.4606    0.827   0.2082     C
C       0.4627   0.8934   0.6715     C
O       0.4652   0.2638   0.2116     O
C       0.4658   0.1089   0.7877     C
O       0.4729   0.8968   0.6116     O
H       0.4856   0.0728   0.8126     H
C       0.4903   0.7724   0.2444     C
O       0.4986   0.5327   0.3055     O
O       0.4991   0.7626   0.6853     O
O       0.5009   0.2374   0.3147     O
O       0.5014   0.4673   0.6945     O
C       0.5097   0.2276   0.7556     C
H       0.5144   0.9272   0.1874     H
O       0.5271   0.1032   0.3884     O
C       0.5342   0.8911   0.2123     C
O       0.5348   0.7362   0.7884     O
C       0.5373   0.1066   0.3285     C
C       0.5394    0.173   0.7918     C
Sm     0.54045  0.34613  0.12926    Sm
C       0.5421   0.7771   0.7421     C
C       0.5493   0.9624   0.4532     C
C       0.5771   0.0507    0.535     C
C       0.5774   0.9034   0.7149     C
O       0.5791   0.6065   0.3807     O
C       0.5796   0.2995   0.7647     C
Cu      0.5822  0.33157  0.32669    Cu
H       0.5825   0.9368   0.4214     H
O       0.5879   0.3399   0.7176     O
C       0.5915   0.5706   0.3309     C
C       0.5924   0.7833   0.2866     C
O       0.6073   0.1447   0.6086     O
C       0.6094   0.8488    0.751     C
H       0.6106   0.7475   0.3125     H
O       0.6175   0.6104   0.8004     O
O       0.6211   0.3146   0.8218     O
C       0.6273    0.012   0.4868     C
H       0.6283   0.0035   0.6948     H
C       0.6372   0.9016   0.2534     C
O       0.6393   0.1147    0.296     O
O       0.6433   0.4158   0.2165     O
O       0.6476   0.1587   0.8915     O
C       0.6493   0.9675   0.7193     C
C       0.6563   0.1776   0.8338     C
Sm      0.6571   0.4181  0.62759    Sm
C       0.6588   0.1035    0.576     C
O       0.6609   0.4276   0.3252     O
C       0.6675   0.8473   0.2903     C
O       0.6767   0.5215   0.9884     O
C       0.6768     0.45   0.2668     C
O       0.6922   0.4238    0.936     O
O       0.7007   0.6762   0.8802     O
Cu     0.70094  0.40976  0.82674    Cu
C       0.7064   0.9743   0.2598     C
C       0.7107   0.6455   0.8272     C
C       0.7111   0.8605   0.7928     C
C        0.715   0.5761   0.2963     C
O       0.7257   0.9946   0.3173     O
O       0.7264   0.3964   0.0756     O
H       0.7297    0.825    0.819     H
O       0.7332   0.0087   0.2085     O
C       0.7367   0.4762   0.9692     C
O       0.7424   0.3042   0.3028     O
C       0.7468   0.5212   0.2604     C
C       0.7532   0.9788   0.7604     C
O       0.7576   0.1958   0.8028     O
C       0.7633   0.0238   0.4692     C
O       0.7668   0.4913   0.7085     O
H       0.7703    0.675    0.319     H
O       0.7736   0.1036   0.5756     O
O       0.7743   0.5054   0.8173     O
C        0.785   0.9239   0.7963     C
C       0.7889   0.6395   0.2928     C
C       0.7893   0.8545   0.3272     C
C       0.7936   0.5257   0.7598     C
Cu     0.79906  0.09024  0.32674    Cu
O       0.7993   0.8238   0.3802     O
O       0.8078   0.0762    0.436     O
C       0.8232     0.05   0.7668     C
O       0.8233   0.9785   0.4884     O
C       0.8325   0.6527   0.7903     C
O       0.8391   0.0724   0.8252     O
C       0.8412   0.3965    0.076     C
Sm      0.8429   0.0819  0.12759    Sm
C       0.8437   0.3224   0.3338     C
C       0.8507   0.5325   0.2193     C
O       0.8524   0.3413   0.3915     O
O       0.8567   0.0842   0.7165     O
O       0.8607   0.3853    0.796     O
C       0.8628   0.5984   0.7534     C
H       0.8717   0.4965   0.1948     H
C       0.8727    0.488   0.9868     C
O       0.8789   0.1854   0.3218     O
O       0.8825   0.8896   0.3004     O
H       0.8894   0.7525   0.8125     H
C       0.8906   0.6512    0.251     C
O       0.8927   0.3553   0.1086     O
C       0.9076   0.7167   0.7866     C
C       0.9085   0.9294   0.8309     C
O       0.9121   0.1601   0.2176     O
H       0.9175   0.5632   0.9214     H
Cu      0.9178  0.16843  0.82669    Cu
C       0.9204   0.2005   0.2647     C
O       0.9209   0.8935   0.8807     O
C       0.9226   0.5966   0.2149     C
C       0.9229   0.4493    0.035     C
C       0.9507   0.5376   0.9532     C
C       0.9579   0.7229   0.2421     C
Sm     0.95955  0.15387  0.62926    Sm
C       0.9606    0.327   0.2918     C
C       0.9627   0.3934   0.8285     C
O       0.9652   0.7638   0.2884     O
C       0.9658   0.6089   0.7123     C
O       0.9729   0.3968   0.8884     O
H       0.9856   0.5728   0.6874     H
C       0.9903   0.2724   0.2556     C
O       0.9986   0.0327   0.1945     O
O       0.9991   0.2626   0.8147     O
