data_I
_chemical_name_common  '/home/zhangsd/repos/MofS-CGCNN/ML/data/SSD/clean_cifs/VIWMIZ_clean'
_cell_length_a 25.39610
_cell_length_b 25.39610
_cell_length_c 25.39610
_cell_angle_alpha 90.00000
_cell_angle_beta  90.00000
_cell_angle_gamma 90.00000
_space_group_name_H-M_alt      'P 1'


loop_
_space_group_symop_operation_xyz
  'x, y, z' 

loop_
_atom_site_label
_atom_site_fract_x
_atom_site_fract_y
_atom_site_fract_z
_atom_site_type_symbol
H       0.0016   0.1487   0.6824     H
H       0.0016   0.3513   0.8176     H
H       0.0016   0.6487   0.1824     H
H       0.0016   0.8513   0.3176     H
C        0.015   0.1918    0.822     C
C        0.015   0.3082    0.678     C
C        0.015   0.6918    0.322     C
C        0.015   0.8082    0.178     C
H       0.0176   0.1751   0.1855     H
H       0.0176   0.3249   0.3145     H
H       0.0176   0.6751   0.6855     H
H       0.0176   0.8249   0.8145     H
C       0.0182   0.2464    0.823     C
C       0.0182   0.2536    0.677     C
C       0.0182   0.7464    0.323     C
C       0.0182   0.7536    0.177     C
N        0.027   0.2229   0.3159     N
N        0.027   0.2771   0.1841     N
N        0.027   0.7229   0.8159     N
N        0.027   0.7771   0.6841     N
C       0.0277   0.1715   0.3134     C
C       0.0277   0.3285   0.1866     C
C       0.0277   0.6715   0.8134     C
C       0.0277   0.8285   0.6866     C
H       0.0574   0.1242   0.8313     H
H       0.0574   0.3758   0.6687     H
H       0.0574   0.6242   0.3313     H
H       0.0574   0.8758   0.1687     H
C       0.0596   0.1616    0.832     C
C       0.0596   0.3384    0.668     C
C       0.0596   0.6616    0.332     C
C       0.0596   0.8384    0.168     C
C       0.0659   0.2292   0.6659     C
C       0.0659   0.2708   0.8341     C
C       0.0659   0.7292   0.1659     C
C       0.0659   0.7708   0.3341     C
H       0.0681   0.1918   0.6652     H
H       0.0681   0.3082   0.8348     H
H       0.0681   0.6918   0.1652     H
H       0.0681   0.8082   0.3348     H
C       0.0757   0.1574    0.304     C
C       0.0757   0.3426    0.196     C
C       0.0757   0.6574    0.804     C
C       0.0757   0.8426    0.696     C
C       0.0766   0.2379    0.311     C
C       0.0766   0.2621    0.189     C
C       0.0766   0.7379    0.811     C
C       0.0766   0.7621    0.689     C
H       0.0858   0.1217    0.299     H
H       0.0858   0.3783    0.201     H
H       0.0858   0.6217    0.799     H
H       0.0858   0.8783    0.701     H
H       0.0874   0.2263   0.1864     H
H       0.0874   0.2737   0.3136     H
H       0.0874   0.7263   0.6864     H
H       0.0874   0.7737   0.8136     H
C       0.1073    0.186   0.8431     C
C       0.1073    0.314   0.6569     C
C       0.1073    0.686   0.3431     C
C       0.1073    0.814   0.1569     C
C       0.1105   0.2407   0.8441     C
C       0.1105   0.2593   0.6559     C
C       0.1105   0.7407   0.3441     C
C       0.1105   0.7593   0.1559     C
N       0.1107   0.1982    0.302     N
N       0.1107   0.3018    0.198     N
N       0.1107   0.6982    0.802     N
N       0.1107   0.8018    0.698     N
H       0.1217    0.201   0.4142     H
H       0.1217    0.299   0.0858     H
H       0.1217    0.701   0.9142     H
H       0.1217    0.799   0.5858     H
H       0.1242   0.1687   0.9426     H
H       0.1242   0.3313   0.5574     H
H       0.1242   0.6687   0.4426     H
H       0.1242   0.8313   0.0574     H
H       0.1431   0.2426   0.6483     H
H       0.1431   0.2574   0.8517     H
H       0.1431   0.7426   0.1483     H
H       0.1431   0.7574   0.3517     H
H       0.1483   0.1431   0.7426     H
H       0.1483   0.3569   0.7574     H
H       0.1483   0.6431   0.2426     H
H       0.1483   0.8569   0.2574     H
H       0.1487   0.1824   0.5016     H
H       0.1487   0.3176   0.9984     H
H       0.1487   0.6824   0.0016     H
H       0.1487   0.8176   0.4984     H
N       0.1553   0.1553   0.8447     N
N       0.1553   0.3447   0.6553     N
N       0.1553   0.6553   0.3447     N
N       0.1553   0.8447   0.1553     N
C       0.1559   0.1105   0.7593     C
C       0.1559   0.3895   0.7407     C
C       0.1559   0.6105   0.2593     C
C       0.1559   0.8895   0.2407     C
C       0.1569   0.1073    0.814     C
C       0.1569   0.3927    0.686     C
C       0.1569   0.6073    0.314     C
C       0.1569   0.8927    0.186     C
C       0.1574    0.196   0.4243     C
C       0.1574    0.304   0.0757     C
C       0.1574    0.696   0.9243     C
C       0.1574    0.804   0.5757     C
C       0.1616    0.168   0.9404     C
C       0.1616    0.332   0.5596     C
C       0.1616    0.668   0.4404     C
C       0.1616    0.832   0.0596     C
H       0.1652   0.0681   0.6918     H
H       0.1652   0.4319   0.8082     H
H       0.1652   0.5681   0.1918     H
H       0.1652   0.9319   0.3082     H
C       0.1659   0.0659   0.7292     C
C       0.1659   0.4341   0.7708     C
C       0.1659   0.5659   0.2292     C
C       0.1659   0.9341   0.2708     C
C        0.168   0.0596   0.8384     C
C        0.168   0.4404   0.6616     C
C        0.168   0.5596   0.3384     C
C        0.168   0.9404   0.1616     C
H       0.1687   0.0574   0.8758     H
H       0.1687   0.4426   0.6242     H
H       0.1687   0.5574   0.3758     H
H       0.1687   0.9426   0.1242     H
C       0.1715   0.1866   0.4723     C
C       0.1715   0.3134   0.0277     C
C       0.1715   0.6866   0.9723     C
C       0.1715   0.8134   0.5277     C
H       0.1751   0.1855   0.0176     H
H       0.1751   0.3145   0.4824     H
H       0.1751   0.6855   0.5176     H
H       0.1751   0.8145   0.9824     H
C        0.177   0.0182   0.7536     C
C        0.177   0.4818   0.7464     C
C        0.177   0.5182   0.2536     C
C        0.177   0.9818   0.2464     C
C        0.178    0.015   0.8082     C
C        0.178    0.485   0.6918     C
C        0.178    0.515   0.3082     C
C        0.178    0.985   0.1918     C
H       0.1824   0.0016   0.6487     H
H       0.1824   0.4984   0.8513     H
H       0.1824   0.5016   0.1487     H
H       0.1824   0.9984   0.3513     H
N       0.1841    0.027   0.2771     N
N       0.1841    0.473   0.2229     N
N       0.1841    0.527   0.7771     N
N       0.1841    0.973   0.7229     N
H       0.1855   0.0176   0.1751     H
H       0.1855   0.4824   0.3249     H
H       0.1855   0.5176   0.6751     H
H       0.1855   0.9824   0.8249     H
C        0.186   0.1569   0.8927     C
C        0.186   0.3431   0.6073     C
C        0.186   0.6569   0.3927     C
C        0.186   0.8431   0.1073     C
H       0.1864   0.0874   0.2263     H
H       0.1864   0.4126   0.2737     H
H       0.1864   0.5874   0.7263     H
H       0.1864   0.9126   0.7737     H
C       0.1866   0.0277   0.3285     C
C       0.1866   0.4723   0.1715     C
C       0.1866   0.5277   0.8285     C
C       0.1866   0.9723   0.6715     C
C        0.189   0.0766   0.2621     C
C        0.189   0.4234   0.2379     C
C        0.189   0.5766   0.7621     C
C        0.189   0.9234   0.7379     C
H       0.1918   0.1652   0.5681     H
C       0.1918    0.178    0.985     C
C       0.1918    0.322    0.515     C
H       0.1918   0.3348   0.9319     H
H       0.1918   0.6652   0.0681     H
C       0.1918    0.678    0.485     C
C       0.1918    0.822    0.015     C
H       0.1918   0.8348   0.4319     H
C        0.196   0.0757   0.3426     C
C        0.196   0.4243   0.1574     C
C        0.196   0.5757   0.8426     C
C        0.196   0.9243   0.6574     C
N        0.198   0.1107   0.3018     N
N        0.198   0.3893   0.1982     N
N        0.198   0.6107   0.8018     N
N        0.198   0.8893   0.6982     N
N       0.1982    0.198   0.3893     N
N       0.1982    0.302   0.1107     N
N       0.1982    0.698   0.8893     N
N       0.1982    0.802   0.6107     N
Cd     0.20011  0.20011  0.29989    Cd
Cd     0.20011  0.29989  0.20011    Cd
Cd     0.20011  0.70011  0.79989    Cd
Cd     0.20011  0.79989  0.70011    Cd
H        0.201   0.0858   0.3783     H
H        0.201   0.4142   0.1217     H
H        0.201   0.5858   0.8783     H
H        0.201   0.9142   0.6217     H
N       0.2229   0.1841    0.473     N
N       0.2229   0.3159    0.027     N
N       0.2229   0.6841    0.973     N
N       0.2229   0.8159    0.527     N
H       0.2263   0.1864   0.0874     H
H       0.2263   0.3136   0.4126     H
H       0.2263   0.6864   0.5874     H
H       0.2263   0.8136   0.9126     H
C       0.2292   0.1659   0.5659     C
C       0.2292   0.3341   0.9341     C
C       0.2292   0.6659   0.0659     C
C       0.2292   0.8341   0.4341     C
C       0.2379    0.189   0.4234     C
C       0.2379    0.311   0.0766     C
C       0.2379    0.689   0.9234     C
C       0.2379    0.811   0.5766     C
C       0.2407   0.1559   0.8895     C
C       0.2407   0.3441   0.6105     C
C       0.2407   0.6559   0.3895     C
C       0.2407   0.8441   0.1105     C
H       0.2426   0.1483   0.6431     H
H       0.2426   0.3517   0.8569     H
H       0.2426   0.6483   0.1431     H
H       0.2426   0.8517   0.3569     H
C       0.2464    0.177   0.9818     C
C       0.2464    0.323   0.5182     C
C       0.2464    0.677   0.4818     C
C       0.2464    0.823   0.0182     C
C       0.2536    0.177   0.5182     C
C       0.2536    0.323   0.9818     C
C       0.2536    0.677   0.0182     C
C       0.2536    0.823   0.4818     C
H       0.2574   0.1483   0.8569     H
H       0.2574   0.3517   0.6431     H
H       0.2574   0.6483   0.3569     H
H       0.2574   0.8517   0.1431     H
C       0.2593   0.1559   0.6105     C
C       0.2593   0.3441   0.8895     C
C       0.2593   0.6559   0.1105     C
C       0.2593   0.8441   0.3895     C
C       0.2621    0.189   0.0766     C
C       0.2621    0.311   0.4234     C
C       0.2621    0.689   0.5766     C
C       0.2621    0.811   0.9234     C
C       0.2708   0.1659   0.9341     C
C       0.2708   0.3341   0.5659     C
C       0.2708   0.6659   0.4341     C
C       0.2708   0.8341   0.0659     C
H       0.2737   0.1864   0.4126     H
H       0.2737   0.3136   0.0874     H
H       0.2737   0.6864   0.9126     H
H       0.2737   0.8136   0.5874     H
N       0.2771   0.1841    0.027     N
N       0.2771   0.3159    0.473     N
N       0.2771   0.6841    0.527     N
N       0.2771   0.8159    0.973     N
H        0.299   0.0858   0.1217     H
H        0.299   0.4142   0.3783     H
H        0.299   0.5858   0.6217     H
H        0.299   0.9142   0.8783     H
Cd     0.29989  0.20011  0.20011    Cd
Cd     0.29989  0.29989  0.29989    Cd
Cd     0.29989  0.70011  0.70011    Cd
Cd     0.29989  0.79989  0.79989    Cd
N       0.3018    0.198   0.1107     N
N       0.3018    0.302   0.3893     N
N       0.3018    0.698   0.6107     N
N       0.3018    0.802   0.8893     N
N        0.302   0.1107   0.1982     N
N        0.302   0.3893   0.3018     N
N        0.302   0.6107   0.6982     N
N        0.302   0.8893   0.8018     N
C        0.304   0.0757   0.1574     C
C        0.304   0.4243   0.3426     C
C        0.304   0.5757   0.6574     C
C        0.304   0.9243   0.8426     C
H       0.3082   0.1652   0.9319     H
C       0.3082    0.178    0.515     C
C       0.3082    0.322    0.985     C
H       0.3082   0.3348   0.5681     H
H       0.3082   0.6652   0.4319     H
C       0.3082    0.678    0.015     C
C       0.3082    0.822    0.485     C
H       0.3082   0.8348   0.0681     H
C        0.311   0.0766   0.2379     C
C        0.311   0.4234   0.2621     C
C        0.311   0.5766   0.7379     C
C        0.311   0.9234   0.7621     C
C       0.3134   0.0277   0.1715     C
C       0.3134   0.4723   0.3285     C
C       0.3134   0.5277   0.6715     C
C       0.3134   0.9723   0.8285     C
H       0.3136   0.0874   0.2737     H
H       0.3136   0.4126   0.2263     H
H       0.3136   0.5874   0.7737     H
H       0.3136   0.9126   0.7263     H
C        0.314   0.1569   0.6073     C
C        0.314   0.3431   0.8927     C
C        0.314   0.6569   0.1073     C
C        0.314   0.8431   0.3927     C
H       0.3145   0.0176   0.3249     H
H       0.3145   0.4824   0.1751     H
H       0.3145   0.5176   0.8249     H
H       0.3145   0.9824   0.6751     H
N       0.3159    0.027   0.2229     N
N       0.3159    0.473   0.2771     N
N       0.3159    0.527   0.7229     N
N       0.3159    0.973   0.7771     N
H       0.3176   0.0016   0.8513     H
H       0.3176   0.4984   0.6487     H
H       0.3176   0.5016   0.3513     H
H       0.3176   0.9984   0.1487     H
C        0.322    0.015   0.6918     C
C        0.322    0.485   0.8082     C
C        0.322    0.515   0.1918     C
C        0.322    0.985   0.3082     C
C        0.323   0.0182   0.7464     C
C        0.323   0.4818   0.7536     C
C        0.323   0.5182   0.2464     C
C        0.323   0.9818   0.2536     C
H       0.3249   0.1855   0.4824     H
H       0.3249   0.3145   0.0176     H
H       0.3249   0.6855   0.9824     H
H       0.3249   0.8145   0.5176     H
C       0.3285   0.1866   0.0277     C
C       0.3285   0.3134   0.4723     C
C       0.3285   0.6866   0.5277     C
C       0.3285   0.8134   0.9723     C
H       0.3313   0.0574   0.6242     H
H       0.3313   0.4426   0.8758     H
H       0.3313   0.5574   0.1242     H
H       0.3313   0.9426   0.3758     H
C        0.332   0.0596   0.6616     C
C        0.332   0.4404   0.8384     C
C        0.332   0.5596   0.1616     C
C        0.332   0.9404   0.3384     C
C       0.3341   0.0659   0.7708     C
C       0.3341   0.4341   0.7292     C
C       0.3341   0.5659   0.2708     C
C       0.3341   0.9341   0.2292     C
H       0.3348   0.0681   0.8082     H
H       0.3348   0.4319   0.6918     H
H       0.3348   0.5681   0.3082     H
H       0.3348   0.9319   0.1918     H
C       0.3384    0.168   0.5596     C
C       0.3384    0.332   0.9404     C
C       0.3384    0.668   0.0596     C
C       0.3384    0.832   0.4404     C
C       0.3426    0.196   0.0757     C
C       0.3426    0.304   0.4243     C
C       0.3426    0.696   0.5757     C
C       0.3426    0.804   0.9243     C
C       0.3431   0.1073    0.686     C
C       0.3431   0.3927    0.814     C
C       0.3431   0.6073    0.186     C
C       0.3431   0.8927    0.314     C
C       0.3441   0.1105   0.7407     C
C       0.3441   0.3895   0.7593     C
C       0.3441   0.6105   0.2407     C
C       0.3441   0.8895   0.2593     C
N       0.3447   0.1553   0.6553     N
N       0.3447   0.3447   0.8447     N
N       0.3447   0.6553   0.1553     N
N       0.3447   0.8447   0.3447     N
H       0.3513   0.1824   0.9984     H
H       0.3513   0.3176   0.5016     H
H       0.3513   0.6824   0.4984     H
H       0.3513   0.8176   0.0016     H
H       0.3517   0.1431   0.7574     H
H       0.3517   0.3569   0.7426     H
H       0.3517   0.6431   0.2574     H
H       0.3517   0.8569   0.2426     H
H       0.3569   0.2426   0.8517     H
H       0.3569   0.2574   0.6483     H
H       0.3569   0.7426   0.3517     H
H       0.3569   0.7574   0.1483     H
H       0.3758   0.1687   0.5574     H
H       0.3758   0.3313   0.9426     H
H       0.3758   0.6687   0.0574     H
H       0.3758   0.8313   0.4426     H
H       0.3783    0.201   0.0858     H
H       0.3783    0.299   0.4142     H
H       0.3783    0.701   0.5858     H
H       0.3783    0.799   0.9142     H
N       0.3893   0.1982    0.198     N
N       0.3893   0.3018    0.302     N
N       0.3893   0.6982    0.698     N
N       0.3893   0.8018    0.802     N
C       0.3895   0.2407   0.6559     C
C       0.3895   0.2593   0.8441     C
C       0.3895   0.7407   0.1559     C
C       0.3895   0.7593   0.3441     C
C       0.3927    0.186   0.6569     C
C       0.3927    0.314   0.8431     C
C       0.3927    0.686   0.1569     C
C       0.3927    0.814   0.3431     C
H       0.4126   0.2263   0.3136     H
H       0.4126   0.2737   0.1864     H
H       0.4126   0.7263   0.8136     H
H       0.4126   0.7737   0.6864     H
H       0.4142   0.1217    0.201     H
H       0.4142   0.3783    0.299     H
H       0.4142   0.6217    0.701     H
H       0.4142   0.8783    0.799     H
C       0.4234   0.2379    0.189     C
C       0.4234   0.2621    0.311     C
C       0.4234   0.7379    0.689     C
C       0.4234   0.7621    0.811     C
C       0.4243   0.1574    0.196     C
C       0.4243   0.3426    0.304     C
C       0.4243   0.6574    0.696     C
C       0.4243   0.8426    0.804     C
H       0.4319   0.1918   0.8348     H
H       0.4319   0.3082   0.6652     H
H       0.4319   0.6918   0.3348     H
H       0.4319   0.8082   0.1652     H
C       0.4341   0.2292   0.8341     C
C       0.4341   0.2708   0.6659     C
C       0.4341   0.7292   0.3341     C
C       0.4341   0.7708   0.1659     C
C       0.4404   0.1616    0.668     C
C       0.4404   0.3384    0.832     C
C       0.4404   0.6616    0.168     C
C       0.4404   0.8384    0.332     C
H       0.4426   0.1242   0.6687     H
H       0.4426   0.3758   0.8313     H
H       0.4426   0.6242   0.1687     H
H       0.4426   0.8758   0.3313     H
C       0.4723   0.1715   0.1866     C
C       0.4723   0.3285   0.3134     C
C       0.4723   0.6715   0.6866     C
C       0.4723   0.8285   0.8134     C
N        0.473   0.2229   0.1841     N
N        0.473   0.2771   0.3159     N
N        0.473   0.7229   0.6841     N
N        0.473   0.7771   0.8159     N
C       0.4818   0.2464    0.677     C
C       0.4818   0.2536    0.823     C
C       0.4818   0.7464    0.177     C
C       0.4818   0.7536    0.323     C
H       0.4824   0.1751   0.3145     H
H       0.4824   0.3249   0.1855     H
H       0.4824   0.6751   0.8145     H
H       0.4824   0.8249   0.6855     H
C        0.485   0.1918    0.678     C
C        0.485   0.3082    0.822     C
C        0.485   0.6918    0.178     C
C        0.485   0.8082    0.322     C
H       0.4984   0.1487   0.8176     H
H       0.4984   0.3513   0.6824     H
H       0.4984   0.6487   0.3176     H
H       0.4984   0.8513   0.1824     H
H       0.5016   0.1487   0.1824     H
H       0.5016   0.3513   0.3176     H
H       0.5016   0.6487   0.6824     H
H       0.5016   0.8513   0.8176     H
C        0.515   0.1918    0.322     C
C        0.515   0.3082    0.178     C
C        0.515   0.6918    0.822     C
C        0.515   0.8082    0.678     C
H       0.5176   0.1751   0.6855     H
H       0.5176   0.3249   0.8145     H
H       0.5176   0.6751   0.1855     H
H       0.5176   0.8249   0.3145     H
C       0.5182   0.2464    0.323     C
C       0.5182   0.2536    0.177     C
C       0.5182   0.7464    0.823     C
C       0.5182   0.7536    0.677     C
N        0.527   0.2229   0.8159     N
N        0.527   0.2771   0.6841     N
N        0.527   0.7229   0.3159     N
N        0.527   0.7771   0.1841     N
C       0.5277   0.1715   0.8134     C
C       0.5277   0.3285   0.6866     C
C       0.5277   0.6715   0.3134     C
C       0.5277   0.8285   0.1866     C
H       0.5574   0.1242   0.3313     H
H       0.5574   0.3758   0.1687     H
H       0.5574   0.6242   0.8313     H
H       0.5574   0.8758   0.6687     H
C       0.5596   0.1616    0.332     C
C       0.5596   0.3384    0.168     C
C       0.5596   0.6616    0.832     C
C       0.5596   0.8384    0.668     C
C       0.5659   0.2292   0.1659     C
C       0.5659   0.2708   0.3341     C
C       0.5659   0.7292   0.6659     C
C       0.5659   0.7708   0.8341     C
H       0.5681   0.1918   0.1652     H
H       0.5681   0.3082   0.3348     H
H       0.5681   0.6918   0.6652     H
H       0.5681   0.8082   0.8348     H
C       0.5757   0.1574    0.804     C
C       0.5757   0.3426    0.696     C
C       0.5757   0.6574    0.304     C
C       0.5757   0.8426    0.196     C
C       0.5766   0.2379    0.811     C
C       0.5766   0.2621    0.689     C
C       0.5766   0.7379    0.311     C
C       0.5766   0.7621    0.189     C
H       0.5858   0.1217    0.799     H
H       0.5858   0.3783    0.701     H
H       0.5858   0.6217    0.299     H
H       0.5858   0.8783    0.201     H
H       0.5874   0.2263   0.6864     H
H       0.5874   0.2737   0.8136     H
H       0.5874   0.7263   0.1864     H
H       0.5874   0.7737   0.3136     H
C       0.6073    0.186   0.3431     C
C       0.6073    0.314   0.1569     C
C       0.6073    0.686   0.8431     C
C       0.6073    0.814   0.6569     C
C       0.6105   0.2407   0.3441     C
C       0.6105   0.2593   0.1559     C
C       0.6105   0.7407   0.8441     C
C       0.6105   0.7593   0.6559     C
N       0.6107   0.1982    0.802     N
N       0.6107   0.3018    0.698     N
N       0.6107   0.6982    0.302     N
N       0.6107   0.8018    0.198     N
H       0.6217    0.201   0.9142     H
H       0.6217    0.299   0.5858     H
H       0.6217    0.701   0.4142     H
H       0.6217    0.799   0.0858     H
H       0.6242   0.1687   0.4426     H
H       0.6242   0.3313   0.0574     H
H       0.6242   0.6687   0.9426     H
H       0.6242   0.8313   0.5574     H
H       0.6431   0.2426   0.1483     H
H       0.6431   0.2574   0.3517     H
H       0.6431   0.7426   0.6483     H
H       0.6431   0.7574   0.8517     H
H       0.6483   0.1431   0.2426     H
H       0.6483   0.3569   0.2574     H
H       0.6483   0.6431   0.7426     H
H       0.6483   0.8569   0.7574     H
H       0.6487   0.1824   0.0016     H
H       0.6487   0.3176   0.4984     H
H       0.6487   0.6824   0.5016     H
H       0.6487   0.8176   0.9984     H
N       0.6553   0.1553   0.3447     N
N       0.6553   0.3447   0.1553     N
N       0.6553   0.6553   0.8447     N
N       0.6553   0.8447   0.6553     N
C       0.6559   0.1105   0.2593     C
C       0.6559   0.3895   0.2407     C
C       0.6559   0.6105   0.7593     C
C       0.6559   0.8895   0.7407     C
C       0.6569   0.1073    0.314     C
C       0.6569   0.3927    0.186     C
C       0.6569   0.6073    0.814     C
C       0.6569   0.8927    0.686     C
C       0.6574    0.196   0.9243     C
C       0.6574    0.304   0.5757     C
C       0.6574    0.696   0.4243     C
C       0.6574    0.804   0.0757     C
C       0.6616    0.168   0.4404     C
C       0.6616    0.332   0.0596     C
C       0.6616    0.668   0.9404     C
C       0.6616    0.832   0.5596     C
H       0.6652   0.0681   0.1918     H
H       0.6652   0.4319   0.3082     H
H       0.6652   0.5681   0.6918     H
H       0.6652   0.9319   0.8082     H
C       0.6659   0.0659   0.2292     C
C       0.6659   0.4341   0.2708     C
C       0.6659   0.5659   0.7292     C
C       0.6659   0.9341   0.7708     C
C        0.668   0.0596   0.3384     C
C        0.668   0.4404   0.1616     C
C        0.668   0.5596   0.8384     C
C        0.668   0.9404   0.6616     C
H       0.6687   0.0574   0.3758     H
H       0.6687   0.4426   0.1242     H
H       0.6687   0.5574   0.8758     H
H       0.6687   0.9426   0.6242     H
C       0.6715   0.1866   0.9723     C
C       0.6715   0.3134   0.5277     C
C       0.6715   0.6866   0.4723     C
C       0.6715   0.8134   0.0277     C
H       0.6751   0.1855   0.5176     H
H       0.6751   0.3145   0.9824     H
H       0.6751   0.6855   0.0176     H
H       0.6751   0.8145   0.4824     H
C        0.677   0.0182   0.2536     C
C        0.677   0.4818   0.2464     C
C        0.677   0.5182   0.7536     C
C        0.677   0.9818   0.7464     C
C        0.678    0.015   0.3082     C
C        0.678    0.485   0.1918     C
C        0.678    0.515   0.8082     C
C        0.678    0.985   0.6918     C
H       0.6824   0.0016   0.1487     H
H       0.6824   0.4984   0.3513     H
H       0.6824   0.5016   0.6487     H
H       0.6824   0.9984   0.8513     H
N       0.6841    0.027   0.7771     N
N       0.6841    0.473   0.7229     N
N       0.6841    0.527   0.2771     N
N       0.6841    0.973   0.2229     N
H       0.6855   0.0176   0.6751     H
H       0.6855   0.4824   0.8249     H
H       0.6855   0.5176   0.1751     H
H       0.6855   0.9824   0.3249     H
C        0.686   0.1569   0.3927     C
C        0.686   0.3431   0.1073     C
C        0.686   0.6569   0.8927     C
C        0.686   0.8431   0.6073     C
H       0.6864   0.0874   0.7263     H
H       0.6864   0.4126   0.7737     H
H       0.6864   0.5874   0.2263     H
H       0.6864   0.9126   0.2737     H
C       0.6866   0.0277   0.8285     C
C       0.6866   0.4723   0.6715     C
C       0.6866   0.5277   0.3285     C
C       0.6866   0.9723   0.1715     C
C        0.689   0.0766   0.7621     C
C        0.689   0.4234   0.7379     C
C        0.689   0.5766   0.2621     C
C        0.689   0.9234   0.2379     C
H       0.6918   0.1652   0.0681     H
C       0.6918    0.178    0.485     C
C       0.6918    0.322    0.015     C
H       0.6918   0.3348   0.4319     H
H       0.6918   0.6652   0.5681     H
C       0.6918    0.678    0.985     C
C       0.6918    0.822    0.515     C
H       0.6918   0.8348   0.9319     H
C        0.696   0.0757   0.8426     C
C        0.696   0.4243   0.6574     C
C        0.696   0.5757   0.3426     C
C        0.696   0.9243   0.1574     C
N        0.698   0.1107   0.8018     N
N        0.698   0.3893   0.6982     N
N        0.698   0.6107   0.3018     N
N        0.698   0.8893   0.1982     N
N       0.6982    0.198   0.8893     N
N       0.6982    0.302   0.6107     N
N       0.6982    0.698   0.3893     N
N       0.6982    0.802   0.1107     N
Cd     0.70011  0.20011  0.79989    Cd
Cd     0.70011  0.29989  0.70011    Cd
Cd     0.70011  0.70011  0.29989    Cd
Cd     0.70011  0.79989  0.20011    Cd
H        0.701   0.0858   0.8783     H
H        0.701   0.4142   0.6217     H
H        0.701   0.5858   0.3783     H
H        0.701   0.9142   0.1217     H
N       0.7229   0.1841    0.973     N
N       0.7229   0.3159    0.527     N
N       0.7229   0.6841    0.473     N
N       0.7229   0.8159    0.027     N
H       0.7263   0.1864   0.5874     H
H       0.7263   0.3136   0.9126     H
H       0.7263   0.6864   0.0874     H
H       0.7263   0.8136   0.4126     H
C       0.7292   0.1659   0.0659     C
C       0.7292   0.3341   0.4341     C
C       0.7292   0.6659   0.5659     C
C       0.7292   0.8341   0.9341     C
C       0.7379    0.189   0.9234     C
C       0.7379    0.311   0.5766     C
C       0.7379    0.689   0.4234     C
C       0.7379    0.811   0.0766     C
C       0.7407   0.1559   0.3895     C
C       0.7407   0.3441   0.1105     C
C       0.7407   0.6559   0.8895     C
C       0.7407   0.8441   0.6105     C
H       0.7426   0.1483   0.1431     H
H       0.7426   0.3517   0.3569     H
H       0.7426   0.6483   0.6431     H
H       0.7426   0.8517   0.8569     H
C       0.7464    0.177   0.4818     C
C       0.7464    0.323   0.0182     C
C       0.7464    0.677   0.9818     C
C       0.7464    0.823   0.5182     C
C       0.7536    0.177   0.0182     C
C       0.7536    0.323   0.4818     C
C       0.7536    0.677   0.5182     C
C       0.7536    0.823   0.9818     C
H       0.7574   0.1483   0.3569     H
H       0.7574   0.3517   0.1431     H
H       0.7574   0.6483   0.8569     H
H       0.7574   0.8517   0.6431     H
C       0.7593   0.1559   0.1105     C
C       0.7593   0.3441   0.3895     C
C       0.7593   0.6559   0.6105     C
C       0.7593   0.8441   0.8895     C
C       0.7621    0.189   0.5766     C
C       0.7621    0.311   0.9234     C
C       0.7621    0.689   0.0766     C
C       0.7621    0.811   0.4234     C
C       0.7708   0.1659   0.4341     C
C       0.7708   0.3341   0.0659     C
C       0.7708   0.6659   0.9341     C
C       0.7708   0.8341   0.5659     C
H       0.7737   0.1864   0.9126     H
H       0.7737   0.3136   0.5874     H
H       0.7737   0.6864   0.4126     H
H       0.7737   0.8136   0.0874     H
N       0.7771   0.1841    0.527     N
N       0.7771   0.3159    0.973     N
N       0.7771   0.6841    0.027     N
N       0.7771   0.8159    0.473     N
H        0.799   0.0858   0.6217     H
H        0.799   0.4142   0.8783     H
H        0.799   0.5858   0.1217     H
H        0.799   0.9142   0.3783     H
Cd     0.79989  0.20011  0.70011    Cd
Cd     0.79989  0.29989  0.79989    Cd
Cd     0.79989  0.70011  0.20011    Cd
Cd     0.79989  0.79989  0.29989    Cd
N       0.8018    0.198   0.6107     N
N       0.8018    0.302   0.8893     N
N       0.8018    0.698   0.1107     N
N       0.8018    0.802   0.3893     N
N        0.802   0.1107   0.6982     N
N        0.802   0.3893   0.8018     N
N        0.802   0.6107   0.1982     N
N        0.802   0.8893   0.3018     N
C        0.804   0.0757   0.6574     C
C        0.804   0.4243   0.8426     C
C        0.804   0.5757   0.1574     C
C        0.804   0.9243   0.3426     C
H       0.8082   0.1652   0.4319     H
C       0.8082    0.178    0.015     C
C       0.8082    0.322    0.485     C
H       0.8082   0.3348   0.0681     H
H       0.8082   0.6652   0.9319     H
C       0.8082    0.678    0.515     C
C       0.8082    0.822    0.985     C
H       0.8082   0.8348   0.5681     H
C        0.811   0.0766   0.7379     C
C        0.811   0.4234   0.7621     C
C        0.811   0.5766   0.2379     C
C        0.811   0.9234   0.2621     C
C       0.8134   0.0277   0.6715     C
C       0.8134   0.4723   0.8285     C
C       0.8134   0.5277   0.1715     C
C       0.8134   0.9723   0.3285     C
H       0.8136   0.0874   0.7737     H
H       0.8136   0.4126   0.7263     H
H       0.8136   0.5874   0.2737     H
H       0.8136   0.9126   0.2263     H
C        0.814   0.1569   0.1073     C
C        0.814   0.3431   0.3927     C
C        0.814   0.6569   0.6073     C
C        0.814   0.8431   0.8927     C
H       0.8145   0.0176   0.8249     H
H       0.8145   0.4824   0.6751     H
H       0.8145   0.5176   0.3249     H
H       0.8145   0.9824   0.1751     H
N       0.8159    0.027   0.7229     N
N       0.8159    0.473   0.7771     N
N       0.8159    0.527   0.2229     N
N       0.8159    0.973   0.2771     N
H       0.8176   0.0016   0.3513     H
H       0.8176   0.4984   0.1487     H
H       0.8176   0.5016   0.8513     H
H       0.8176   0.9984   0.6487     H
C        0.822    0.015   0.1918     C
C        0.822    0.485   0.3082     C
C        0.822    0.515   0.6918     C
C        0.822    0.985   0.8082     C
C        0.823   0.0182   0.2464     C
C        0.823   0.4818   0.2536     C
C        0.823   0.5182   0.7464     C
C        0.823   0.9818   0.7536     C
H       0.8249   0.1855   0.9824     H
H       0.8249   0.3145   0.5176     H
H       0.8249   0.6855   0.4824     H
H       0.8249   0.8145   0.0176     H
C       0.8285   0.1866   0.5277     C
C       0.8285   0.3134   0.9723     C
C       0.8285   0.6866   0.0277     C
C       0.8285   0.8134   0.4723     C
H       0.8313   0.0574   0.1242     H
H       0.8313   0.4426   0.3758     H
H       0.8313   0.5574   0.6242     H
H       0.8313   0.9426   0.8758     H
C        0.832   0.0596   0.1616     C
C        0.832   0.4404   0.3384     C
C        0.832   0.5596   0.6616     C
C        0.832   0.9404   0.8384     C
C       0.8341   0.0659   0.2708     C
C       0.8341   0.4341   0.2292     C
C       0.8341   0.5659   0.7708     C
C       0.8341   0.9341   0.7292     C
H       0.8348   0.0681   0.3082     H
H       0.8348   0.4319   0.1918     H
H       0.8348   0.5681   0.8082     H
H       0.8348   0.9319   0.6918     H
C       0.8384    0.168   0.0596     C
C       0.8384    0.332   0.4404     C
C       0.8384    0.668   0.5596     C
C       0.8384    0.832   0.9404     C
C       0.8426    0.196   0.5757     C
C       0.8426    0.304   0.9243     C
C       0.8426    0.696   0.0757     C
C       0.8426    0.804   0.4243     C
C       0.8431   0.1073    0.186     C
C       0.8431   0.3927    0.314     C
C       0.8431   0.6073    0.686     C
C       0.8431   0.8927    0.814     C
C       0.8441   0.1105   0.2407     C
C       0.8441   0.3895   0.2593     C
C       0.8441   0.6105   0.7407     C
C       0.8441   0.8895   0.7593     C
N       0.8447   0.1553   0.1553     N
N       0.8447   0.3447   0.3447     N
N       0.8447   0.6553   0.6553     N
N       0.8447   0.8447   0.8447     N
H       0.8513   0.1824   0.4984     H
H       0.8513   0.3176   0.0016     H
H       0.8513   0.6824   0.9984     H
H       0.8513   0.8176   0.5016     H
H       0.8517   0.1431   0.2574     H
H       0.8517   0.3569   0.2426     H
H       0.8517   0.6431   0.7574     H
H       0.8517   0.8569   0.7426     H
H       0.8569   0.2426   0.3517     H
H       0.8569   0.2574   0.1483     H
H       0.8569   0.7426   0.8517     H
H       0.8569   0.7574   0.6483     H
H       0.8758   0.1687   0.0574     H
H       0.8758   0.3313   0.4426     H
H       0.8758   0.6687   0.5574     H
H       0.8758   0.8313   0.9426     H
H       0.8783    0.201   0.5858     H
H       0.8783    0.299   0.9142     H
H       0.8783    0.701   0.0858     H
H       0.8783    0.799   0.4142     H
N       0.8893   0.1982    0.698     N
N       0.8893   0.3018    0.802     N
N       0.8893   0.6982    0.198     N
N       0.8893   0.8018    0.302     N
C       0.8895   0.2407   0.1559     C
C       0.8895   0.2593   0.3441     C
C       0.8895   0.7407   0.6559     C
C       0.8895   0.7593   0.8441     C
C       0.8927    0.186   0.1569     C
C       0.8927    0.314   0.3431     C
C       0.8927    0.686   0.6569     C
C       0.8927    0.814   0.8431     C
H       0.9126   0.2263   0.8136     H
H       0.9126   0.2737   0.6864     H
H       0.9126   0.7263   0.3136     H
H       0.9126   0.7737   0.1864     H
H       0.9142   0.1217    0.701     H
H       0.9142   0.3783    0.799     H
H       0.9142   0.6217    0.201     H
H       0.9142   0.8783    0.299     H
C       0.9234   0.2379    0.689     C
C       0.9234   0.2621    0.811     C
C       0.9234   0.7379    0.189     C
C       0.9234   0.7621    0.311     C
C       0.9243   0.1574    0.696     C
C       0.9243   0.3426    0.804     C
C       0.9243   0.6574    0.196     C
C       0.9243   0.8426    0.304     C
H       0.9319   0.1918   0.3348     H
H       0.9319   0.3082   0.1652     H
H       0.9319   0.6918   0.8348     H
H       0.9319   0.8082   0.6652     H
C       0.9341   0.2292   0.3341     C
C       0.9341   0.2708   0.1659     C
C       0.9341   0.7292   0.8341     C
C       0.9341   0.7708   0.6659     C
C       0.9404   0.1616    0.168     C
C       0.9404   0.3384    0.332     C
C       0.9404   0.6616    0.668     C
C       0.9404   0.8384    0.832     C
H       0.9426   0.1242   0.1687     H
H       0.9426   0.3758   0.3313     H
H       0.9426   0.6242   0.6687     H
H       0.9426   0.8758   0.8313     H
C       0.9723   0.1715   0.6866     C
C       0.9723   0.3285   0.8134     C
C       0.9723   0.6715   0.1866     C
C       0.9723   0.8285   0.3134     C
N        0.973   0.2229   0.6841     N
N        0.973   0.2771   0.8159     N
N        0.973   0.7229   0.1841     N
N        0.973   0.7771   0.3159     N
C       0.9818   0.2464    0.177     C
C       0.9818   0.2536    0.323     C
C       0.9818   0.7464    0.677     C
C       0.9818   0.7536    0.823     C
H       0.9824   0.1751   0.8145     H
H       0.9824   0.3249   0.6855     H
H       0.9824   0.6751   0.3145     H
H       0.9824   0.8249   0.1855     H
C        0.985   0.1918    0.178     C
C        0.985   0.3082    0.322     C
C        0.985   0.6918    0.678     C
C        0.985   0.8082    0.822     C
H       0.9984   0.1487   0.3176     H
H       0.9984   0.3513   0.1824     H
H       0.9984   0.6487   0.8176     H
H       0.9984   0.8513   0.6824     H
