data_I
_chemical_name_common  '/home/zhangsd/repos/MofS-CGCNN/ML/data/SSD/clean_cifs/VIWMOF_clean'
_cell_length_a 25.70400
_cell_length_b 25.70400
_cell_length_c 25.70400
_cell_angle_alpha 90.00000
_cell_angle_beta  90.00000
_cell_angle_gamma 90.00000
_space_group_name_H-M_alt      'P 1'


loop_
_space_group_symop_operation_xyz
  'x, y, z' 

loop_
_atom_site_label
_atom_site_fract_x
_atom_site_fract_y
_atom_site_fract_z
_atom_site_type_symbol
H       0.0013   0.1438   0.6963     H
H       0.0013   0.3562   0.8037     H
H       0.0013   0.6438   0.1963     H
H       0.0013   0.8562   0.3037     H
H       0.0134   0.1822   0.8072     H
H       0.0134   0.3178   0.6928     H
H       0.0134   0.6822   0.3072     H
H       0.0134   0.8178   0.1928     H
C       0.0176   0.1976   0.1821     C
C       0.0176   0.3024   0.3179     C
C       0.0176   0.6976   0.6821     C
C       0.0176   0.8024   0.8179     C
C       0.0214    0.248   0.1746     C
C       0.0214    0.252   0.3254     C
C       0.0214    0.748   0.6746     C
C       0.0214    0.752   0.8254     C
N       0.0255   0.2212   0.6825     N
N       0.0255   0.2788   0.8175     N
N       0.0255   0.7212   0.1825     N
N       0.0255   0.7788   0.3175     N
C       0.0291   0.1667    0.693     C
C       0.0291   0.3333    0.807     C
C       0.0291   0.6667    0.193     C
C       0.0291   0.8333    0.307     C
H       0.0651   0.1299    0.176     H
H       0.0651   0.3701    0.324     H
H       0.0651   0.6299    0.676     H
H       0.0651   0.8701    0.824     H
C        0.066   0.1659   0.1726     C
C        0.066   0.3341   0.3274     C
C        0.066   0.6659   0.6726     C
C        0.066   0.8341   0.8274     C
C       0.0692   0.2291   0.3342     C
C       0.0692   0.2709   0.1658     C
C       0.0692   0.7291   0.8342     C
C       0.0692   0.7709   0.6658     C
H       0.0727   0.1931   0.3341     H
H       0.0727   0.3069   0.1659     H
H       0.0727   0.6931   0.8341     H
H       0.0727   0.8069   0.6659     H
C       0.0765   0.2359   0.6877     C
C       0.0765   0.2641   0.8123     C
C       0.0765   0.7359   0.1877     C
C       0.0765   0.7641   0.3123     C
C       0.0767   0.1552    0.697     C
C       0.0767   0.3448    0.803     C
C       0.0767   0.6552    0.197     C
C       0.0767   0.8448    0.303     C
H       0.0875   0.2297   0.8148     H
H       0.0875   0.2703   0.6852     H
H       0.0875   0.7297   0.3148     H
H       0.0875   0.7703   0.1852     H
H       0.0888   0.1212   0.7001     H
H       0.0888   0.3788   0.7999     H
H       0.0888   0.6212   0.2001     H
H       0.0888   0.8788   0.2999     H
C       0.1073   0.1881   0.1602     C
C       0.1073   0.3119   0.3398     C
C       0.1073   0.6881   0.6602     C
C       0.1073   0.8119   0.8398     C
N       0.1083   0.1971   0.6965     N
N       0.1083   0.3029   0.8035     N
N       0.1083   0.6971   0.1965     N
N       0.1083   0.8029   0.3035     N
C       0.1106   0.2402   0.1572     C
C       0.1106   0.2598   0.3428     C
C       0.1106   0.7402   0.6572     C
C       0.1106   0.7598   0.8428     C
H       0.1212   0.2001   0.5888     H
H       0.1212   0.2999   0.9112     H
H       0.1212   0.7001   0.0888     H
H       0.1212   0.7999   0.4112     H
H       0.1299    0.176   0.0651     H
H       0.1299    0.324   0.4349     H
H       0.1299    0.676   0.5651     H
H       0.1299    0.824   0.9349     H
H       0.1424   0.2446   0.3511     H
H       0.1424   0.2554   0.1489     H
H       0.1424   0.7446   0.8511     H
H       0.1424   0.7554   0.6489     H
H       0.1438   0.1963   0.5013     H
H       0.1438   0.3037   0.9987     H
H       0.1438   0.6963   0.0013     H
H       0.1438   0.8037   0.4987     H
H       0.1489   0.1424   0.2554     H
H       0.1489   0.3576   0.2446     H
H       0.1489   0.6424   0.7554     H
H       0.1489   0.8576   0.7446     H
C       0.1552    0.197   0.5767     C
C       0.1552    0.303   0.9233     C
C       0.1552    0.697   0.0767     C
C       0.1552    0.803   0.4233     C
N       0.1568   0.1568   0.1568     N
N       0.1568   0.3432   0.3432     N
N       0.1568   0.6568   0.6568     N
N       0.1568   0.8432   0.8432     N
C       0.1572   0.1106   0.2402     C
C       0.1572   0.3894   0.2598     C
C       0.1572   0.6106   0.7402     C
C       0.1572   0.8894   0.7598     C
C       0.1602   0.1073   0.1881     C
C       0.1602   0.3927   0.3119     C
C       0.1602   0.6073   0.6881     C
C       0.1602   0.8927   0.8119     C
C       0.1658   0.0692   0.2709     C
C       0.1658   0.4308   0.2291     C
C       0.1658   0.5692   0.7709     C
C       0.1658   0.9308   0.7291     C
H       0.1659   0.0727   0.3069     H
C       0.1659   0.1726    0.066     C
C       0.1659   0.3274    0.434     C
H       0.1659   0.4273   0.1931     H
H       0.1659   0.5727   0.8069     H
C       0.1659   0.6726    0.566     C
C       0.1659   0.8274    0.934     C
H       0.1659   0.9273   0.6931     H
C       0.1667    0.193   0.5291     C
C       0.1667    0.307   0.9709     C
C       0.1667    0.693   0.0291     C
C       0.1667    0.807   0.4709     C
C       0.1726    0.066   0.1659     C
C       0.1726    0.434   0.3341     C
C       0.1726    0.566   0.6659     C
C       0.1726    0.934   0.8341     C
C       0.1746   0.0214    0.248     C
C       0.1746   0.4786    0.252     C
C       0.1746   0.5214    0.748     C
C       0.1746   0.9786    0.752     C
H        0.176   0.0651   0.1299     H
H        0.176   0.4349   0.3701     H
H        0.176   0.5651   0.6299     H
H        0.176   0.9349   0.8701     H
C       0.1821   0.0176   0.1976     C
C       0.1821   0.4824   0.3024     C
C       0.1821   0.5176   0.6976     C
C       0.1821   0.9824   0.8024     C
H       0.1822   0.1928   0.9866     H
H       0.1822   0.3072   0.5134     H
H       0.1822   0.6928   0.4866     H
H       0.1822   0.8072   0.0134     H
N       0.1825   0.0255   0.7212     N
N       0.1825   0.4745   0.7788     N
N       0.1825   0.5255   0.2212     N
N       0.1825   0.9745   0.2788     N
H       0.1852   0.0875   0.7703     H
H       0.1852   0.4125   0.7297     H
H       0.1852   0.5875   0.2703     H
H       0.1852   0.9125   0.2297     H
C       0.1877   0.0765   0.7359     C
C       0.1877   0.4235   0.7641     C
C       0.1877   0.5765   0.2359     C
C       0.1877   0.9235   0.2641     C
C       0.1881   0.1602   0.1073     C
C       0.1881   0.3398   0.3927     C
C       0.1881   0.6602   0.6073     C
C       0.1881   0.8398   0.8927     C
H       0.1928   0.0134   0.8178     H
H       0.1928   0.4866   0.6822     H
H       0.1928   0.5134   0.3178     H
H       0.1928   0.9866   0.1822     H
C        0.193   0.0291   0.6667     C
C        0.193   0.4709   0.8333     C
C        0.193   0.5291   0.1667     C
C        0.193   0.9709   0.3333     C
H       0.1931   0.1659   0.4273     H
H       0.1931   0.3341   0.0727     H
H       0.1931   0.6659   0.9273     H
H       0.1931   0.8341   0.5727     H
H       0.1963   0.0013   0.6438     H
H       0.1963   0.4987   0.8562     H
H       0.1963   0.5013   0.1438     H
H       0.1963   0.9987   0.3562     H
N       0.1965   0.1083   0.6971     N
N       0.1965   0.3917   0.8029     N
N       0.1965   0.6083   0.1971     N
N       0.1965   0.8917   0.3029     N
C        0.197   0.0767   0.6552     C
C        0.197   0.4233   0.8448     C
C        0.197   0.5767   0.1552     C
C        0.197   0.9233   0.3448     C
N       0.1971   0.1965   0.6083     N
N       0.1971   0.3035   0.8917     N
N       0.1971   0.6965   0.1083     N
N       0.1971   0.8035   0.3917     N
C       0.1976   0.1821   0.0176     C
C       0.1976   0.3179   0.4824     C
C       0.1976   0.6821   0.5176     C
C       0.1976   0.8179   0.9824     C
Cd     0.19949  0.19949  0.69949    Cd
Cd     0.19949  0.30051  0.80051    Cd
Cd     0.19949  0.69949  0.19949    Cd
Cd     0.19949  0.80051  0.30051    Cd
H       0.2001   0.0888   0.6212     H
H       0.2001   0.4112   0.8788     H
H       0.2001   0.5888   0.1212     H
H       0.2001   0.9112   0.3788     H
N       0.2212   0.1825   0.5255     N
N       0.2212   0.3175   0.9745     N
N       0.2212   0.6825   0.0255     N
N       0.2212   0.8175   0.4745     N
C       0.2291   0.1658   0.4308     C
C       0.2291   0.3342   0.0692     C
C       0.2291   0.6658   0.9308     C
C       0.2291   0.8342   0.5692     C
H       0.2297   0.1852   0.9125     H
H       0.2297   0.3148   0.5875     H
H       0.2297   0.6852   0.4125     H
H       0.2297   0.8148   0.0875     H
C       0.2359   0.1877   0.5765     C
C       0.2359   0.3123   0.9235     C
C       0.2359   0.6877   0.0765     C
C       0.2359   0.8123   0.4235     C
C       0.2402   0.1572   0.1106     C
C       0.2402   0.3428   0.3894     C
C       0.2402   0.6572   0.6106     C
C       0.2402   0.8428   0.8894     C
H       0.2446   0.1489   0.3576     H
H       0.2446   0.3511   0.1424     H
H       0.2446   0.6489   0.8576     H
H       0.2446   0.8511   0.6424     H
C        0.248   0.1746   0.0214     C
C        0.248   0.3254   0.4786     C
C        0.248   0.6746   0.5214     C
C        0.248   0.8254   0.9786     C
C        0.252   0.1746   0.4786     C
C        0.252   0.3254   0.0214     C
C        0.252   0.6746   0.9786     C
C        0.252   0.8254   0.5214     C
H       0.2554   0.1489   0.1424     H
H       0.2554   0.3511   0.3576     H
H       0.2554   0.6489   0.6424     H
H       0.2554   0.8511   0.8576     H
C       0.2598   0.1572   0.3894     C
C       0.2598   0.3428   0.1106     C
C       0.2598   0.6572   0.8894     C
C       0.2598   0.8428   0.6106     C
C       0.2641   0.1877   0.9235     C
C       0.2641   0.3123   0.5765     C
C       0.2641   0.6877   0.4235     C
C       0.2641   0.8123   0.0765     C
H       0.2703   0.1852   0.5875     H
H       0.2703   0.3148   0.9125     H
H       0.2703   0.6852   0.0875     H
H       0.2703   0.8148   0.4125     H
C       0.2709   0.1658   0.0692     C
C       0.2709   0.3342   0.4308     C
C       0.2709   0.6658   0.5692     C
C       0.2709   0.8342   0.9308     C
N       0.2788   0.1825   0.9745     N
N       0.2788   0.3175   0.5255     N
N       0.2788   0.6825   0.4745     N
N       0.2788   0.8175   0.0255     N
H       0.2999   0.0888   0.8788     H
H       0.2999   0.4112   0.6212     H
H       0.2999   0.5888   0.3788     H
H       0.2999   0.9112   0.1212     H
Cd     0.30051  0.19949  0.80051    Cd
Cd     0.30051  0.30051  0.69949    Cd
Cd     0.30051  0.69949  0.30051    Cd
Cd     0.30051  0.80051  0.19949    Cd
C       0.3024   0.1821   0.4824     C
C       0.3024   0.3179   0.0176     C
C       0.3024   0.6821   0.9824     C
C       0.3024   0.8179   0.5176     C
N       0.3029   0.1965   0.8917     N
N       0.3029   0.3035   0.6083     N
N       0.3029   0.6965   0.3917     N
N       0.3029   0.8035   0.1083     N
C        0.303   0.0767   0.8448     C
C        0.303   0.4233   0.6552     C
C        0.303   0.5767   0.3448     C
C        0.303   0.9233   0.1552     C
N       0.3035   0.1083   0.8029     N
N       0.3035   0.3917   0.6971     N
N       0.3035   0.6083   0.3029     N
N       0.3035   0.8917   0.1971     N
H       0.3037   0.0013   0.8562     H
H       0.3037   0.4987   0.6438     H
H       0.3037   0.5013   0.3562     H
H       0.3037   0.9987   0.1438     H
H       0.3069   0.1659   0.0727     H
H       0.3069   0.3341   0.4273     H
H       0.3069   0.6659   0.5727     H
H       0.3069   0.8341   0.9273     H
C        0.307   0.0291   0.8333     C
C        0.307   0.4709   0.6667     C
C        0.307   0.5291   0.3333     C
C        0.307   0.9709   0.1667     C
H       0.3072   0.0134   0.6822     H
H       0.3072   0.4866   0.8178     H
H       0.3072   0.5134   0.1822     H
H       0.3072   0.9866   0.3178     H
C       0.3119   0.1602   0.3927     C
C       0.3119   0.3398   0.1073     C
C       0.3119   0.6602   0.8927     C
C       0.3119   0.8398   0.6073     C
C       0.3123   0.0765   0.7641     C
C       0.3123   0.4235   0.7359     C
C       0.3123   0.5765   0.2641     C
C       0.3123   0.9235   0.2359     C
H       0.3148   0.0875   0.7297     H
H       0.3148   0.4125   0.7703     H
H       0.3148   0.5875   0.2297     H
H       0.3148   0.9125   0.2703     H
N       0.3175   0.0255   0.7788     N
N       0.3175   0.4745   0.7212     N
N       0.3175   0.5255   0.2788     N
N       0.3175   0.9745   0.2212     N
H       0.3178   0.1928   0.5134     H
H       0.3178   0.3072   0.9866     H
H       0.3178   0.6928   0.0134     H
H       0.3178   0.8072   0.4866     H
C       0.3179   0.0176   0.3024     C
C       0.3179   0.4824   0.1976     C
C       0.3179   0.5176   0.8024     C
C       0.3179   0.9824   0.6976     C
H        0.324   0.0651   0.3701     H
H        0.324   0.4349   0.1299     H
H        0.324   0.5651   0.8701     H
H        0.324   0.9349   0.6299     H
C       0.3254   0.0214    0.252     C
C       0.3254   0.4786    0.248     C
C       0.3254   0.5214    0.752     C
C       0.3254   0.9786    0.748     C
C       0.3274    0.066   0.3341     C
C       0.3274    0.434   0.1659     C
C       0.3274    0.566   0.8341     C
C       0.3274    0.934   0.6659     C
C       0.3333    0.193   0.9709     C
C       0.3333    0.307   0.5291     C
C       0.3333    0.693   0.4709     C
C       0.3333    0.807   0.0291     C
H       0.3341   0.0727   0.1931     H
C       0.3341   0.1726    0.434     C
C       0.3341   0.3274    0.066     C
H       0.3341   0.4273   0.3069     H
H       0.3341   0.5727   0.6931     H
C       0.3341   0.6726    0.934     C
C       0.3341   0.8274    0.566     C
H       0.3341   0.9273   0.8069     H
C       0.3342   0.0692   0.2291     C
C       0.3342   0.4308   0.2709     C
C       0.3342   0.5692   0.7291     C
C       0.3342   0.9308   0.7709     C
C       0.3398   0.1073   0.3119     C
C       0.3398   0.3927   0.1881     C
C       0.3398   0.6073   0.8119     C
C       0.3398   0.8927   0.6881     C
C       0.3428   0.1106   0.2598     C
C       0.3428   0.3894   0.2402     C
C       0.3428   0.6106   0.7598     C
C       0.3428   0.8894   0.7402     C
N       0.3432   0.1568   0.3432     N
N       0.3432   0.3432   0.1568     N
N       0.3432   0.6568   0.8432     N
N       0.3432   0.8432   0.6568     N
C       0.3448    0.197   0.9233     C
C       0.3448    0.303   0.5767     C
C       0.3448    0.697   0.4233     C
C       0.3448    0.803   0.0767     C
H       0.3511   0.1424   0.2446     H
H       0.3511   0.3576   0.2554     H
H       0.3511   0.6424   0.7446     H
H       0.3511   0.8576   0.7554     H
H       0.3562   0.1963   0.9987     H
H       0.3562   0.3037   0.5013     H
H       0.3562   0.6963   0.4987     H
H       0.3562   0.8037   0.0013     H
H       0.3576   0.2446   0.1489     H
H       0.3576   0.2554   0.3511     H
H       0.3576   0.7446   0.6489     H
H       0.3576   0.7554   0.8511     H
H       0.3701    0.176   0.4349     H
H       0.3701    0.324   0.0651     H
H       0.3701    0.676   0.9349     H
H       0.3701    0.824   0.5651     H
H       0.3788   0.2001   0.9112     H
H       0.3788   0.2999   0.5888     H
H       0.3788   0.7001   0.4112     H
H       0.3788   0.7999   0.0888     H
C       0.3894   0.2402   0.3428     C
C       0.3894   0.2598   0.1572     C
C       0.3894   0.7402   0.8428     C
C       0.3894   0.7598   0.6572     C
N       0.3917   0.1971   0.8035     N
N       0.3917   0.3029   0.6965     N
N       0.3917   0.6971   0.3035     N
N       0.3917   0.8029   0.1965     N
C       0.3927   0.1881   0.3398     C
C       0.3927   0.3119   0.1602     C
C       0.3927   0.6881   0.8398     C
C       0.3927   0.8119   0.6602     C
H       0.4112   0.1212   0.7999     H
H       0.4112   0.3788   0.7001     H
H       0.4112   0.6212   0.2999     H
H       0.4112   0.8788   0.2001     H
H       0.4125   0.2297   0.6852     H
H       0.4125   0.2703   0.8148     H
H       0.4125   0.7297   0.1852     H
H       0.4125   0.7703   0.3148     H
C       0.4233   0.1552    0.803     C
C       0.4233   0.3448    0.697     C
C       0.4233   0.6552    0.303     C
C       0.4233   0.8448    0.197     C
C       0.4235   0.2359   0.8123     C
C       0.4235   0.2641   0.6877     C
C       0.4235   0.7359   0.3123     C
C       0.4235   0.7641   0.1877     C
H       0.4273   0.1931   0.1659     H
H       0.4273   0.3069   0.3341     H
H       0.4273   0.6931   0.6659     H
H       0.4273   0.8069   0.8341     H
C       0.4308   0.2291   0.1658     C
C       0.4308   0.2709   0.3342     C
C       0.4308   0.7291   0.6658     C
C       0.4308   0.7709   0.8342     C
C        0.434   0.1659   0.3274     C
C        0.434   0.3341   0.1726     C
C        0.434   0.6659   0.8274     C
C        0.434   0.8341   0.6726     C
H       0.4349   0.1299    0.324     H
H       0.4349   0.3701    0.176     H
H       0.4349   0.6299    0.824     H
H       0.4349   0.8701    0.676     H
C       0.4709   0.1667    0.807     C
C       0.4709   0.3333    0.693     C
C       0.4709   0.6667    0.307     C
C       0.4709   0.8333    0.193     C
N       0.4745   0.2212   0.8175     N
N       0.4745   0.2788   0.6825     N
N       0.4745   0.7212   0.3175     N
N       0.4745   0.7788   0.1825     N
C       0.4786    0.248   0.3254     C
C       0.4786    0.252   0.1746     C
C       0.4786    0.748   0.8254     C
C       0.4786    0.752   0.6746     C
C       0.4824   0.1976   0.3179     C
C       0.4824   0.3024   0.1821     C
C       0.4824   0.6976   0.8179     C
C       0.4824   0.8024   0.6821     C
H       0.4866   0.1822   0.6928     H
H       0.4866   0.3178   0.8072     H
H       0.4866   0.6822   0.1928     H
H       0.4866   0.8178   0.3072     H
H       0.4987   0.1438   0.8037     H
H       0.4987   0.3562   0.6963     H
H       0.4987   0.6438   0.3037     H
H       0.4987   0.8562   0.1963     H
H       0.5013   0.1438   0.1963     H
H       0.5013   0.3562   0.3037     H
H       0.5013   0.6438   0.6963     H
H       0.5013   0.8562   0.8037     H
H       0.5134   0.1822   0.3072     H
H       0.5134   0.3178   0.1928     H
H       0.5134   0.6822   0.8072     H
H       0.5134   0.8178   0.6928     H
C       0.5176   0.1976   0.6821     C
C       0.5176   0.3024   0.8179     C
C       0.5176   0.6976   0.1821     C
C       0.5176   0.8024   0.3179     C
C       0.5214    0.248   0.6746     C
C       0.5214    0.252   0.8254     C
C       0.5214    0.748   0.1746     C
C       0.5214    0.752   0.3254     C
N       0.5255   0.2212   0.1825     N
N       0.5255   0.2788   0.3175     N
N       0.5255   0.7212   0.6825     N
N       0.5255   0.7788   0.8175     N
C       0.5291   0.1667    0.193     C
C       0.5291   0.3333    0.307     C
C       0.5291   0.6667    0.693     C
C       0.5291   0.8333    0.807     C
H       0.5651   0.1299    0.676     H
H       0.5651   0.3701    0.824     H
H       0.5651   0.6299    0.176     H
H       0.5651   0.8701    0.324     H
C        0.566   0.1659   0.6726     C
C        0.566   0.3341   0.8274     C
C        0.566   0.6659   0.1726     C
C        0.566   0.8341   0.3274     C
C       0.5692   0.2291   0.8342     C
C       0.5692   0.2709   0.6658     C
C       0.5692   0.7291   0.3342     C
C       0.5692   0.7709   0.1658     C
H       0.5727   0.1931   0.8341     H
H       0.5727   0.3069   0.6659     H
H       0.5727   0.6931   0.3341     H
H       0.5727   0.8069   0.1659     H
C       0.5765   0.2359   0.1877     C
C       0.5765   0.2641   0.3123     C
C       0.5765   0.7359   0.6877     C
C       0.5765   0.7641   0.8123     C
C       0.5767   0.1552    0.197     C
C       0.5767   0.3448    0.303     C
C       0.5767   0.6552    0.697     C
C       0.5767   0.8448    0.803     C
H       0.5875   0.2297   0.3148     H
H       0.5875   0.2703   0.1852     H
H       0.5875   0.7297   0.8148     H
H       0.5875   0.7703   0.6852     H
H       0.5888   0.1212   0.2001     H
H       0.5888   0.3788   0.2999     H
H       0.5888   0.6212   0.7001     H
H       0.5888   0.8788   0.7999     H
C       0.6073   0.1881   0.6602     C
C       0.6073   0.3119   0.8398     C
C       0.6073   0.6881   0.1602     C
C       0.6073   0.8119   0.3398     C
N       0.6083   0.1971   0.1965     N
N       0.6083   0.3029   0.3035     N
N       0.6083   0.6971   0.6965     N
N       0.6083   0.8029   0.8035     N
C       0.6106   0.2402   0.6572     C
C       0.6106   0.2598   0.8428     C
C       0.6106   0.7402   0.1572     C
C       0.6106   0.7598   0.3428     C
H       0.6212   0.2001   0.0888     H
H       0.6212   0.2999   0.4112     H
H       0.6212   0.7001   0.5888     H
H       0.6212   0.7999   0.9112     H
H       0.6299    0.176   0.5651     H
H       0.6299    0.324   0.9349     H
H       0.6299    0.676   0.0651     H
H       0.6299    0.824   0.4349     H
H       0.6424   0.2446   0.8511     H
H       0.6424   0.2554   0.6489     H
H       0.6424   0.7446   0.3511     H
H       0.6424   0.7554   0.1489     H
H       0.6438   0.1963   0.0013     H
H       0.6438   0.3037   0.4987     H
H       0.6438   0.6963   0.5013     H
H       0.6438   0.8037   0.9987     H
H       0.6489   0.1424   0.7554     H
H       0.6489   0.3576   0.7446     H
H       0.6489   0.6424   0.2554     H
H       0.6489   0.8576   0.2446     H
C       0.6552    0.197   0.0767     C
C       0.6552    0.303   0.4233     C
C       0.6552    0.697   0.5767     C
C       0.6552    0.803   0.9233     C
N       0.6568   0.1568   0.6568     N
N       0.6568   0.3432   0.8432     N
N       0.6568   0.6568   0.1568     N
N       0.6568   0.8432   0.3432     N
C       0.6572   0.1106   0.7402     C
C       0.6572   0.3894   0.7598     C
C       0.6572   0.6106   0.2402     C
C       0.6572   0.8894   0.2598     C
C       0.6602   0.1073   0.6881     C
C       0.6602   0.3927   0.8119     C
C       0.6602   0.6073   0.1881     C
C       0.6602   0.8927   0.3119     C
C       0.6658   0.0692   0.7709     C
C       0.6658   0.4308   0.7291     C
C       0.6658   0.5692   0.2709     C
C       0.6658   0.9308   0.2291     C
H       0.6659   0.0727   0.8069     H
C       0.6659   0.1726    0.566     C
C       0.6659   0.3274    0.934     C
H       0.6659   0.4273   0.6931     H
H       0.6659   0.5727   0.3069     H
C       0.6659   0.6726    0.066     C
C       0.6659   0.8274    0.434     C
H       0.6659   0.9273   0.1931     H
C       0.6667    0.193   0.0291     C
C       0.6667    0.307   0.4709     C
C       0.6667    0.693   0.5291     C
C       0.6667    0.807   0.9709     C
C       0.6726    0.066   0.6659     C
C       0.6726    0.434   0.8341     C
C       0.6726    0.566   0.1659     C
C       0.6726    0.934   0.3341     C
C       0.6746   0.0214    0.748     C
C       0.6746   0.4786    0.752     C
C       0.6746   0.5214    0.248     C
C       0.6746   0.9786    0.252     C
H        0.676   0.0651   0.6299     H
H        0.676   0.4349   0.8701     H
H        0.676   0.5651   0.1299     H
H        0.676   0.9349   0.3701     H
C       0.6821   0.0176   0.6976     C
C       0.6821   0.4824   0.8024     C
C       0.6821   0.5176   0.1976     C
C       0.6821   0.9824   0.3024     C
H       0.6822   0.1928   0.4866     H
H       0.6822   0.3072   0.0134     H
H       0.6822   0.6928   0.9866     H
H       0.6822   0.8072   0.5134     H
N       0.6825   0.0255   0.2212     N
N       0.6825   0.4745   0.2788     N
N       0.6825   0.5255   0.7212     N
N       0.6825   0.9745   0.7788     N
H       0.6852   0.0875   0.2703     H
H       0.6852   0.4125   0.2297     H
H       0.6852   0.5875   0.7703     H
H       0.6852   0.9125   0.7297     H
C       0.6877   0.0765   0.2359     C
C       0.6877   0.4235   0.2641     C
C       0.6877   0.5765   0.7359     C
C       0.6877   0.9235   0.7641     C
C       0.6881   0.1602   0.6073     C
C       0.6881   0.3398   0.8927     C
C       0.6881   0.6602   0.1073     C
C       0.6881   0.8398   0.3927     C
H       0.6928   0.0134   0.3178     H
H       0.6928   0.4866   0.1822     H
H       0.6928   0.5134   0.8178     H
H       0.6928   0.9866   0.6822     H
C        0.693   0.0291   0.1667     C
C        0.693   0.4709   0.3333     C
C        0.693   0.5291   0.6667     C
C        0.693   0.9709   0.8333     C
H       0.6931   0.1659   0.9273     H
H       0.6931   0.3341   0.5727     H
H       0.6931   0.6659   0.4273     H
H       0.6931   0.8341   0.0727     H
H       0.6963   0.0013   0.1438     H
H       0.6963   0.4987   0.3562     H
H       0.6963   0.5013   0.6438     H
H       0.6963   0.9987   0.8562     H
N       0.6965   0.1083   0.1971     N
N       0.6965   0.3917   0.3029     N
N       0.6965   0.6083   0.6971     N
N       0.6965   0.8917   0.8029     N
C        0.697   0.0767   0.1552     C
C        0.697   0.4233   0.3448     C
C        0.697   0.5767   0.6552     C
C        0.697   0.9233   0.8448     C
N       0.6971   0.1965   0.1083     N
N       0.6971   0.3035   0.3917     N
N       0.6971   0.6965   0.6083     N
N       0.6971   0.8035   0.8917     N
C       0.6976   0.1821   0.5176     C
C       0.6976   0.3179   0.9824     C
C       0.6976   0.6821   0.0176     C
C       0.6976   0.8179   0.4824     C
Cd     0.69949  0.19949  0.19949    Cd
Cd     0.69949  0.30051  0.30051    Cd
Cd     0.69949  0.69949  0.69949    Cd
Cd     0.69949  0.80051  0.80051    Cd
H       0.7001   0.0888   0.1212     H
H       0.7001   0.4112   0.3788     H
H       0.7001   0.5888   0.6212     H
H       0.7001   0.9112   0.8788     H
N       0.7212   0.1825   0.0255     N
N       0.7212   0.3175   0.4745     N
N       0.7212   0.6825   0.5255     N
N       0.7212   0.8175   0.9745     N
C       0.7291   0.1658   0.9308     C
C       0.7291   0.3342   0.5692     C
C       0.7291   0.6658   0.4308     C
C       0.7291   0.8342   0.0692     C
H       0.7297   0.1852   0.4125     H
H       0.7297   0.3148   0.0875     H
H       0.7297   0.6852   0.9125     H
H       0.7297   0.8148   0.5875     H
C       0.7359   0.1877   0.0765     C
C       0.7359   0.3123   0.4235     C
C       0.7359   0.6877   0.5765     C
C       0.7359   0.8123   0.9235     C
C       0.7402   0.1572   0.6106     C
C       0.7402   0.3428   0.8894     C
C       0.7402   0.6572   0.1106     C
C       0.7402   0.8428   0.3894     C
H       0.7446   0.1489   0.8576     H
H       0.7446   0.3511   0.6424     H
H       0.7446   0.6489   0.3576     H
H       0.7446   0.8511   0.1424     H
C        0.748   0.1746   0.5214     C
C        0.748   0.3254   0.9786     C
C        0.748   0.6746   0.0214     C
C        0.748   0.8254   0.4786     C
C        0.752   0.1746   0.9786     C
C        0.752   0.3254   0.5214     C
C        0.752   0.6746   0.4786     C
C        0.752   0.8254   0.0214     C
H       0.7554   0.1489   0.6424     H
H       0.7554   0.3511   0.8576     H
H       0.7554   0.6489   0.1424     H
H       0.7554   0.8511   0.3576     H
C       0.7598   0.1572   0.8894     C
C       0.7598   0.3428   0.6106     C
C       0.7598   0.6572   0.3894     C
C       0.7598   0.8428   0.1106     C
C       0.7641   0.1877   0.4235     C
C       0.7641   0.3123   0.0765     C
C       0.7641   0.6877   0.9235     C
C       0.7641   0.8123   0.5765     C
H       0.7703   0.1852   0.0875     H
H       0.7703   0.3148   0.4125     H
H       0.7703   0.6852   0.5875     H
H       0.7703   0.8148   0.9125     H
C       0.7709   0.1658   0.5692     C
C       0.7709   0.3342   0.9308     C
C       0.7709   0.6658   0.0692     C
C       0.7709   0.8342   0.4308     C
N       0.7788   0.1825   0.4745     N
N       0.7788   0.3175   0.0255     N
N       0.7788   0.6825   0.9745     N
N       0.7788   0.8175   0.5255     N
H       0.7999   0.0888   0.3788     H
H       0.7999   0.4112   0.1212     H
H       0.7999   0.5888   0.8788     H
H       0.7999   0.9112   0.6212     H
Cd     0.80051  0.19949  0.30051    Cd
Cd     0.80051  0.30051  0.19949    Cd
Cd     0.80051  0.69949  0.80051    Cd
Cd     0.80051  0.80051  0.69949    Cd
C       0.8024   0.1821   0.9824     C
C       0.8024   0.3179   0.5176     C
C       0.8024   0.6821   0.4824     C
C       0.8024   0.8179   0.0176     C
N       0.8029   0.1965   0.3917     N
N       0.8029   0.3035   0.1083     N
N       0.8029   0.6965   0.8917     N
N       0.8029   0.8035   0.6083     N
C        0.803   0.0767   0.3448     C
C        0.803   0.4233   0.1552     C
C        0.803   0.5767   0.8448     C
C        0.803   0.9233   0.6552     C
N       0.8035   0.1083   0.3029     N
N       0.8035   0.3917   0.1971     N
N       0.8035   0.6083   0.8029     N
N       0.8035   0.8917   0.6971     N
H       0.8037   0.0013   0.3562     H
H       0.8037   0.4987   0.1438     H
H       0.8037   0.5013   0.8562     H
H       0.8037   0.9987   0.6438     H
H       0.8069   0.1659   0.5727     H
H       0.8069   0.3341   0.9273     H
H       0.8069   0.6659   0.0727     H
H       0.8069   0.8341   0.4273     H
C        0.807   0.0291   0.3333     C
C        0.807   0.4709   0.1667     C
C        0.807   0.5291   0.8333     C
C        0.807   0.9709   0.6667     C
H       0.8072   0.0134   0.1822     H
H       0.8072   0.4866   0.3178     H
H       0.8072   0.5134   0.6822     H
H       0.8072   0.9866   0.8178     H
C       0.8119   0.1602   0.8927     C
C       0.8119   0.3398   0.6073     C
C       0.8119   0.6602   0.3927     C
C       0.8119   0.8398   0.1073     C
C       0.8123   0.0765   0.2641     C
C       0.8123   0.4235   0.2359     C
C       0.8123   0.5765   0.7641     C
C       0.8123   0.9235   0.7359     C
H       0.8148   0.0875   0.2297     H
H       0.8148   0.4125   0.2703     H
H       0.8148   0.5875   0.7297     H
H       0.8148   0.9125   0.7703     H
N       0.8175   0.0255   0.2788     N
N       0.8175   0.4745   0.2212     N
N       0.8175   0.5255   0.7788     N
N       0.8175   0.9745   0.7212     N
H       0.8178   0.1928   0.0134     H
H       0.8178   0.3072   0.4866     H
H       0.8178   0.6928   0.5134     H
H       0.8178   0.8072   0.9866     H
C       0.8179   0.0176   0.8024     C
C       0.8179   0.4824   0.6976     C
C       0.8179   0.5176   0.3024     C
C       0.8179   0.9824   0.1976     C
H        0.824   0.0651   0.8701     H
H        0.824   0.4349   0.6299     H
H        0.824   0.5651   0.3701     H
H        0.824   0.9349   0.1299     H
C       0.8254   0.0214    0.752     C
C       0.8254   0.4786    0.748     C
C       0.8254   0.5214    0.252     C
C       0.8254   0.9786    0.248     C
C       0.8274    0.066   0.8341     C
C       0.8274    0.434   0.6659     C
C       0.8274    0.566   0.3341     C
C       0.8274    0.934   0.1659     C
C       0.8333    0.193   0.4709     C
C       0.8333    0.307   0.0291     C
C       0.8333    0.693   0.9709     C
C       0.8333    0.807   0.5291     C
H       0.8341   0.0727   0.6931     H
C       0.8341   0.1726    0.934     C
C       0.8341   0.3274    0.566     C
H       0.8341   0.4273   0.8069     H
H       0.8341   0.5727   0.1931     H
C       0.8341   0.6726    0.434     C
C       0.8341   0.8274    0.066     C
H       0.8341   0.9273   0.3069     H
C       0.8342   0.0692   0.7291     C
C       0.8342   0.4308   0.7709     C
C       0.8342   0.5692   0.2291     C
C       0.8342   0.9308   0.2709     C
C       0.8398   0.1073   0.8119     C
C       0.8398   0.3927   0.6881     C
C       0.8398   0.6073   0.3119     C
C       0.8398   0.8927   0.1881     C
C       0.8428   0.1106   0.7598     C
C       0.8428   0.3894   0.7402     C
C       0.8428   0.6106   0.2598     C
C       0.8428   0.8894   0.2402     C
N       0.8432   0.1568   0.8432     N
N       0.8432   0.3432   0.6568     N
N       0.8432   0.6568   0.3432     N
N       0.8432   0.8432   0.1568     N
C       0.8448    0.197   0.4233     C
C       0.8448    0.303   0.0767     C
C       0.8448    0.697   0.9233     C
C       0.8448    0.803   0.5767     C
H       0.8511   0.1424   0.7446     H
H       0.8511   0.3576   0.7554     H
H       0.8511   0.6424   0.2446     H
H       0.8511   0.8576   0.2554     H
H       0.8562   0.1963   0.4987     H
H       0.8562   0.3037   0.0013     H
H       0.8562   0.6963   0.9987     H
H       0.8562   0.8037   0.5013     H
H       0.8576   0.2446   0.6489     H
H       0.8576   0.2554   0.8511     H
H       0.8576   0.7446   0.1489     H
H       0.8576   0.7554   0.3511     H
H       0.8701    0.176   0.9349     H
H       0.8701    0.324   0.5651     H
H       0.8701    0.676   0.4349     H
H       0.8701    0.824   0.0651     H
H       0.8788   0.2001   0.4112     H
H       0.8788   0.2999   0.0888     H
H       0.8788   0.7001   0.9112     H
H       0.8788   0.7999   0.5888     H
C       0.8894   0.2402   0.8428     C
C       0.8894   0.2598   0.6572     C
C       0.8894   0.7402   0.3428     C
C       0.8894   0.7598   0.1572     C
N       0.8917   0.1971   0.3035     N
N       0.8917   0.3029   0.1965     N
N       0.8917   0.6971   0.8035     N
N       0.8917   0.8029   0.6965     N
C       0.8927   0.1881   0.8398     C
C       0.8927   0.3119   0.6602     C
C       0.8927   0.6881   0.3398     C
C       0.8927   0.8119   0.1602     C
H       0.9112   0.1212   0.2999     H
H       0.9112   0.3788   0.2001     H
H       0.9112   0.6212   0.7999     H
H       0.9112   0.8788   0.7001     H
H       0.9125   0.2297   0.1852     H
H       0.9125   0.2703   0.3148     H
H       0.9125   0.7297   0.6852     H
H       0.9125   0.7703   0.8148     H
C       0.9233   0.1552    0.303     C
C       0.9233   0.3448    0.197     C
C       0.9233   0.6552    0.803     C
C       0.9233   0.8448    0.697     C
C       0.9235   0.2359   0.3123     C
C       0.9235   0.2641   0.1877     C
C       0.9235   0.7359   0.8123     C
C       0.9235   0.7641   0.6877     C
H       0.9273   0.1931   0.6659     H
H       0.9273   0.3069   0.8341     H
H       0.9273   0.6931   0.1659     H
H       0.9273   0.8069   0.3341     H
C       0.9308   0.2291   0.6658     C
C       0.9308   0.2709   0.8342     C
C       0.9308   0.7291   0.1658     C
C       0.9308   0.7709   0.3342     C
C        0.934   0.1659   0.8274     C
C        0.934   0.3341   0.6726     C
C        0.934   0.6659   0.3274     C
C        0.934   0.8341   0.1726     C
H       0.9349   0.1299    0.824     H
H       0.9349   0.3701    0.676     H
H       0.9349   0.6299    0.324     H
H       0.9349   0.8701    0.176     H
C       0.9709   0.1667    0.307     C
C       0.9709   0.3333    0.193     C
C       0.9709   0.6667    0.807     C
C       0.9709   0.8333    0.693     C
N       0.9745   0.2212   0.3175     N
N       0.9745   0.2788   0.1825     N
N       0.9745   0.7212   0.8175     N
N       0.9745   0.7788   0.6825     N
C       0.9786    0.248   0.8254     C
C       0.9786    0.252   0.6746     C
C       0.9786    0.748   0.3254     C
C       0.9786    0.752   0.1746     C
C       0.9824   0.1976   0.8179     C
C       0.9824   0.3024   0.6821     C
C       0.9824   0.6976   0.3179     C
C       0.9824   0.8024   0.1821     C
H       0.9866   0.1822   0.1928     H
H       0.9866   0.3178   0.3072     H
H       0.9866   0.6822   0.6928     H
H       0.9866   0.8178   0.8072     H
H       0.9987   0.1438   0.3037     H
H       0.9987   0.3562   0.1963     H
H       0.9987   0.6438   0.8037     H
H       0.9987   0.8562   0.6963     H
