data_I
_chemical_name_common  '/home/zhangsd/repos/MofS-CGCNN/ML/data/SSD/clean_cifs/VIXVUV_clean'
_cell_length_a 10.50810
_cell_length_b 12.29600
_cell_length_c 16.67140
_cell_angle_alpha 90.00000
_cell_angle_beta  90.00000
_cell_angle_gamma 90.00000
_space_group_name_H-M_alt      'P 1'


loop_
_space_group_symop_operation_xyz
  'x, y, z' 

loop_
_atom_site_label
_atom_site_fract_x
_atom_site_fract_y
_atom_site_fract_z
_atom_site_type_symbol
C       0.0199   0.5096   0.4562     C
C       0.0199   0.9904   0.0438     C
O       0.0233   0.1271  0.30045     O
O       0.0233   0.3729  0.19955     O
C         0.03   0.6331   0.8671     C
C         0.03   0.8669   0.6329     C
H         0.04   0.0597   0.0686     H
H         0.04   0.4403   0.4314     H
O       0.0439   0.7218   0.9028     O
O       0.0439   0.7782   0.5972     O
C       0.0665   0.5038   0.9857     C
C       0.0665   0.9962   0.5143     C
H       0.0678   0.0271   0.6325     H
H       0.0678   0.4729   0.8675     H
H       0.0771   0.2108   0.9664     H
H       0.0771   0.2892   0.5336     H
C       0.0831   0.0643   0.9094     C
C       0.0831   0.4357   0.5906     C
C       0.0922   0.5341   0.9008     C
C       0.0922   0.9659   0.5992     C
H       0.0959   0.5543    0.455     H
H       0.0959   0.9457    0.045     H
Zn     0.09905     0.25     0.25    Zn
H       0.1065   0.0661   0.5048     H
H       0.1065   0.4339   0.9952     H
H       0.1099   0.5564   0.0194     H
H       0.1099   0.9436   0.4806     H
C       0.1183    0.172   0.9261     C
C       0.1183    0.328   0.5739     C
H       0.1264   0.5589    0.663     H
H       0.1264   0.9411    0.837     H
C       0.1461   0.0129   0.8494     C
C       0.1461   0.4871   0.6506     C
H       0.1834   0.5431   0.8951     H
H       0.1834   0.9569   0.6049     H
C       0.2141   0.2195   0.8826     C
C       0.2141   0.2805   0.6174     C
H       0.2192   0.0303   0.2349     H
H       0.2192   0.4697   0.2651     H
N       0.2268   0.1687  0.17779     N
N       0.2268   0.3313  0.32221     N
H        0.239   0.2101   0.6045     H
H        0.239   0.2899   0.8955     H
C       0.2398   0.0669   0.8065     C
C       0.2398   0.4331   0.6935     C
C       0.2602   0.0669   0.1935     C
C       0.2602   0.4331   0.3065     C
H        0.261   0.2101   0.3955     H
H        0.261   0.2899   0.1045     H
N       0.2732   0.1687  0.82221     N
N       0.2732   0.3313  0.67779     N
H       0.2808   0.0303   0.7651     H
H       0.2808   0.4697   0.7349     H
C       0.2859   0.2195   0.1174     C
C       0.2859   0.2805   0.3826     C
H       0.3166   0.5431   0.1049     H
H       0.3166   0.9569   0.3951     H
C       0.3539   0.0129   0.1506     C
C       0.3539   0.4871   0.3494     C
H       0.3736   0.5589    0.337     H
H       0.3736   0.9411    0.163     H
C       0.3817    0.172   0.0739     C
C       0.3817    0.328   0.4261     C
H       0.3901   0.5564   0.9806     H
H       0.3901   0.9436   0.5194     H
H       0.3935   0.0661   0.4952     H
H       0.3935   0.4339   0.0048     H
Zn     0.40095     0.25     0.75    Zn
H       0.4041   0.5543    0.545     H
H       0.4041   0.9457    0.955     H
C       0.4078   0.5341   0.0992     C
C       0.4078   0.9659   0.4008     C
C       0.4169   0.0643   0.0906     C
C       0.4169   0.4357   0.4094     C
H       0.4229   0.2108   0.0336     H
H       0.4229   0.2892   0.4664     H
H       0.4322   0.0271   0.3675     H
H       0.4322   0.4729   0.1325     H
C       0.4335   0.5038   0.0143     C
C       0.4335   0.9962   0.4857     C
O       0.4561   0.7218   0.0972     O
O       0.4561   0.7782   0.4028     O
H         0.46   0.0597   0.9314     H
H         0.46   0.4403   0.5686     H
C         0.47   0.6331   0.1329     C
C         0.47   0.8669   0.3671     C
O       0.4767   0.1271  0.69955     O
O       0.4767   0.3729  0.80045     O
C       0.4801   0.5096   0.5438     C
C       0.4801   0.9904   0.9562     C
C       0.5199   0.0096   0.0438     C
C       0.5199   0.4904   0.4562     C
O       0.5233   0.6271  0.19955     O
O       0.5233   0.8729  0.30045     O
C         0.53   0.1331   0.6329     C
C         0.53   0.3669   0.8671     C
H         0.54   0.5597   0.4314     H
H         0.54   0.9403   0.0686     H
O       0.5439   0.2218   0.5972     O
O       0.5439   0.2782   0.9028     O
C       0.5665   0.0038   0.5143     C
C       0.5665   0.4962   0.9857     C
H       0.5678   0.5271   0.8675     H
H       0.5678   0.9729   0.6325     H
H       0.5771   0.7108   0.5336     H
H       0.5771   0.7892   0.9664     H
C       0.5831   0.5643   0.5906     C
C       0.5831   0.9357   0.9094     C
C       0.5922   0.0341   0.5992     C
C       0.5922   0.4659   0.9008     C
H       0.5959   0.0543    0.045     H
H       0.5959   0.4457    0.455     H
Zn     0.59905     0.75     0.25    Zn
H       0.6065   0.5661   0.9952     H
H       0.6065   0.9339   0.5048     H
H       0.6099   0.0564   0.4806     H
H       0.6099   0.4436   0.0194     H
C       0.6183    0.672   0.5739     C
C       0.6183    0.828   0.9261     C
H       0.6264   0.0589    0.837     H
H       0.6264   0.4411    0.663     H
C       0.6461   0.5129   0.6506     C
C       0.6461   0.9871   0.8494     C
H       0.6834   0.0431   0.6049     H
H       0.6834   0.4569   0.8951     H
C       0.7141   0.7195   0.6174     C
C       0.7141   0.7805   0.8826     C
H       0.7192   0.5303   0.2651     H
H       0.7192   0.9697   0.2349     H
N       0.7268   0.6687  0.32221     N
N       0.7268   0.8313  0.17779     N
H        0.739   0.7101   0.8955     H
H        0.739   0.7899   0.6045     H
C       0.7398   0.5669   0.6935     C
C       0.7398   0.9331   0.8065     C
C       0.7602   0.5669   0.3065     C
C       0.7602   0.9331   0.1935     C
H        0.761   0.7101   0.1045     H
H        0.761   0.7899   0.3955     H
N       0.7732   0.6687  0.67779     N
N       0.7732   0.8313  0.82221     N
H       0.7808   0.5303   0.7349     H
H       0.7808   0.9697   0.7651     H
C       0.7859   0.7195   0.3826     C
C       0.7859   0.7805   0.1174     C
H       0.8166   0.0431   0.3951     H
H       0.8166   0.4569   0.1049     H
C       0.8539   0.5129   0.3494     C
C       0.8539   0.9871   0.1506     C
H       0.8736   0.0589    0.163     H
H       0.8736   0.4411    0.337     H
C       0.8817    0.672   0.4261     C
C       0.8817    0.828   0.0739     C
H       0.8901   0.0564   0.5194     H
H       0.8901   0.4436   0.9806     H
H       0.8935   0.5661   0.0048     H
H       0.8935   0.9339   0.4952     H
Zn     0.90095     0.75     0.75    Zn
H       0.9041   0.0543    0.955     H
H       0.9041   0.4457    0.545     H
C       0.9078   0.0341   0.4008     C
C       0.9078   0.4659   0.0992     C
C       0.9169   0.5643   0.4094     C
C       0.9169   0.9357   0.0906     C
H       0.9229   0.7108   0.4664     H
H       0.9229   0.7892   0.0336     H
H       0.9322   0.5271   0.1325     H
H       0.9322   0.9729   0.3675     H
C       0.9335   0.0038   0.4857     C
C       0.9335   0.4962   0.0143     C
O       0.9561   0.2218   0.4028     O
O       0.9561   0.2782   0.0972     O
H         0.96   0.5597   0.5686     H
H         0.96   0.9403   0.9314     H
C         0.97   0.1331   0.3671     C
C         0.97   0.3669   0.1329     C
O       0.9767   0.6271  0.80045     O
O       0.9767   0.8729  0.69955     O
C       0.9801   0.0096   0.9562     C
C       0.9801   0.4904   0.5438     C
