data_I
_chemical_name_common  '/home/zhangsd/repos/MofS-CGCNN/ML/data/SSD/clean_cifs/VUNNEZ_clean'
_cell_length_a 18.61070
_cell_length_b 18.61070
_cell_length_c  4.80220
_cell_angle_alpha 90.00000
_cell_angle_beta  90.00000
_cell_angle_gamma 90.00000
_space_group_name_H-M_alt      'P 1'


loop_
_space_group_symop_operation_xyz
  'x, y, z' 

loop_
_atom_site_label
_atom_site_fract_x
_atom_site_fract_y
_atom_site_fract_z
_atom_site_type_symbol
Cu         0.0      0.0      0.0    Cu
Cu         0.0      0.5      0.0    Cu
O      0.01337  0.07973   0.7564     O
O      0.01337  0.57973   0.2436     O
C      0.01651  0.30585    0.601     C
C      0.01651  0.80585    0.399     C
H       0.0209   0.3208    0.406     H
H       0.0209   0.8208    0.594     H
C      0.03027  0.36855   0.7926     C
C      0.03027  0.86855   0.2074     C
C      0.05585  0.23349    0.649     C
C      0.05585  0.73349    0.351     C
H       0.0708   0.2291    0.844     H
H       0.0708   0.7291    0.156     H
O      0.07838  0.36809   0.9733     O
O      0.07838  0.86809   0.0267     O
O      0.11809  0.17162   0.2767     O
O      0.11809  0.67162   0.7233     O
C      0.11855  0.21973   0.4574     C
C      0.11855  0.71973   0.5426     C
O      0.17027  0.26337   0.4936     O
O      0.17027  0.76337   0.5064     O
Cu        0.25     0.25     0.25    Cu
Cu        0.25     0.75     0.75    Cu
O      0.32973  0.23663   0.0064     O
O      0.32973  0.73663   0.9936     O
C      0.38145  0.28027   0.0426     C
C      0.38145  0.78027   0.9574     C
O      0.38191  0.32838   0.2233     O
O      0.38191  0.82838   0.7767     O
O      0.42162  0.13191   0.5267     O
O      0.42162  0.63191   0.4733     O
H       0.4292   0.2709    0.656     H
H       0.4292   0.7709    0.344     H
C      0.44415  0.26651    0.851     C
C      0.44415  0.76651    0.149     C
C      0.46973  0.13145   0.7074     C
C      0.46973  0.63145   0.2926     C
H       0.4791   0.1792    0.094     H
H       0.4791   0.6792    0.906     H
C      0.48349  0.19415    0.899     C
C      0.48349  0.69415    0.101     C
O      0.48663  0.42027   0.7436     O
O      0.48663  0.92027   0.2564     O
Cu         0.5      0.0      0.5    Cu
Cu         0.5      0.5      0.5    Cu
O      0.51337  0.07973   0.7436     O
O      0.51337  0.57973   0.2564     O
C      0.51651  0.30585    0.899     C
C      0.51651  0.80585    0.101     C
H       0.5209   0.3208    0.094     H
H       0.5209   0.8208    0.906     H
C      0.53027  0.36855   0.7074     C
C      0.53027  0.86855   0.2926     C
C      0.55585  0.23349    0.851     C
C      0.55585  0.73349    0.149     C
H       0.5708   0.2291    0.656     H
H       0.5708   0.7291    0.344     H
O      0.57838  0.36809   0.5267     O
O      0.57838  0.86809   0.4733     O
O      0.61809  0.17162   0.2233     O
O      0.61809  0.67162   0.7767     O
C      0.61855  0.21973   0.0426     C
C      0.61855  0.71973   0.9574     C
O      0.67027  0.26337   0.0064     O
O      0.67027  0.76337   0.9936     O
Cu        0.75     0.25     0.25    Cu
Cu        0.75     0.75     0.75    Cu
O      0.82973  0.23663   0.4936     O
O      0.82973  0.73663   0.5064     O
C      0.88145  0.28027   0.4574     C
C      0.88145  0.78027   0.5426     C
O      0.88191  0.32838   0.2767     O
O      0.88191  0.82838   0.7233     O
O      0.92162  0.13191   0.9733     O
O      0.92162  0.63191   0.0267     O
H       0.9292   0.2709    0.844     H
H       0.9292   0.7709    0.156     H
C      0.94415  0.26651    0.649     C
C      0.94415  0.76651    0.351     C
C      0.96973  0.13145   0.7926     C
C      0.96973  0.63145   0.2074     C
H       0.9791   0.1792    0.406     H
H       0.9791   0.6792    0.594     H
C      0.98349  0.19415    0.601     C
C      0.98349  0.69415    0.399     C
O      0.98663  0.42027   0.7564     O
O      0.98663  0.92027   0.2436     O
