data_I
_chemical_name_common  '/home/zhangsd/repos/MofS-CGCNN/ML/data/SSD/clean_cifs/VUNYUZ_clean'
_cell_length_a 20.52230
_cell_length_b 20.52230
_cell_length_c 20.52230
_cell_angle_alpha 90.00000
_cell_angle_beta  90.00000
_cell_angle_gamma 90.00000
_space_group_name_H-M_alt      'P 1'


loop_
_space_group_symop_operation_xyz
  'x, y, z' 

loop_
_atom_site_label
_atom_site_fract_x
_atom_site_fract_y
_atom_site_fract_z
_atom_site_type_symbol
H       0.0027   0.1612   0.8074     H
H       0.0027   0.3388   0.3074     H
C      0.00402  0.70934   0.2534     C
C      0.00402  0.79066   0.7534     C
Zn     0.00549  0.56126  0.27718    Zn
Zn     0.00549  0.93874  0.77718    Zn
H       0.0086   0.6995   0.7928     H
H       0.0086   0.8005   0.2928     H
O      0.01853  0.15979  0.21905     O
O      0.01853  0.34021  0.71905     O
O      0.02193  0.04195  0.77255     O
O      0.02193  0.45805  0.27255     O
C      0.02475  0.22376  0.73119     C
C      0.02475  0.27624  0.23119     C
C      0.04158  0.18362  0.79124     C
C      0.04158  0.31638  0.29124     C
O      0.04195  0.72745  0.52193     O
O      0.04195  0.77255  0.02193     O
O      0.04304  0.24543  0.08955     O
O      0.04304  0.25457  0.58955     O
O       0.0509  0.71053  0.21397     O
O       0.0509  0.78947  0.71397     O
O      0.05224  0.68174  0.07961     O
O      0.05224  0.81826  0.57961     O
C      0.06111  0.07135   0.7371     C
C      0.06111  0.42865   0.2371     C
Zn     0.06126  0.22282  0.99451    Zn
Zn     0.06126  0.27718  0.49451    Zn
O       0.0706  0.19581  0.90092     O
O       0.0706  0.30419  0.40092     O
C      0.07135   0.7371  0.06111     C
C      0.07135   0.7629  0.56111     C
C      0.07383  0.20926  0.61793     C
C      0.07383  0.29074  0.11793     C
C      0.07436  0.22124  0.84659     C
C      0.07436  0.27876  0.34659     C
O      0.07961  0.05224  0.68174     O
O      0.07961  0.44776  0.18174     O
C      0.08758   0.2217  0.68962     C
C      0.08758   0.2783  0.18962     C
O      0.08955  0.04304  0.24543     O
O      0.08955  0.45696  0.74543     O
C       0.0907  0.13384   0.7645     C
C       0.0907  0.36616   0.2645     C
O      0.09155  0.09259   0.3419     O
O      0.09155  0.40741   0.8419     O
O      0.09259   0.1581  0.59155     O
O      0.09259   0.3419  0.09155     O
O      0.09908   0.5706  0.30419     O
O      0.09908   0.9294  0.80419     O
Zn     0.10087  0.64202  0.16283    Zn
Zn     0.10087  0.85798  0.66283    Zn
O      0.10451  0.22765  0.33361     O
O      0.10451  0.27235  0.83361     O
H       0.1109   0.2369   0.1942     H
H       0.1109   0.2631   0.6942     H
C      0.11793  0.07383  0.29074     C
C      0.11793  0.42617  0.79074     C
H       0.1205   0.1219   0.7999     H
H       0.1205   0.3781   0.2999     H
H       0.1219   0.7001   0.6205     H
H       0.1219   0.7999   0.1205     H
O      0.12742  0.16924  0.71608     O
O      0.12742  0.33076  0.21608     O
C      0.13384   0.7355   0.5907     C
C      0.13384   0.7645   0.0907     C
Zn     0.14202  0.16283  0.39913    Zn
Zn     0.14202  0.33717  0.89913    Zn
C      0.15341  0.57436  0.27876     C
C      0.15341  0.92564  0.77876     C
O       0.1581  0.59155  0.09259     O
O       0.1581  0.90845  0.59259     O
O      0.15979  0.21905  0.01853     O
O      0.15979  0.28095  0.51853     O
H       0.1612   0.6926   0.5027     H
H       0.1612   0.8074   0.0027     H
Zn     0.16283  0.10087  0.64202    Zn
Zn     0.16283  0.39913  0.14202    Zn
O      0.16639  0.60451  0.22765     O
O      0.16639  0.89549  0.72765     O
O      0.16924  0.71608  0.12742     O
O      0.16924  0.78392  0.62742     O
O      0.18174  0.07961  0.44776     O
O      0.18174  0.42039  0.94776     O
C      0.18362  0.70876  0.54158     C
C      0.18362  0.79124  0.04158     C
C      0.18962  0.08758   0.2783     C
C      0.18962  0.41242   0.7783     C
H       0.1926   0.5027   0.3388     H
H       0.1926   0.9973   0.8388     H
H       0.1942   0.1109   0.2369     H
H       0.1942   0.3891   0.7369     H
O      0.19581  0.59908   0.5706     O
O      0.19581  0.90092   0.0706     O
H       0.1995   0.7072   0.9914     H
H       0.1995   0.7928   0.4914     H
H       0.2001   0.6205   0.3781     H
H       0.2001   0.8795   0.8781     H
H       0.2072   0.5086   0.8005     H
H       0.2072   0.9914   0.3005     H
C      0.20876  0.54158  0.31638     C
C      0.20876  0.95842  0.81638     C
C      0.20926  0.61793  0.07383     C
C      0.20926  0.88207  0.57383     C
C      0.20934   0.2466  0.99598     C
C      0.20934   0.2534  0.49598     C
O      0.21053  0.21397   0.4491     O
O      0.21053  0.28603   0.9491     O
O      0.21397   0.0509  0.71053     O
O      0.21397   0.4491  0.21053     O
O      0.21608  0.12742  0.33076     O
O      0.21608  0.37258  0.83076     O
O      0.21905  0.01853  0.15979     O
O      0.21905  0.48147  0.65979     O
C      0.22124  0.65341  0.57436     C
C      0.22124  0.84659  0.07436     C
C       0.2217  0.68962  0.08758     C
C       0.2217  0.81038  0.58758     C
Zn     0.22282  0.50549  0.56126    Zn
Zn     0.22282  0.99451  0.06126    Zn
C      0.22376  0.73119  0.02475     C
C      0.22376  0.76881  0.52475     C
O      0.22745  0.52193  0.45805     O
O      0.22745  0.97807  0.95805     O
O      0.22765  0.16639  0.60451     O
O      0.22765  0.33361  0.10451     O
C      0.23119  0.02475  0.27624     C
C      0.23119  0.47525  0.77624     C
C       0.2355   0.5907  0.36616     C
C       0.2355   0.9093  0.86616     C
H       0.2369   0.1942   0.1109     H
H       0.2369   0.3058   0.6109     H
C       0.2371  0.06111  0.42865     C
C       0.2371  0.43889  0.92865     C
O      0.24543  0.08955  0.04304     O
O      0.24543  0.41045  0.54304     O
C       0.2466  0.50402  0.70934     C
C       0.2466  0.99598  0.20934     C
C       0.2534  0.00402  0.70934     C
C       0.2534  0.49598  0.20934     C
O      0.25457  0.58955  0.04304     O
O      0.25457  0.91045  0.54304     O
C       0.2629  0.56111  0.42865     C
C       0.2629  0.93889  0.92865     C
H       0.2631   0.6942   0.1109     H
H       0.2631   0.8058   0.6109     H
C       0.2645   0.0907  0.36616     C
C       0.2645   0.4093  0.86616     C
C      0.26881  0.52475  0.27624     C
C      0.26881  0.97525  0.77624     C
O      0.27235  0.66639  0.60451     O
O      0.27235  0.83361  0.10451     O
O      0.27255  0.02193  0.45805     O
O      0.27255  0.47807  0.95805     O
C      0.27624  0.23119  0.02475     C
C      0.27624  0.26881  0.52475     C
Zn     0.27718  0.00549  0.56126    Zn
Zn     0.27718  0.49451  0.06126    Zn
C       0.2783  0.18962  0.08758     C
C       0.2783  0.31038  0.58758     C
C      0.27876  0.15341  0.57436     C
C      0.27876  0.34659  0.07436     C
O      0.28095  0.51853  0.15979     O
O      0.28095  0.98147  0.65979     O
O      0.28392  0.62742  0.33076     O
O      0.28392  0.87258  0.83076     O
O      0.28603   0.5509  0.71053     O
O      0.28603   0.9491  0.21053     O
O      0.28947  0.71397   0.4491     O
O      0.28947  0.78603   0.9491     O
C      0.29066   0.7466  0.99598     C
C      0.29066   0.7534  0.49598     C
C      0.29074  0.11793  0.07383     C
C      0.29074  0.38207  0.57383     C
C      0.29124  0.04158  0.31638     C
C      0.29124  0.45842  0.81638     C
H       0.2928   0.0086   0.8005     H
H       0.2928   0.4914   0.3005     H
H       0.2999   0.1205   0.3781     H
H       0.2999   0.3795   0.8781     H
H       0.3005   0.2072   0.9914     H
H       0.3005   0.2928   0.4914     H
O      0.30419  0.09908   0.5706     O
O      0.30419  0.40092   0.0706     O
H       0.3058   0.6109   0.2369     H
H       0.3058   0.8891   0.7369     H
H       0.3074   0.0027   0.3388     H
H       0.3074   0.4973   0.8388     H
C      0.31038  0.58758   0.2783     C
C      0.31038  0.91242   0.7783     C
C      0.31638  0.20876  0.54158     C
C      0.31638  0.29124  0.04158     C
O      0.31826  0.57961  0.44776     O
O      0.31826  0.92039  0.94776     O
O      0.33076  0.21608  0.12742     O
O      0.33076  0.28392  0.62742     O
O      0.33361  0.10451  0.22765     O
O      0.33361  0.39549  0.72765     O
Zn     0.33717  0.60087  0.64202    Zn
Zn     0.33717  0.89913  0.14202    Zn
H       0.3388   0.1926   0.5027     H
H       0.3388   0.3074   0.0027     H
O      0.34021  0.71905  0.01853     O
O      0.34021  0.78095  0.51853     O
O       0.3419  0.09155  0.09259     O
O       0.3419  0.40845  0.59259     O
C      0.34659  0.07436  0.27876     C
C      0.34659  0.42564  0.77876     C
Zn     0.35798  0.66283  0.39913    Zn
Zn     0.35798  0.83717  0.89913    Zn
C      0.36616   0.2355   0.5907     C
C      0.36616   0.2645   0.0907     C
O      0.37258  0.66924  0.71608     O
O      0.37258  0.83076  0.21608     O
H       0.3781   0.2001   0.6205     H
H       0.3781   0.2999   0.1205     H
H       0.3795   0.6219   0.7999     H
H       0.3795   0.8781   0.2999     H
C      0.38207  0.57383  0.29074     C
C      0.38207  0.92617  0.79074     C
H       0.3891   0.7369   0.1942     H
H       0.3891   0.7631   0.6942     H
O      0.39549  0.72765  0.33361     O
O      0.39549  0.77235  0.83361     O
Zn     0.39913  0.14202  0.16283    Zn
Zn     0.39913  0.35798  0.66283    Zn
O      0.40092   0.0706  0.30419     O
O      0.40092   0.4294  0.80419     O
O      0.40741   0.6581  0.59155     O
O      0.40741   0.8419  0.09155     O
O      0.40845  0.59259   0.3419     O
O      0.40845  0.90741   0.8419     O
C       0.4093  0.63384   0.7645     C
C       0.4093  0.86616   0.2645     C
O      0.41045  0.54304  0.24543     O
O      0.41045  0.95696  0.74543     O
C      0.41242   0.7217  0.68962     C
C      0.41242   0.7783  0.18962     C
O      0.42039  0.55224  0.68174     O
O      0.42039  0.94776  0.18174     O
C      0.42564  0.72124  0.84659     C
C      0.42564  0.77876  0.34659     C
C      0.42617  0.70926  0.61793     C
C      0.42617  0.79074  0.11793     C
C      0.42865   0.2371  0.06111     C
C      0.42865   0.2629  0.56111     C
O       0.4294  0.69581  0.90092     O
O       0.4294  0.80419  0.40092     O
Zn     0.43874  0.72282  0.99451    Zn
Zn     0.43874  0.77718  0.49451    Zn
C      0.43889  0.57135   0.7371     C
C      0.43889  0.92865   0.2371     C
O      0.44776  0.18174  0.07961     O
O      0.44776  0.31826  0.57961     O
O       0.4491  0.21053  0.21397     O
O       0.4491  0.28947  0.71397     O
O      0.45696  0.74543  0.08955     O
O      0.45696  0.75457  0.58955     O
O      0.45805  0.22745  0.52193     O
O      0.45805  0.27255  0.02193     O
C      0.45842  0.68362  0.79124     C
C      0.45842  0.81638  0.29124     C
C      0.47525  0.72376  0.73119     C
C      0.47525  0.77624  0.23119     C
O      0.47807  0.54195  0.77255     O
O      0.47807  0.95805  0.27255     O
O      0.48147  0.65979  0.21905     O
O      0.48147  0.84021  0.71905     O
H       0.4914   0.1995   0.7928     H
H       0.4914   0.3005   0.2928     H
Zn     0.49451  0.06126  0.27718    Zn
Zn     0.49451  0.43874  0.77718    Zn
C      0.49598  0.20934   0.2534     C
C      0.49598  0.29066   0.7534     C
H       0.4973   0.6612   0.8074     H
H       0.4973   0.8388   0.3074     H
H       0.5027   0.1612   0.6926     H
H       0.5027   0.3388   0.1926     H
C      0.50402  0.70934   0.2466     C
C      0.50402  0.79066   0.7466     C
Zn     0.50549  0.56126  0.22282    Zn
Zn     0.50549  0.93874  0.72282    Zn
H       0.5086   0.6995   0.7072     H
H       0.5086   0.8005   0.2072     H
O      0.51853  0.15979  0.28095     O
O      0.51853  0.34021  0.78095     O
O      0.52193  0.04195  0.72745     O
O      0.52193  0.45805  0.22745     O
C      0.52475  0.22376  0.76881     C
C      0.52475  0.27624  0.26881     C
C      0.54158  0.18362  0.70876     C
C      0.54158  0.31638  0.20876     C
O      0.54195  0.72745  0.97807     O
O      0.54195  0.77255  0.47807     O
O      0.54304  0.24543  0.41045     O
O      0.54304  0.25457  0.91045     O
O       0.5509  0.71053  0.28603     O
O       0.5509  0.78947  0.78603     O
O      0.55224  0.68174  0.42039     O
O      0.55224  0.81826  0.92039     O
C      0.56111  0.07135   0.7629     C
C      0.56111  0.42865   0.2629     C
Zn     0.56126  0.22282  0.50549    Zn
Zn     0.56126  0.27718  0.00549    Zn
O       0.5706  0.19581  0.59908     O
O       0.5706  0.30419  0.09908     O
C      0.57135   0.7371  0.43889     C
C      0.57135   0.7629  0.93889     C
C      0.57383  0.20926  0.88207     C
C      0.57383  0.29074  0.38207     C
C      0.57436  0.22124  0.65341     C
C      0.57436  0.27876  0.15341     C
O      0.57961  0.05224  0.81826     O
O      0.57961  0.44776  0.31826     O
C      0.58758   0.2217  0.81038     C
C      0.58758   0.2783  0.31038     C
O      0.58955  0.04304  0.25457     O
O      0.58955  0.45696  0.75457     O
C       0.5907  0.13384   0.7355     C
C       0.5907  0.36616   0.2355     C
O      0.59155  0.09259   0.1581     O
O      0.59155  0.40741   0.6581     O
O      0.59259   0.1581  0.90845     O
O      0.59259   0.3419  0.40845     O
O      0.59908   0.5706  0.19581     O
O      0.59908   0.9294  0.69581     O
Zn     0.60087  0.64202  0.33717    Zn
Zn     0.60087  0.85798  0.83717    Zn
O      0.60451  0.22765  0.16639     O
O      0.60451  0.27235  0.66639     O
H       0.6109   0.2369   0.3058     H
H       0.6109   0.2631   0.8058     H
C      0.61793  0.07383  0.20926     C
C      0.61793  0.42617  0.70926     C
H       0.6205   0.1219   0.7001     H
H       0.6205   0.3781   0.2001     H
H       0.6219   0.7001   0.8795     H
H       0.6219   0.7999   0.3795     H
O      0.62742  0.16924  0.78392     O
O      0.62742  0.33076  0.28392     O
C      0.63384   0.7355   0.9093     C
C      0.63384   0.7645   0.4093     C
Zn     0.64202  0.16283  0.10087    Zn
Zn     0.64202  0.33717  0.60087    Zn
C      0.65341  0.57436  0.22124     C
C      0.65341  0.92564  0.72124     C
O       0.6581  0.59155  0.40741     O
O       0.6581  0.90845  0.90741     O
O      0.65979  0.21905  0.48147     O
O      0.65979  0.28095  0.98147     O
H       0.6612   0.6926   0.9973     H
H       0.6612   0.8074   0.4973     H
Zn     0.66283  0.10087  0.85798    Zn
Zn     0.66283  0.39913  0.35798    Zn
O      0.66639  0.60451  0.27235     O
O      0.66639  0.89549  0.77235     O
O      0.66924  0.71608  0.37258     O
O      0.66924  0.78392  0.87258     O
O      0.68174  0.07961  0.05224     O
O      0.68174  0.42039  0.55224     O
C      0.68362  0.70876  0.95842     C
C      0.68362  0.79124  0.45842     C
C      0.68962  0.08758   0.2217     C
C      0.68962  0.41242   0.7217     C
H       0.6926   0.5027   0.1612     H
H       0.6926   0.9973   0.6612     H
H       0.6942   0.1109   0.2631     H
H       0.6942   0.3891   0.7631     H
O      0.69581  0.59908   0.9294     O
O      0.69581  0.90092   0.4294     O
H       0.6995   0.7072   0.5086     H
H       0.6995   0.7928   0.0086     H
H       0.7001   0.6205   0.1219     H
H       0.7001   0.8795   0.6219     H
H       0.7072   0.5086   0.6995     H
H       0.7072   0.9914   0.1995     H
C      0.70876  0.54158  0.18362     C
C      0.70876  0.95842  0.68362     C
C      0.70926  0.61793  0.42617     C
C      0.70926  0.88207  0.92617     C
C      0.70934   0.2466  0.50402     C
C      0.70934   0.2534  0.00402     C
O      0.71053  0.21397   0.0509     O
O      0.71053  0.28603   0.5509     O
O      0.71397   0.0509  0.78947     O
O      0.71397   0.4491  0.28947     O
O      0.71608  0.12742  0.16924     O
O      0.71608  0.37258  0.66924     O
O      0.71905  0.01853  0.34021     O
O      0.71905  0.48147  0.84021     O
C      0.72124  0.65341  0.92564     C
C      0.72124  0.84659  0.42564     C
C       0.7217  0.68962  0.41242     C
C       0.7217  0.81038  0.91242     C
Zn     0.72282  0.50549  0.93874    Zn
Zn     0.72282  0.99451  0.43874    Zn
C      0.72376  0.73119  0.47525     C
C      0.72376  0.76881  0.97525     C
O      0.72745  0.52193  0.04195     O
O      0.72745  0.97807  0.54195     O
O      0.72765  0.16639  0.89549     O
O      0.72765  0.33361  0.39549     O
C      0.73119  0.02475  0.22376     C
C      0.73119  0.47525  0.72376     C
C       0.7355   0.5907  0.13384     C
C       0.7355   0.9093  0.63384     C
H       0.7369   0.1942   0.3891     H
H       0.7369   0.3058   0.8891     H
C       0.7371  0.06111  0.07135     C
C       0.7371  0.43889  0.57135     C
O      0.74543  0.08955  0.45696     O
O      0.74543  0.41045  0.95696     O
C       0.7466  0.50402  0.79066     C
C       0.7466  0.99598  0.29066     C
C       0.7534  0.00402  0.79066     C
C       0.7534  0.49598  0.29066     C
O      0.75457  0.58955  0.45696     O
O      0.75457  0.91045  0.95696     O
C       0.7629  0.56111  0.07135     C
C       0.7629  0.93889  0.57135     C
H       0.7631   0.6942   0.3891     H
H       0.7631   0.8058   0.8891     H
C       0.7645   0.0907  0.13384     C
C       0.7645   0.4093  0.63384     C
C      0.76881  0.52475  0.22376     C
C      0.76881  0.97525  0.72376     C
O      0.77235  0.66639  0.89549     O
O      0.77235  0.83361  0.39549     O
O      0.77255  0.02193  0.04195     O
O      0.77255  0.47807  0.54195     O
C      0.77624  0.23119  0.47525     C
C      0.77624  0.26881  0.97525     C
Zn     0.77718  0.00549  0.93874    Zn
Zn     0.77718  0.49451  0.43874    Zn
C       0.7783  0.18962  0.41242     C
C       0.7783  0.31038  0.91242     C
C      0.77876  0.15341  0.92564     C
C      0.77876  0.34659  0.42564     C
O      0.78095  0.51853  0.34021     O
O      0.78095  0.98147  0.84021     O
O      0.78392  0.62742  0.16924     O
O      0.78392  0.87258  0.66924     O
O      0.78603   0.5509  0.78947     O
O      0.78603   0.9491  0.28947     O
O      0.78947  0.71397   0.0509     O
O      0.78947  0.78603   0.5509     O
C      0.79066   0.7466  0.50402     C
C      0.79066   0.7534  0.00402     C
C      0.79074  0.11793  0.42617     C
C      0.79074  0.38207  0.92617     C
C      0.79124  0.04158  0.18362     C
C      0.79124  0.45842  0.68362     C
H       0.7928   0.0086   0.6995     H
H       0.7928   0.4914   0.1995     H
H       0.7999   0.1205   0.1219     H
H       0.7999   0.3795   0.6219     H
H       0.8005   0.2072   0.5086     H
H       0.8005   0.2928   0.0086     H
O      0.80419  0.09908   0.9294     O
O      0.80419  0.40092   0.4294     O
H       0.8058   0.6109   0.2631     H
H       0.8058   0.8891   0.7631     H
H       0.8074   0.0027   0.1612     H
H       0.8074   0.4973   0.6612     H
C      0.81038  0.58758   0.2217     C
C      0.81038  0.91242   0.7217     C
C      0.81638  0.20876  0.95842     C
C      0.81638  0.29124  0.45842     C
O      0.81826  0.57961  0.05224     O
O      0.81826  0.92039  0.55224     O
O      0.83076  0.21608  0.37258     O
O      0.83076  0.28392  0.87258     O
O      0.83361  0.10451  0.27235     O
O      0.83361  0.39549  0.77235     O
Zn     0.83717  0.60087  0.85798    Zn
Zn     0.83717  0.89913  0.35798    Zn
H       0.8388   0.1926   0.9973     H
H       0.8388   0.3074   0.4973     H
O      0.84021  0.71905  0.48147     O
O      0.84021  0.78095  0.98147     O
O       0.8419  0.09155  0.40741     O
O       0.8419  0.40845  0.90741     O
C      0.84659  0.07436  0.22124     C
C      0.84659  0.42564  0.72124     C
Zn     0.85798  0.66283  0.10087    Zn
Zn     0.85798  0.83717  0.60087    Zn
C      0.86616   0.2355   0.9093     C
C      0.86616   0.2645   0.4093     C
O      0.87258  0.66924  0.78392     O
O      0.87258  0.83076  0.28392     O
H       0.8781   0.2001   0.8795     H
H       0.8781   0.2999   0.3795     H
H       0.8795   0.6219   0.7001     H
H       0.8795   0.8781   0.2001     H
C      0.88207  0.57383  0.20926     C
C      0.88207  0.92617  0.70926     C
H       0.8891   0.7369   0.3058     H
H       0.8891   0.7631   0.8058     H
O      0.89549  0.72765  0.16639     O
O      0.89549  0.77235  0.66639     O
Zn     0.89913  0.14202  0.33717    Zn
Zn     0.89913  0.35798  0.83717    Zn
O      0.90092   0.0706  0.19581     O
O      0.90092   0.4294  0.69581     O
O      0.90741   0.6581  0.90845     O
O      0.90741   0.8419  0.40845     O
O      0.90845  0.59259   0.1581     O
O      0.90845  0.90741   0.6581     O
C       0.9093  0.63384   0.7355     C
C       0.9093  0.86616   0.2355     C
O      0.91045  0.54304  0.25457     O
O      0.91045  0.95696  0.75457     O
C      0.91242   0.7217  0.81038     C
C      0.91242   0.7783  0.31038     C
O      0.92039  0.55224  0.81826     O
O      0.92039  0.94776  0.31826     O
C      0.92564  0.72124  0.65341     C
C      0.92564  0.77876  0.15341     C
C      0.92617  0.70926  0.88207     C
C      0.92617  0.79074  0.38207     C
C      0.92865   0.2371  0.43889     C
C      0.92865   0.2629  0.93889     C
O       0.9294  0.69581  0.59908     O
O       0.9294  0.80419  0.09908     O
Zn     0.93874  0.72282  0.50549    Zn
Zn     0.93874  0.77718  0.00549    Zn
C      0.93889  0.57135   0.7629     C
C      0.93889  0.92865   0.2629     C
O      0.94776  0.18174  0.42039     O
O      0.94776  0.31826  0.92039     O
O       0.9491  0.21053  0.28603     O
O       0.9491  0.28947  0.78603     O
O      0.95696  0.74543  0.41045     O
O      0.95696  0.75457  0.91045     O
O      0.95805  0.22745  0.97807     O
O      0.95805  0.27255  0.47807     O
C      0.95842  0.68362  0.70876     C
C      0.95842  0.81638  0.20876     C
C      0.97525  0.72376  0.76881     C
C      0.97525  0.77624  0.26881     C
O      0.97807  0.54195  0.72745     O
O      0.97807  0.95805  0.22745     O
O      0.98147  0.65979  0.28095     O
O      0.98147  0.84021  0.78095     O
H       0.9914   0.1995   0.7072     H
H       0.9914   0.3005   0.2072     H
Zn     0.99451  0.06126  0.22282    Zn
Zn     0.99451  0.43874  0.72282    Zn
C      0.99598  0.20934   0.2466     C
C      0.99598  0.29066   0.7466     C
H       0.9973   0.6612   0.6926     H
H       0.9973   0.8388   0.1926     H
