data_I
_chemical_name_common  '/home/zhangsd/repos/MofS-CGCNN/ML/data/SSD/clean_cifs/VUQJUN_clean'
_cell_length_a 13.81900
_cell_length_b 15.38200
_cell_length_c 24.38300
_cell_angle_alpha 100.41000
_cell_angle_beta  95.25000
_cell_angle_gamma 101.09000
_space_group_name_H-M_alt      'P 1'


loop_
_space_group_symop_operation_xyz
  'x, y, z' 

loop_
_atom_site_label
_atom_site_fract_x
_atom_site_fract_y
_atom_site_fract_z
_atom_site_type_symbol
C       0.0044   0.0674   0.7018     C
C       0.0063   0.4427   0.9252     C
H       0.0064   0.3478    0.333     H
C       0.0115   0.0252   0.3008     C
C       0.0162    0.463    0.568     C
H       0.0194    0.804   0.6649     H
H       0.0209   0.6117   0.1562     H
C       0.0272     0.51   0.0295     C
O        0.029   0.2572   0.7053     O
C        0.033   0.4781   0.5165     C
H       0.0398   0.5221   0.4176     H
H       0.0413   0.9503   0.7111     H
C       0.0426   0.2265   0.3294     C
C       0.0448   0.5774   0.1271     C
C        0.053   0.7927   0.3125     C
C        0.059   0.3184    0.329     C
H       0.0647   0.4175   0.6354     H
H       0.0659    0.424   0.9307     H
H       0.0672   0.1031   0.7156     H
C       0.0686   0.8934    0.315     C
C       0.0789   0.4263      0.6     C
O       0.0957   0.5051  0.32382     O
C       0.1014   0.0814   0.3201     C
C       0.1123   0.4785   0.0406     C
C       0.1176   0.4567   0.4973     C
C       0.1184   0.1805   0.3212     C
O       0.1273   0.7641  0.32949     O
C       0.1306   0.5485   0.1384     C
H       0.1343   0.4691    0.463     H
H       0.1358    0.444   0.0114     H
O       0.1493   0.6125  0.23488     O
C       0.1496   0.3668   0.3231     C
C       0.1592   0.9496   0.3348     C
C       0.1611   0.4029   0.5804     C
C       0.1636   0.4973   0.0944     C
C       0.1668   0.4662   0.3229     C
Mn     0.17461  0.64356  0.32339    Mn
C       0.1759   0.0416   0.3369     C
C       0.1788   0.4162    0.529     C
Mn     0.18142  0.30163  0.73737    Mn
C       0.1863   0.5688   0.1967     C
C       0.2088   0.2291   0.3154     C
H       0.2115    0.925   0.3473     H
H       0.2122   0.0228   0.7367     H
O       0.2147   0.3563  0.66429     O
H       0.2207   0.4751   0.1009     H
C       0.2252   0.3217   0.3165     C
O       0.2299   0.1783  0.71227     O
C        0.231   0.3642   0.6153     C
H       0.2331   0.3982   0.5141     H
H       0.2391   0.0771     0.35     H
H       0.2464   0.8834     0.74     H
O       0.2544   0.5089  0.32285     O
H       0.2598   0.7274   0.6808     H
H       0.2612   0.1996   0.3106     H
O       0.2637   0.5385  0.20332     O
C       0.2654   0.0058     0.72     C
C       0.2868   0.9225   0.7225     C
H        0.288    0.353   0.3126     H
C       0.3055   0.1572   0.6914     C
H       0.3065   0.5927   0.6865     H
O       0.3077   0.3458   0.5954     O
H       0.3139   0.4117   0.8646     H
C       0.3229    0.064   0.6927     C
C       0.3261   0.7276   0.6919     C
H       0.3272   0.8506   0.3699     H
O       0.3336   0.6948  0.31836     O
H       0.3437   0.4674   0.9601     H
O       0.3491   0.3613  0.76556     O
C        0.354   0.6466   0.6952     C
C       0.3667    0.896   0.6996     C
Mn     0.36787  0.55613  0.27384    Mn
O       0.3681   0.2083  0.67134     O
H       0.3703   0.5211   0.0444     H
H       0.3703   0.9846   0.4345     H
C       0.3789   0.4265   0.8826     C
C       0.3813   0.8599   0.3976     C
Mn     0.39124  0.34591  0.67524    Mn
C       0.3949   0.8085   0.7048     C
H       0.3968   0.5652   0.1387     H
C        0.397   0.4597   0.9404     C
C       0.4016   0.0368   0.6697     C
C        0.407   0.9403   0.4365     C
C       0.4083   0.7086  0.35528     C
H       0.4097   0.1034   0.4915     H
H       0.4135   0.2725   0.2587     H
O        0.419   0.4875  0.68906     O
C       0.4243   0.9554    0.674     C
O       0.4296   0.4416   0.2688     O
C       0.4347    0.793  0.39914     C
C       0.4349   0.5323   0.0626     C
C       0.4363   0.3813  0.78992     C
H       0.4406   0.0746   0.6507     H
H       0.4495   0.2362   0.5574     H
C       0.4508   0.5611    0.119     C
C       0.4515   0.6458   0.7112     C
C       0.4549   0.4154   0.8523     C
H       0.4598   0.1387   0.2626     H
C       0.4624   0.1118   0.5199     C
O       0.4628   0.6499  0.35432     O
C       0.4789   0.2725   0.2718     C
H         0.48   0.9401   0.6593     H
C       0.4827   0.5562   0.7107     C
C       0.4863   0.9562   0.4785     C
C       0.4866   0.1921   0.5592     C
C       0.4904   0.4813   0.9689     C
O        0.491   0.6257  0.23659     O
C       0.4936   0.8071   0.7255     C
C       0.5064   0.1929   0.2745     C
O        0.509   0.3743  0.76341     O
C       0.5096   0.5187   0.0311     C
C       0.5134   0.8079   0.4408     C
C       0.5137   0.0438   0.5215     C
C       0.5173   0.4438   0.2893     C
H         0.52   0.0599   0.3407     H
C       0.5211   0.7275   0.7282     C
O       0.5372   0.3501  0.64568     O
C       0.5376   0.8882   0.4801     C
H       0.5402   0.8613   0.7374     H
C       0.5451   0.5846   0.1477     C
C       0.5485   0.3542   0.2888     C
C       0.5492   0.4389    0.881     C
H       0.5505   0.7638   0.4426     H
H       0.5594   0.9254   0.3493     H
C       0.5637   0.6187  0.21008     C
C       0.5651   0.4677   0.9374     C
C       0.5653    0.207  0.60086     C
O       0.5704   0.5584   0.7312     O
C       0.5757   0.0446    0.326     C
O        0.581   0.5125  0.31094     O
H       0.5865   0.7275   0.7413     H
H       0.5903   0.8966   0.5085     H
C       0.5917   0.2914  0.64472     C
C        0.593   0.0597   0.5635     C
C       0.5984   0.9632   0.3303     C
C        0.603   0.5403   0.0596     C
H       0.6032   0.4348   0.8613     H
C       0.6051   0.1915   0.2952     C
Mn     0.60876  0.65409  0.32476    Mn
C       0.6187   0.1401   0.6024     C
C       0.6211   0.5735   0.1174     C
H       0.6297   0.0154   0.5655     H
H       0.6297   0.4789   0.9556     H
O       0.6319   0.7917  0.32866     O
Mn     0.63213  0.44387  0.72616    Mn
C       0.6333    0.104   0.3004     C
C        0.646   0.3534   0.3048     C
O       0.6509   0.6387  0.23444     O
H       0.6563   0.5326   0.0399     H
O       0.6664   0.3052  0.68164     O
H       0.6728   0.1494   0.6301     H
C       0.6739   0.2724   0.3081     C
C       0.6771    0.936   0.3073     C
H       0.6861   0.5883   0.1354     H
O       0.6923   0.6542   0.4046     O
H       0.6935   0.4073   0.3135     H
C       0.6945   0.8428   0.3086     C
H        0.712    0.647   0.6874     H
C       0.7132   0.0775   0.2775     C
C       0.7346   0.9942     0.28     C
O       0.7363   0.4615  0.79668     O
H       0.7388   0.8004   0.6894     H
H       0.7402   0.2726   0.3192     H
O       0.7456   0.4911  0.67715     O
H       0.7536   0.1166     0.26     H
H       0.7609   0.9229     0.65     H
H       0.7669   0.6018   0.4859     H
C        0.769   0.6358   0.3847     C
O       0.7701   0.8217  0.28773     O
C       0.7748   0.6783   0.6835     C
H       0.7793   0.5249   0.8991     H
O       0.7853   0.6437  0.33571     O
H       0.7878   0.9772   0.2633     H
H       0.7885    0.075   0.6527     H
C       0.7912   0.7709   0.6846     C
C       0.8137   0.4312   0.8033     C
Mn     0.81858  0.69837  0.26263    Mn
C       0.8212   0.5838    0.471     C
C       0.8241   0.9584   0.6631     C
Mn     0.82539  0.35644  0.67661    Mn
C       0.8332   0.5338   0.6771     C
C       0.8364   0.5027   0.9056     C
C       0.8389   0.5971   0.4196     C
C       0.8408   0.0504   0.6652     C
C       0.8504   0.6332   0.6769     C
O       0.8507   0.3875  0.76512     O
H       0.8642    0.556   0.9886     H
H       0.8657   0.5309    0.537     H
C       0.8694   0.4515   0.8616     C
O       0.8727   0.2359  0.67051     O
C       0.8816   0.8195   0.6788     C
C       0.8824   0.5433   0.5027     C
C       0.8877   0.5215   0.9594     C
C       0.8986   0.9186   0.6799     C
O       0.9043   0.4949  0.67618     O
C       0.9211   0.5737      0.4     C
C       0.9314   0.1066    0.685     C
H       0.9328   0.8969   0.2844     H
H       0.9341    0.576   0.0693     H
H       0.9353   0.5825   0.3646     H
C        0.941   0.6816    0.671     C
C        0.947   0.2073   0.6875     C
C       0.9552   0.4226   0.8729     C
C       0.9574   0.7735   0.6706     C
H       0.9587   0.0497   0.2889     H
H       0.9602   0.4779   0.5824     H
C        0.967   0.5219   0.4835     C
O        0.971   0.7428   0.2947     O
C       0.9728     0.49   0.9705     C
H       0.9791   0.3883   0.8438     H
H       0.9806    0.196   0.3351     H
C       0.9838    0.537    0.432     C
C       0.9885   0.9748   0.6992     C
H       0.9936   0.6522    0.667     H
C       0.9937   0.5573   0.0748     C
C       0.9956   0.9326   0.2982     C
