data_I
_chemical_name_common  '/home/zhangsd/repos/MofS-CGCNN/ML/data/SSD/clean_cifs/VUWRUC_clean'
_cell_length_a 18.85750
_cell_length_b 21.81470
_cell_length_c 12.88370
_cell_angle_alpha 90.00000
_cell_angle_beta  90.00000
_cell_angle_gamma 90.00000
_space_group_name_H-M_alt      'P 1'


loop_
_space_group_symop_operation_xyz
  'x, y, z' 

loop_
_atom_site_label
_atom_site_fract_x
_atom_site_fract_y
_atom_site_fract_z
_atom_site_type_symbol
Nd     0.00533     0.25  0.24718    Nd
C       0.0096   0.5717   0.5776     C
C       0.0096   0.9283   0.5776     C
H       0.0139   0.0926   0.3677     H
H       0.0139   0.4074   0.3677     H
H       0.0153   0.5247   0.1153     H
H       0.0153   0.9753   0.1153     H
C       0.0174   0.0151    0.458     C
C       0.0174   0.4849    0.458     C
H       0.0304   0.0694   0.1891     H
H       0.0304   0.4306   0.1891     H
H       0.0549   0.6048   0.9892     H
H       0.0549   0.8952   0.9892     H
C       0.0571   0.5019   0.1005     C
C       0.0571   0.9981   0.1005     C
O       0.0626   0.6848   0.6415     O
O       0.0626   0.8152   0.6415     O
C       0.0666    0.053   0.1461     C
C       0.0666    0.447   0.1461     C
O       0.0692  0.68315   0.8561     O
O       0.0692  0.81685   0.8561     O
C       0.0695   0.5969   0.5345     C
C       0.0695   0.9031   0.5345     C
C       0.0784   0.5128   0.4142     C
C       0.0784   0.9872   0.4142     C
O      0.08742  0.16582   0.2396     O
O      0.08742  0.33418   0.2396     O
C       0.0969   0.5818    0.977     C
C       0.0969   0.9182    0.977     C
C       0.0983   0.6555   0.5772     C
C       0.0983   0.8445   0.5772     C
H        0.102   0.0067   0.3579     H
H        0.102   0.4933   0.3579     H
C       0.1039   0.5671   0.4514     C
C       0.1039   0.9329   0.4514     C
C       0.1076   0.5262   0.0315     C
C       0.1076   0.9738   0.0315     C
C       0.1294   0.0863   0.1311     C
C       0.1294   0.4137   0.1311     C
C         0.13   0.6612   0.8461     C
C         0.13   0.8388   0.8461     C
C       0.1373   0.1481   0.1836     C
C       0.1373   0.3519   0.1836     C
H        0.145   0.5849   0.4212     H
H        0.145   0.9151   0.4212     H
C       0.1456   0.6033   0.9073     C
C       0.1456   0.8967   0.9073     C
O       0.1589  0.67233   0.5475     O
O       0.1589  0.82767   0.5475     O
C       0.1707   0.0083   0.0124     C
C       0.1707   0.4917   0.0124     C
O       0.1797  0.68202   0.7916     O
O       0.1797  0.81798   0.7916     O
C       0.1806   0.0642   0.0651     C
C       0.1806   0.4358   0.0651     C
O      0.19349  0.17736   0.1673     O
O      0.19349  0.32264   0.1673     O
C       0.2088     0.57   0.8899     C
C       0.2088     0.93   0.8899     C
Nd     0.21465     0.75  0.65527    Nd
C        0.221   0.5159   0.9404     C
C        0.221   0.9841   0.9404     C
H       0.2231   0.0869   0.0549     H
H       0.2231   0.4131   0.0549     H
H       0.2363    0.506   0.4273     H
H       0.2363    0.994   0.4273     H
H       0.2431   0.5854   0.8426     H
H       0.2431   0.9146   0.8426     H
H       0.2569   0.0854   0.3426     H
H       0.2569   0.4146   0.3426     H
H       0.2637    0.006   0.9273     H
H       0.2637    0.494   0.9273     H
H       0.2769   0.5869   0.5549     H
H       0.2769   0.9131   0.5549     H
C        0.279   0.0159   0.4404     C
C        0.279   0.4841   0.4404     C
Nd     0.28535     0.25  0.15527    Nd
C       0.2912     0.07   0.3899     C
C       0.2912     0.43   0.3899     C
O      0.30651  0.67736   0.6673     O
O      0.30651  0.82264   0.6673     O
C       0.3194   0.5642   0.5651     C
C       0.3194   0.9358   0.5651     C
O       0.3203  0.18202   0.2916     O
O       0.3203  0.31798   0.2916     O
C       0.3293   0.5083   0.5124     C
C       0.3293   0.9917   0.5124     C
O       0.3411  0.17233   0.0475     O
O       0.3411  0.32767   0.0475     O
C       0.3544   0.1033   0.4073     C
C       0.3544   0.3967   0.4073     C
H        0.355   0.0849   0.9212     H
H        0.355   0.4151   0.9212     H
C       0.3627   0.6481   0.6836     C
C       0.3627   0.8519   0.6836     C
C         0.37   0.1612   0.3461     C
C         0.37   0.3388   0.3461     C
C       0.3706   0.5863   0.6311     C
C       0.3706   0.9137   0.6311     C
C       0.3924   0.0262   0.5315     C
C       0.3924   0.4738   0.5315     C
C       0.3961   0.0671   0.9514     C
C       0.3961   0.4329   0.9514     C
H        0.398   0.5067   0.8579     H
H        0.398   0.9933   0.8579     H
C       0.4017   0.1555   0.0772     C
C       0.4017   0.3445   0.0772     C
C       0.4031   0.0818    0.477     C
C       0.4031   0.4182    0.477     C
O      0.41258  0.66582   0.7396     O
O      0.41258  0.83418   0.7396     O
C       0.4216   0.0128   0.9142     C
C       0.4216   0.4872   0.9142     C
C       0.4305   0.0969   0.0345     C
C       0.4305   0.4031   0.0345     C
O       0.4308  0.18315   0.3561     O
O       0.4308  0.31685   0.3561     O
C       0.4334    0.553   0.6461     C
C       0.4334    0.947   0.6461     C
O       0.4374   0.1848   0.1415     O
O       0.4374   0.3152   0.1415     O
C       0.4429   0.0019   0.6005     C
C       0.4429   0.4981   0.6005     C
H       0.4451   0.1048   0.4892     H
H       0.4451   0.3952   0.4892     H
H       0.4696   0.5694   0.6891     H
H       0.4696   0.9306   0.6891     H
C       0.4826   0.5151    0.958     C
C       0.4826   0.9849    0.958     C
H       0.4847   0.0247   0.6153     H
H       0.4847   0.4753   0.6153     H
H       0.4861   0.5926   0.8677     H
H       0.4861   0.9074   0.8677     H
C       0.4904   0.0717   0.0776     C
C       0.4904   0.4283   0.0776     C
Nd     0.49467     0.75  0.74718    Nd
Nd     0.50533     0.25  0.25282    Nd
C       0.5096   0.5717   0.9224     C
C       0.5096   0.9283   0.9224     C
H       0.5139   0.0926   0.1323     H
H       0.5139   0.4074   0.1323     H
H       0.5153   0.5247   0.3847     H
H       0.5153   0.9753   0.3847     H
C       0.5174   0.0151    0.042     C
C       0.5174   0.4849    0.042     C
H       0.5304   0.0694   0.3109     H
H       0.5304   0.4306   0.3109     H
H       0.5549   0.6048   0.5108     H
H       0.5549   0.8952   0.5108     H
C       0.5571   0.5019   0.3995     C
C       0.5571   0.9981   0.3995     C
O       0.5626   0.6848   0.8585     O
O       0.5626   0.8152   0.8585     O
C       0.5666    0.053   0.3539     C
C       0.5666    0.447   0.3539     C
O       0.5692  0.68315   0.6439     O
O       0.5692  0.81685   0.6439     O
C       0.5695   0.5969   0.9655     C
C       0.5695   0.9031   0.9655     C
C       0.5784   0.5128   0.0858     C
C       0.5784   0.9872   0.0858     C
O      0.58742  0.16582   0.2604     O
O      0.58742  0.33418   0.2604     O
C       0.5969   0.5818    0.523     C
C       0.5969   0.9182    0.523     C
C       0.5983   0.6555   0.9228     C
C       0.5983   0.8445   0.9228     C
H        0.602   0.0067   0.1421     H
H        0.602   0.4933   0.1421     H
C       0.6039   0.5671   0.0486     C
C       0.6039   0.9329   0.0486     C
C       0.6076   0.5262   0.4685     C
C       0.6076   0.9738   0.4685     C
C       0.6294   0.0863   0.3689     C
C       0.6294   0.4137   0.3689     C
C         0.63   0.6612   0.6539     C
C         0.63   0.8388   0.6539     C
C       0.6373   0.1481   0.3164     C
C       0.6373   0.3519   0.3164     C
H        0.645   0.5849   0.0788     H
H        0.645   0.9151   0.0788     H
C       0.6456   0.6033   0.5927     C
C       0.6456   0.8967   0.5927     C
O       0.6589  0.67233   0.9525     O
O       0.6589  0.82767   0.9525     O
C       0.6707   0.0083   0.4876     C
C       0.6707   0.4917   0.4876     C
O       0.6797  0.68202   0.7084     O
O       0.6797  0.81798   0.7084     O
C       0.6806   0.0642   0.4349     C
C       0.6806   0.4358   0.4349     C
O      0.69349  0.17736   0.3327     O
O      0.69349  0.32264   0.3327     O
C       0.7088     0.57   0.6101     C
C       0.7088     0.93   0.6101     C
Nd     0.71465     0.75  0.84473    Nd
C        0.721   0.5159   0.5596     C
C        0.721   0.9841   0.5596     C
H       0.7231   0.0869   0.4451     H
H       0.7231   0.4131   0.4451     H
H       0.7363    0.506   0.0727     H
H       0.7363    0.994   0.0727     H
H       0.7431   0.5854   0.6574     H
H       0.7431   0.9146   0.6574     H
H       0.7569   0.0854   0.1574     H
H       0.7569   0.4146   0.1574     H
H       0.7637    0.006   0.5727     H
H       0.7637    0.494   0.5727     H
H       0.7769   0.5869   0.9451     H
H       0.7769   0.9131   0.9451     H
C        0.779   0.0159   0.0596     C
C        0.779   0.4841   0.0596     C
Nd     0.78535     0.25  0.34473    Nd
C       0.7912     0.07   0.1101     C
C       0.7912     0.43   0.1101     C
O      0.80651  0.67736   0.8327     O
O      0.80651  0.82264   0.8327     O
C       0.8194   0.5642   0.9349     C
C       0.8194   0.9358   0.9349     C
O       0.8203  0.18202   0.2084     O
O       0.8203  0.31798   0.2084     O
C       0.8293   0.5083   0.9876     C
C       0.8293   0.9917   0.9876     C
O       0.8411  0.17233   0.4525     O
O       0.8411  0.32767   0.4525     O
C       0.8544   0.1033   0.0927     C
C       0.8544   0.3967   0.0927     C
H        0.855   0.0849   0.5788     H
H        0.855   0.4151   0.5788     H
C       0.8627   0.6481   0.8164     C
C       0.8627   0.8519   0.8164     C
C         0.87   0.1612   0.1539     C
C         0.87   0.3388   0.1539     C
C       0.8706   0.5863   0.8689     C
C       0.8706   0.9137   0.8689     C
C       0.8924   0.0262   0.9685     C
C       0.8924   0.4738   0.9685     C
C       0.8961   0.0671   0.5486     C
C       0.8961   0.4329   0.5486     C
H        0.898   0.5067   0.6421     H
H        0.898   0.9933   0.6421     H
C       0.9017   0.1555   0.4228     C
C       0.9017   0.3445   0.4228     C
C       0.9031   0.0818    0.023     C
C       0.9031   0.4182    0.023     C
O      0.91258  0.66582   0.7604     O
O      0.91258  0.83418   0.7604     O
C       0.9216   0.0128   0.5858     C
C       0.9216   0.4872   0.5858     C
C       0.9305   0.0969   0.4655     C
C       0.9305   0.4031   0.4655     C
O       0.9308  0.18315   0.1439     O
O       0.9308  0.31685   0.1439     O
C       0.9334    0.553   0.8539     C
C       0.9334    0.947   0.8539     C
O       0.9374   0.1848   0.3585     O
O       0.9374   0.3152   0.3585     O
C       0.9429   0.0019   0.8995     C
C       0.9429   0.4981   0.8995     C
H       0.9451   0.1048   0.0108     H
H       0.9451   0.3952   0.0108     H
H       0.9696   0.5694   0.8109     H
H       0.9696   0.9306   0.8109     H
C       0.9826   0.5151    0.542     C
C       0.9826   0.9849    0.542     C
H       0.9847   0.0247   0.8847     H
H       0.9847   0.4753   0.8847     H
H       0.9861   0.5926   0.6323     H
H       0.9861   0.9074   0.6323     H
C       0.9904   0.0717   0.4224     C
C       0.9904   0.4283   0.4224     C
Nd     0.99467     0.75  0.75282    Nd
