data_I
_chemical_name_common  '/home/zhangsd/repos/MofS-CGCNN/ML/data/SSD/clean_cifs/WANHIF_clean'
_cell_length_a 18.55500
_cell_length_b 18.55500
_cell_length_c 38.68800
_cell_angle_alpha 90.00000
_cell_angle_beta  90.00000
_cell_angle_gamma 120.00000
_space_group_name_H-M_alt      'P 1'


loop_
_space_group_symop_operation_xyz
  'x, y, z' 

loop_
_atom_site_label
_atom_site_fract_x
_atom_site_fract_y
_atom_site_fract_z
_atom_site_type_symbol
C      0.02347  0.51173  0.46538     C
C      0.02737  0.24133  0.30596     C
C      0.02737  0.78603  0.30596     C
O      0.03019  0.44086  0.95561     O
O      0.03019  0.58933  0.95561     O
H      0.03033  0.27637  0.75587     H
H      0.03033  0.75397  0.75587     H
O      0.03803  0.22308  0.33624     O
O      0.03803  0.81494  0.33624     O
C      0.04033  0.47697  0.52327     C
C      0.04033  0.56337  0.52327     C
Cu     0.04792  0.52396  0.02801    Cu
C      0.05217  0.52608  0.42823     C
C      0.05263  0.23547  0.71088     C
C      0.05263  0.81717  0.71088     C
H      0.05697  0.42063  0.42253     H
H      0.05697  0.63633  0.42253     H
C      0.06357  0.48633  0.48893     C
C      0.06357  0.57723  0.48893     C
C      0.06727  0.46913  0.41129     C
C      0.06727  0.59813  0.41129     C
C      0.06853  0.26607  0.74463     C
C      0.06853  0.80247  0.74463     C
O      0.07734  0.30314  0.28894     O
O      0.07734  0.77419  0.28894     O
H       0.0873   0.3903   0.9108     H
H       0.0873    0.697   0.9108     H
C      0.08943  0.26977  0.82227     C
C      0.08943  0.81967  0.82227     C
C        0.092   0.4527  0.97263     C
C        0.092   0.6393  0.97263     C
C      0.09787  0.48383  0.37754     C
C      0.09787  0.61403  0.37754     C
H      0.10173  0.20347  0.67177     H
H      0.10173  0.89827  0.67177     H
C       0.1033    0.293   0.8566     C
C       0.1033   0.8103   0.8566     C
O      0.10753  0.36352  0.37772     O
O      0.10753    0.744  0.37772     O
O      0.11025  0.48161  0.00291     O
O      0.11025  0.62864  0.00291     O
C      0.11103  0.22207  0.69452     C
C      0.11103  0.88897  0.69452     C
C      0.11127  0.55563  0.36118     C
C      0.11937  0.42533   0.3607     C
C      0.11937  0.69403   0.3607     C
H      0.12987  0.56493  0.33843     H
C       0.1358   0.4006  0.92204     C
C       0.1358   0.7352  0.92204     C
C      0.14058  0.28117  0.76157     C
C      0.14058  0.85942  0.76157     C
Cu     0.14271  0.28541  0.36134    Cu
Cu     0.14271  0.85729  0.36134    Cu
C      0.14363  0.37367  0.81007     C
C      0.14363  0.76997  0.81007     C
O      0.14828  0.44358  0.33042     O
O      0.14828  0.70469  0.33042     O
C       0.1505   0.4312  0.95579     C
C       0.1505   0.7193  0.95579     C
C        0.153   0.3969   0.8444     C
C        0.153   0.7561   0.8444     C
C      0.15493  0.30987  0.79872     C
C      0.15493  0.84507  0.79872     C
C       0.1784   0.3568  0.86795     C
C       0.1784   0.8216  0.86795     C
C      0.18033  0.26977  0.82227     C
C      0.18033  0.91057  0.82227     C
C      0.18283  0.23547  0.71088     C
C      0.18283  0.94737  0.71088     C
O      0.18506  0.22308  0.33624     O
O      0.18506  0.96197  0.33624     O
C       0.1897    0.293   0.8566     C
C       0.1897   0.8967   0.8566     C
Cu     0.19063  0.38125  0.30533    Cu
Cu     0.19063  0.80937  0.30533    Cu
C      0.19275   0.3855   0.9051     C
C      0.19275  0.80725   0.9051     C
C      0.19753  0.26607  0.74463     C
C      0.19753  0.93147  0.74463     C
H      0.20347  0.10173  0.32823     H
C      0.21397  0.24133  0.30596     C
C      0.21397  0.97263  0.30596     C
C      0.22207  0.11103  0.30548     C
C       0.2223   0.4446  0.97215     C
C       0.2223   0.7777  0.97215     C
O      0.22308  0.03803  0.66376     O
O      0.22308  0.18506  0.66376     O
O      0.22581  0.30314  0.28894     O
O      0.22581  0.92266  0.28894     O
C      0.23003  0.37367  0.81007     C
C      0.23003  0.85637  0.81007     C
H       0.2316   0.4632   0.9949     H
H       0.2316   0.7684   0.9949     H
C      0.23547  0.05263  0.28912     C
C      0.23547  0.18283  0.28912     C
C      0.24133  0.02737  0.69404     C
C      0.24133  0.21397  0.69404     C
C       0.2439   0.3969   0.8444     C
C       0.2439    0.847   0.8444     C
H      0.24603  0.27637  0.75587     H
H      0.24603  0.96967  0.75587     H
O        0.256  0.36352  0.37772     O
O        0.256  0.89247  0.37772     O
C       0.2648   0.4006  0.92204     C
C       0.2648   0.8642  0.92204     C
C      0.26607  0.06853  0.25537     C
C      0.26607  0.19753  0.25537     C
C      0.26977  0.08943  0.17773     C
C      0.26977  0.18033  0.17773     C
H      0.27637  0.03033  0.24413     H
H      0.27637  0.24603  0.24413     H
C       0.2807   0.4312  0.95579     C
C       0.2807   0.8495  0.95579     C
C      0.28117  0.14058  0.23843     C
Cu     0.28541  0.14271  0.63866    Cu
C        0.293   0.1033   0.1434     C
C        0.293   0.1897   0.1434     C
O      0.29531  0.44358  0.33042     O
O      0.29531  0.85172  0.33042     O
H        0.303   0.3903   0.9108     H
H        0.303   0.9127   0.9108     H
O      0.30314  0.07734  0.71106     O
O      0.30314  0.22581  0.71106     O
C      0.30597  0.42533   0.3607     C
C      0.30597  0.88063   0.3607     C
C      0.30987  0.15493  0.20128     C
C       0.3568   0.1784  0.13205     C
C       0.3607   0.4527  0.97263     C
C       0.3607    0.908  0.97263     C
O      0.36352  0.10753  0.62228     O
O      0.36352    0.256  0.62228     O
H      0.36367  0.42063  0.42253     H
H      0.36367  0.94303  0.42253     H
O      0.37136  0.48161  0.00291     O
O      0.37136  0.88975  0.00291     O
C      0.37367  0.14363  0.18993     C
C      0.37367  0.23003  0.18993     C
Cu     0.38125  0.19063  0.69467    Cu
C       0.3855  0.19275   0.0949     C
C      0.38597  0.48383  0.37754     C
C      0.38597  0.90213  0.37754     C
H       0.3903   0.0873   0.0892     H
H       0.3903    0.303   0.0892     H
C       0.3969    0.153   0.1556     C
C       0.3969   0.2439   0.1556     C
C       0.4006   0.1358  0.07796     C
C       0.4006   0.2648  0.07796     C
C      0.40187  0.46913  0.41129     C
C      0.40187  0.93273  0.41129     C
O      0.41067  0.44086  0.95561     O
O      0.41067  0.96981  0.95561     O
H      0.42063  0.05697  0.57747     H
H      0.42063  0.36367  0.57747     H
C      0.42277  0.48633  0.48893     C
C      0.42277  0.93643  0.48893     C
C      0.42533  0.11937   0.6393     C
C      0.42533  0.30597   0.6393     C
C       0.4312   0.1505  0.04421     C
C       0.4312   0.2807  0.04421     C
H      0.43507  0.56493  0.33843     H
H      0.43507  0.87013  0.33843     H
C      0.43663  0.47697  0.52327     C
C      0.43663  0.95967  0.52327     C
O      0.44086  0.03019  0.04439     O
O      0.44086  0.41067  0.04439     O
O      0.44358  0.14828  0.66958     O
O      0.44358  0.29531  0.66958     O
C      0.44437  0.55563  0.36118     C
C      0.44437  0.88873  0.36118     C
C       0.4446   0.2223  0.02785     C
C       0.4527    0.092  0.02737     C
C       0.4527   0.3607  0.02737     C
H       0.4632   0.2316   0.0051     H
C      0.46913  0.06727  0.58871     C
C      0.46913  0.40187  0.58871     C
C      0.47392  0.52608  0.42823     C
C      0.47392  0.94783  0.42823     C
Cu     0.47604  0.52396  0.02801    Cu
Cu     0.47604  0.95208  0.02801    Cu
C      0.47697  0.04033  0.47673     C
C      0.47697  0.43663  0.47673     C
O      0.48161  0.11025  0.99709     O
O      0.48161  0.37136  0.99709     O
C      0.48383  0.09787  0.62246     C
C      0.48383  0.38597  0.62246     C
C      0.48633  0.06357  0.51107     C
C      0.48633  0.42277  0.51107     C
C      0.48827  0.51173  0.46538     C
C      0.48827  0.97653  0.46538     C
C      0.51173  0.02347  0.53462     C
C      0.51173  0.48827  0.53462     C
C      0.51367  0.57723  0.48893     C
C      0.51367  0.93643  0.48893     C
C      0.51617  0.61403  0.37754     C
C      0.51617  0.90213  0.37754     C
O      0.51839  0.62864  0.00291     O
O      0.51839  0.88975  0.00291     O
C      0.52303  0.56337  0.52327     C
C      0.52303  0.95967  0.52327     C
Cu     0.52396  0.04792  0.97199    Cu
Cu     0.52396  0.47604  0.97199    Cu
C      0.52608  0.05217  0.57177     C
C      0.52608  0.47392  0.57177     C
C      0.53087  0.59813  0.41129     C
C      0.53087  0.93273  0.41129     C
H       0.5368   0.7684   0.9949     H
C       0.5473   0.6393  0.97263     C
C       0.5473    0.908  0.97263     C
C       0.5554   0.7777  0.97215     C
C      0.55563  0.11127  0.63882     C
C      0.55563  0.44437  0.63882     C
O      0.55642  0.70469  0.33042     O
O      0.55642  0.85172  0.33042     O
O      0.55914  0.58933  0.95561     O
O      0.55914  0.96981  0.95561     O
C      0.56337  0.04033  0.47673     C
C      0.56337  0.52303  0.47673     C
H      0.56493  0.12987  0.66157     H
H      0.56493  0.43507  0.66157     H
C       0.5688   0.7193  0.95579     C
C       0.5688   0.8495  0.95579     C
C      0.57467  0.69403   0.3607     C
C      0.57467  0.88063   0.3607     C
C      0.57723  0.06357  0.51107     C
C      0.57723  0.51367  0.51107     C
H      0.57937  0.63633  0.42253     H
H      0.57937  0.94303  0.42253     H
O      0.58933  0.03019  0.04439     O
O      0.58933  0.55914  0.04439     O
C      0.59813  0.06727  0.58871     C
C      0.59813  0.53087  0.58871     C
C       0.5994   0.7352  0.92204     C
C       0.5994   0.8642  0.92204     C
C       0.6031   0.7561   0.8444     C
C       0.6031    0.847   0.8444     C
H       0.6097    0.697   0.9108     H
H       0.6097   0.9127   0.9108     H
C      0.61403  0.09787  0.62246     C
C      0.61403  0.51617  0.62246     C
C       0.6145  0.80725   0.9051     C
Cu     0.61875  0.80937  0.30533    Cu
C      0.62633  0.76997  0.81007     C
C      0.62633  0.85637  0.81007     C
O      0.62864  0.11025  0.99709     O
O      0.62864  0.51839  0.99709     O
H      0.63633  0.05697  0.57747     H
H      0.63633  0.57937  0.57747     H
O      0.63648    0.744  0.37772     O
O      0.63648  0.89247  0.37772     O
C       0.6393    0.092  0.02737     C
C       0.6393   0.5473  0.02737     C
C       0.6432   0.8216  0.86795     C
C      0.69013  0.84507  0.79872     C
C      0.69403  0.11937   0.6393     C
C      0.69403  0.57467   0.6393     C
O      0.69686  0.77419  0.28894     O
O      0.69686  0.92266  0.28894     O
H        0.697   0.0873   0.0892     H
H        0.697   0.6097   0.0892     H
O      0.70469  0.14828  0.66958     O
O      0.70469  0.55642  0.66958     O
C        0.707   0.8103   0.8566     C
C        0.707   0.8967   0.8566     C
Cu     0.71459  0.85729  0.36134    Cu
C      0.71883  0.85942  0.76157     C
C       0.7193   0.1505  0.04421     C
C       0.7193   0.5688  0.04421     C
H      0.72363  0.75397  0.75587     H
H      0.72363  0.96967  0.75587     H
C      0.73023  0.81967  0.82227     C
C      0.73023  0.91057  0.82227     C
C      0.73393  0.80247  0.74463     C
C      0.73393  0.93147  0.74463     C
C       0.7352   0.1358  0.07796     C
C       0.7352   0.5994  0.07796     C
O        0.744  0.10753  0.62228     O
O        0.744  0.63648  0.62228     O
H      0.75397  0.03033  0.24413     H
H      0.75397  0.72363  0.24413     H
C       0.7561    0.153   0.1556     C
C       0.7561   0.6031   0.1556     C
C      0.75867  0.78603  0.30596     C
C      0.75867  0.97263  0.30596     C
C      0.76453  0.81717  0.71088     C
C      0.76453  0.94737  0.71088     C
H       0.7684   0.2316   0.0051     H
H       0.7684   0.5368   0.0051     H
C      0.76997  0.14363  0.18993     C
C      0.76997  0.62633  0.18993     C
O      0.77419  0.07734  0.71106     O
O      0.77419  0.69686  0.71106     O
O      0.77692  0.81494  0.33624     O
O      0.77692  0.96197  0.33624     O
C       0.7777   0.2223  0.02785     C
C       0.7777   0.5554  0.02785     C
C      0.77793  0.88897  0.69452     C
C      0.78603  0.02737  0.69404     C
C      0.78603  0.75867  0.69404     C
H      0.79653  0.89827  0.67177     H
C      0.80247  0.06853  0.25537     C
C      0.80247  0.73393  0.25537     C
C      0.80725  0.19275   0.0949     C
C      0.80725   0.6145   0.0949     C
Cu     0.80937  0.19063  0.69467    Cu
Cu     0.80937  0.61875  0.69467    Cu
C       0.8103   0.1033   0.1434     C
C       0.8103    0.707   0.1434     C
O      0.81494  0.03803  0.66376     O
O      0.81494  0.77692  0.66376     O
C      0.81717  0.05263  0.28912     C
C      0.81717  0.76453  0.28912     C
C      0.81967  0.08943  0.17773     C
C      0.81967  0.73023  0.17773     C
C       0.8216   0.1784  0.13205     C
C       0.8216   0.6432  0.13205     C
C      0.84507  0.15493  0.20128     C
C      0.84507  0.69013  0.20128     C
C        0.847   0.2439   0.1556     C
C        0.847   0.6031   0.1556     C
C       0.8495   0.2807  0.04421     C
C       0.8495   0.5688  0.04421     C
O      0.85172  0.29531  0.66958     O
O      0.85172  0.55642  0.66958     O
C      0.85637  0.23003  0.18993     C
C      0.85637  0.62633  0.18993     C
Cu     0.85729  0.14271  0.63866    Cu
Cu     0.85729  0.71459  0.63866    Cu
C      0.85942  0.14058  0.23843     C
C      0.85942  0.71883  0.23843     C
C       0.8642   0.2648  0.07796     C
C       0.8642   0.5994  0.07796     C
H      0.87013  0.43507  0.66157     H
C      0.88063  0.30597   0.6393     C
C      0.88063  0.57467   0.6393     C
C      0.88873  0.44437  0.63882     C
C      0.88897  0.11103  0.30548     C
C      0.88897  0.77793  0.30548     C
O      0.88975  0.37136  0.99709     O
O      0.88975  0.51839  0.99709     O
O      0.89247    0.256  0.62228     O
O      0.89247  0.63648  0.62228     O
C       0.8967   0.1897   0.1434     C
C       0.8967    0.707   0.1434     C
H      0.89827  0.10173  0.32823     H
H      0.89827  0.79653  0.32823     H
C      0.90213  0.38597  0.62246     C
C      0.90213  0.51617  0.62246     C
C        0.908   0.3607  0.02737     C
C        0.908   0.5473  0.02737     C
C      0.91057  0.18033  0.17773     C
C      0.91057  0.73023  0.17773     C
H       0.9127    0.303   0.0892     H
H       0.9127   0.6097   0.0892     H
O      0.92266  0.22581  0.71106     O
O      0.92266  0.69686  0.71106     O
C      0.93147  0.19753  0.25537     C
C      0.93147  0.73393  0.25537     C
C      0.93273  0.40187  0.58871     C
C      0.93273  0.53087  0.58871     C
C      0.93643  0.42277  0.51107     C
C      0.93643  0.51367  0.51107     C
H      0.94303  0.36367  0.57747     H
H      0.94303  0.57937  0.57747     H
C      0.94737  0.18283  0.28912     C
C      0.94737  0.76453  0.28912     C
C      0.94783  0.47392  0.57177     C
Cu     0.95208  0.47604  0.97199    Cu
C      0.95967  0.43663  0.47673     C
C      0.95967  0.52303  0.47673     C
O      0.96197  0.18506  0.66376     O
O      0.96197  0.77692  0.66376     O
H      0.96967  0.24603  0.24413     H
H      0.96967  0.72363  0.24413     H
O      0.96981  0.41067  0.04439     O
O      0.96981  0.55914  0.04439     O
C      0.97263  0.21397  0.69404     C
C      0.97263  0.75867  0.69404     C
C      0.97653  0.48827  0.53462     C
