data_I
_chemical_name_common  '/home/zhangsd/repos/MofS-CGCNN/ML/data/SSD/clean_cifs/WEBKOD_clean'
_cell_length_a 12.04950
_cell_length_b 12.27730
_cell_length_c 19.10280
_cell_angle_alpha 91.66900
_cell_angle_beta  96.85000
_cell_angle_gamma 117.94500
_space_group_name_H-M_alt      'P 1'


loop_
_space_group_symop_operation_xyz
  'x, y, z' 

loop_
_atom_site_label
_atom_site_fract_x
_atom_site_fract_y
_atom_site_fract_z
_atom_site_type_symbol
C       0.0078   0.9107   0.7479     C
H       0.0281   0.6517   0.6922     H
C       0.0298   0.0101   0.7079     C
H       0.0332   0.9956   0.3293     H
C       0.0383   0.5991   0.2383     C
C       0.0391   0.5851   0.7096     C
N       0.0596   0.5086   0.2621     N
C        0.076   0.3982   0.7604     C
H       0.0853   0.3305   0.7774     H
H       0.0979   0.8589   0.8275     H
H       0.1043   0.6653   0.2195     H
C       0.1067   0.9255   0.8005     C
C       0.1178   0.2098   0.2647     C
O       0.1219   0.2933   0.2261     O
C       0.1439   0.1162   0.7231     C
C       0.1515   0.5844   0.7059     C
H       0.1566   0.1825    0.695     H
C        0.177   0.4944   0.7344     C
O       0.2027   0.2121   0.3066     O
H       0.2139   0.6473   0.6832     H
C       0.2175   0.0379   0.8128     C
Cd     0.23089  0.49767  0.22146    Cd
N       0.2374   0.1345   0.7731     N
H       0.2716   0.2287   0.4372     H
H       0.2779   0.8556   0.3114     H
H        0.282   0.0482   0.8502     H
H       0.2854   0.0407   0.3397     H
H       0.2869   0.4572   0.0268     H
H       0.2982   0.4246    0.905     H
C        0.301   0.4954   0.7375     C
H       0.3049   0.2423    0.559     H
H       0.3178   0.5255   0.4424     H
O       0.3243   0.4359   0.7811     O
O       0.3265   0.7055   0.2525     O
C        0.327   0.4113   0.0125     C
C       0.3332   0.3906   0.9395     C
C       0.3332   0.9268   0.2906     C
C       0.3387   0.0376   0.3077     C
C       0.3555   0.2755    0.462     C
H        0.364   0.5572   0.5666     H
O       0.3743   0.5631   0.6938     O
C       0.3744   0.2872   0.5344     C
O       0.3814   0.4917   0.1578     O
C       0.3816   0.3915   0.1398     C
C       0.3821   0.3618    0.063     C
O        0.383   0.3136     0.18     O
O       0.3867   0.5109   0.3197     O
N       0.3884   0.3224   0.9184     N
C       0.4023   0.5767   0.4655     C
C       0.4047   0.7969   0.2245     C
C       0.4084   0.9161   0.2426     C
Cd     0.41141  0.33031  0.30188    Cd
N       0.4177   0.1459   0.2809     N
Cd     0.42655  0.32177  0.80199    Cd
C       0.4269   0.2868   0.0396     C
C       0.4312   0.5978   0.5398     C
C       0.4319   0.2711   0.9675     C
O       0.4399   0.3139   0.6841     O
N        0.453   0.3289   0.4252     N
H       0.4537   0.7937   0.7862     H
H        0.455   0.2449   0.0723     H
H       0.4574   0.9815   0.8144     H
H       0.4679   0.2216   0.9528     H
O       0.4745   0.7947   0.1819     O
C       0.4832   0.6112   0.3467     C
C       0.4877   0.0212   0.2167     C
C       0.4913   0.1349   0.2345     C
C       0.4966   0.3655   0.5731     C
C       0.5034   0.6345   0.4269     C
C       0.5087   0.8651   0.7655     C
C       0.5123   0.9788   0.7833     C
C       0.5168   0.3888   0.6533     C
O       0.5255   0.2053   0.8181     O
H       0.5321   0.7784   0.0472     H
H       0.5426   0.0185   0.1856     H
H        0.545   0.7551   0.9277     H
H       0.5463   0.2063   0.2138     H
N        0.547   0.6711   0.5748     N
O       0.5601   0.6861   0.3159     O
C       0.5681   0.7289   0.0325     C
C       0.5688   0.4022   0.4602     C
C       0.5731   0.7132   0.9604     C
Cd     0.57345  0.67823  0.19801    Cd
N       0.5823   0.8541   0.7191     N
Cd     0.58859  0.66969  0.69812    Cd
C       0.5916   0.0839   0.7574     C
C       0.5953   0.2031   0.7755     C
C       0.5977   0.4233   0.5345     C
N       0.6116   0.6776   0.0816     N
O       0.6133   0.4891   0.6803     O
O        0.617   0.6864     0.82     O
C       0.6179   0.6382    0.937     C
C       0.6184   0.6085   0.8602     C
O       0.6186   0.5083   0.8422     O
C       0.6256   0.7128   0.4656     C
O       0.6257   0.4369   0.3062     O
H        0.636   0.4428   0.4334     H
C       0.6445   0.7245    0.538     C
C       0.6613   0.9624   0.6923     C
C       0.6668   0.0732   0.7094     C
C       0.6668   0.6094   0.0605     C
C        0.673   0.5887   0.9875     C
O       0.6735   0.2945   0.7475     O
O       0.6757   0.5641   0.2189     O
H       0.6822   0.4745   0.5576     H
H       0.6951   0.7577    0.441     H
C        0.699   0.5046   0.2625     C
H       0.7018   0.5754    0.095     H
H       0.7131   0.5428   0.9732     H
H       0.7146   0.9593   0.6603     H
H        0.718   0.9518   0.1498     H
H       0.7221   0.1444   0.6886     H
H       0.7284   0.7713   0.5628     H
N       0.7626   0.8655   0.2269     N
Cd     0.76911  0.50233  0.77854    Cd
C       0.7825   0.9621   0.1872     C
H       0.7861   0.3527   0.3168     H
O       0.7973   0.7879   0.6934     O
C        0.823   0.5056   0.2656     C
H       0.8434   0.8175    0.305     H
C       0.8485   0.4156   0.2941     C
C       0.8561   0.8838   0.2769     C
O       0.8781   0.7067   0.7739     O
C       0.8822   0.7902   0.7353     C
C       0.8933   0.0745   0.1995     C
H       0.8957   0.3347   0.7805     H
H       0.9021   0.1411   0.1725     H
H       0.9147   0.6695   0.2226     H
C        0.924   0.6018   0.2396     C
N       0.9404   0.4914   0.7379     N
C       0.9609   0.4149   0.2904     C
C       0.9617   0.4009   0.7617     C
H       0.9668   0.0044   0.6707     H
C       0.9702   0.9899   0.2921     C
H       0.9719   0.3483   0.3078     H
C       0.9922   0.0893   0.2521     C
