data_I
_chemical_name_common  '/home/zhangsd/repos/MofS-CGCNN/ML/data/SSD/clean_cifs/WEDXEK_clean'
_cell_length_a  9.81160
_cell_length_b 14.76610
_cell_length_c 20.17530
_cell_angle_alpha 73.21300
_cell_angle_beta  82.54100
_cell_angle_gamma 77.74800
_space_group_name_H-M_alt      'P 1'


loop_
_space_group_symop_operation_xyz
  'x, y, z' 

loop_
_atom_site_label
_atom_site_fract_x
_atom_site_fract_y
_atom_site_fract_z
_atom_site_type_symbol
C       0.0024   0.7619   0.9244     C
C       0.0052   0.3342   0.0501     C
Cu     0.01522  0.66729  0.67428    Cu
Br     0.01693  0.18489  0.43591    Br
C       0.0172   0.2969   0.5785     C
C       0.0213    0.523   0.1448     C
C       0.0265   0.2882   0.8596     C
H       0.0375   0.4579    0.147     H
Br     0.03804  0.49677  0.66219    Br
O       0.0385   0.8355    0.297     O
N       0.0388   0.3624   0.5186     N
C       0.0453   0.1841     0.86     C
O       0.0536   0.9503    0.855     O
O       0.0576   0.8429   0.1531     O
H       0.0703   0.7208    0.411     H
H       0.0778    0.191   0.0829     H
C       0.0841   0.1819   0.6922     C
H       0.0919   0.3527   0.0379     H
Cu     0.10013  0.60108  0.55297    Cu
H       0.1054   0.5337   0.9738     H
C       0.1066   0.6587   0.1374     C
C       0.1135   0.5981   0.9572     C
C       0.1148   0.4297   0.8512     C
H        0.117   0.2013   0.2424     H
C       0.1176    0.254    0.626     C
Tb      0.1318  0.94812  0.20358    Tb
N        0.132   0.5657   0.1378     N
C       0.1337   0.7853   0.9104     C
C       0.1393   0.3327   0.8546     C
C       0.1516   0.8885   0.8824     C
O       0.1649   0.1329   0.8723     O
C       0.1651   0.3881   0.5057     C
N        0.169   0.3017   0.2741     N
O       0.1784   0.1434   0.7322     O
H       0.1814   0.4347   0.4648     H
H       0.1822   0.6887    0.135     H
H       0.1887    0.462   0.8463     H
C       0.1925   0.2287   0.2449     C
Br     0.21733  0.67507  0.72822    Br
Cu     0.22745  0.74395   0.5722    Cu
H       0.2302    0.298   0.8535     H
O       0.2305   0.0833   0.1796     O
H       0.2312   0.7011   0.2798     H
H       0.2314   0.5456   0.3474     H
N        0.242   0.6197   0.9417     N
C       0.2485   0.2793     0.61     C
C       0.2485   0.7126   0.9193     C
H        0.258   0.8776   0.6473     H
Cu     0.26001  0.56032  0.65862    Cu
H       0.2633   0.3954    0.292     H
O        0.268   0.9076   0.8874     O
C       0.2721   0.3494   0.5496     C
C       0.2783   0.3424   0.2742     C
O       0.3035   0.9543   0.7335     O
C        0.315   0.6598   0.2924     C
C       0.3153   0.5673   0.3316     C
H       0.3197   0.2495   0.6396     H
C        0.323   0.1917   0.2182     C
Cu     0.32627  0.50407  0.11508    Cu
H       0.3275   0.1286    0.484     H
Br     0.33005  0.62786  0.50791    Br
Tb     0.33588  0.04719  0.81015    Tb
H       0.3365   0.7295   0.9089     H
C       0.3387   0.1077   0.1887     C
O       0.3391   0.8419   0.2009     O
C       0.3423   0.8774   0.6202     C
H       0.3527   0.3521   0.7228     H
H       0.3576   0.3698   0.5387     H
N       0.3655   0.8274   0.5732     N
H       0.3732   0.0389   0.4032     H
Br     0.37655  0.38384  0.05534    Br
C       0.4016   0.9791   0.6874     C
Cu     0.40897  0.51422  0.94633    Cu
C       0.4118   0.1254    0.457     C
C       0.4121   0.3103   0.2492     C
C       0.4343   0.2335   0.2214     C
N       0.4357   0.4647   0.6723     N
C       0.4358   0.9292   0.6314     C
H       0.4373   0.4441    0.373     H
C       0.4374   0.3733   0.7093     C
O       0.4376   0.1816   0.7781     O
C       0.4387   0.5074   0.3474     C
C       0.4389   0.0728   0.4087     C
C       0.4404    0.691   0.2716     C
C       0.4473   0.7921   0.2284     C
O       0.4597    0.066   0.1749     O
O       0.4682   0.0411   0.6904     O
H       0.4764   0.7902   0.7952     H
H       0.4855     0.34   0.2512     H
C       0.4878   0.8276   0.5361     C
H       0.4938    0.207    0.497     H
Br     0.49876  0.42175  0.86415    Br
Br     0.50124  0.57825  0.13585    Br
H       0.5062    0.793    0.503     H
C       0.5122   0.1724   0.4639     C
H       0.5145     0.66   0.7488     H
H       0.5236   0.2098   0.2048     H
O       0.5318   0.9589   0.3096     O
O       0.5403    0.934   0.8251     O
C       0.5527   0.2079   0.7716     C
C       0.5596    0.309   0.7284     C
C       0.5611   0.9272   0.5913     C
C       0.5613   0.4926   0.6526     C
O       0.5624   0.8184   0.2219     O
C       0.5626   0.6267   0.2907     C
H       0.5627   0.5559    0.627     H
C       0.5642   0.0708   0.3686     C
N       0.5643   0.5353   0.3277     N
C       0.5657   0.7665   0.7786     C
C       0.5879   0.6897   0.7508     C
C       0.5882   0.8746    0.543     C
Cu     0.59103  0.48578  0.05367    Cu
C       0.5984   0.0209   0.3126     C
Br     0.62345  0.61616  0.94466    Br
H       0.6268   0.9611   0.5968     H
N       0.6345   0.1726   0.4268     N
H       0.6424   0.6302   0.4613     H
H       0.6473   0.6479   0.2772     H
C       0.6577   0.1226   0.3798     C
O       0.6609   0.1581   0.7991     O
C       0.6613   0.8923   0.8113     C
H       0.6635   0.2705   0.0911     H
Tb     0.66412  0.95281  0.18985    Tb
Br     0.66995  0.37214  0.49209    Br
H       0.6725   0.8714    0.516     H
Cu     0.67373  0.49593  0.88492    Cu
C        0.677   0.8083   0.7818     C
H       0.6803   0.7505   0.3604     H
C       0.6847   0.4327   0.6684     C
C        0.685   0.3402   0.7076     C
O       0.6965   0.0457   0.2665     O
C       0.7217   0.6576   0.7258     C
C       0.7279   0.6506   0.4504     C
O        0.732   0.0924   0.1126     O
H       0.7367   0.6046    0.708     H
Cu     0.73999  0.43968  0.34138    Cu
H        0.742   0.1224   0.3527     H
C       0.7515   0.2874   0.0807     C
C       0.7515   0.7207     0.39     C
N        0.758   0.3803   0.0583     N
H       0.7686   0.4544   0.6526     H
H       0.7688   0.2989   0.7202     H
O       0.7695   0.9167   0.8204     O
H       0.7698    0.702   0.1465     H
Cu     0.77255  0.25605   0.4278    Cu
Br     0.78267  0.32493  0.27178    Br
C       0.8075   0.7713   0.7551     C
H       0.8113    0.538   0.1537     H
H       0.8178   0.3113    0.865     H
H       0.8186   0.5653   0.5352     H
O       0.8216   0.8566   0.2678     O
N        0.831   0.6983   0.7259     N
C       0.8349   0.6119   0.4943     C
O       0.8351   0.8671   0.1277     O
C       0.8484   0.1115   0.1176     C
C       0.8607   0.6673   0.1454     C
C       0.8663   0.2147   0.0896     C
N        0.868   0.4343   0.8622     N
Tb      0.8682  0.05188  0.79642    Tb
C       0.8824    0.746    0.374     C
H        0.883   0.7987   0.7576     H
C       0.8852   0.5703   0.1488     C
C       0.8865   0.4019   0.0428     C
C       0.8934   0.3413   0.8626     C
H       0.8946   0.4663   0.0262     H
Cu     0.89987  0.39892  0.44703    Cu
H       0.9081   0.6473   0.9621     H
C       0.9159   0.8181   0.3078     C
H       0.9222    0.809   0.9171     H
H       0.9297   0.2792    0.589     H
O       0.9424   0.1571   0.8469     O
O       0.9464   0.0497    0.145     O
C       0.9547   0.8159     0.14     C
N       0.9612   0.6376   0.4814     N
O       0.9615   0.1645    0.703     O
Br     0.96196  0.50323  0.33781    Br
H       0.9625   0.5421    0.853     H
C       0.9735   0.7118   0.1404     C
C       0.9787    0.477   0.8552     C
C       0.9828   0.7031   0.4215     C
Br     0.98307  0.81511  0.56409    Br
Cu     0.98478  0.33271  0.32572    Cu
C       0.9948   0.6658   0.9499     C
C       0.9976   0.2381   0.0756     C
