data_I
_chemical_name_common  '/home/zhangsd/repos/MofS-CGCNN/ML/data/SSD/clean_cifs/WENKOR_clean'
_cell_length_a  9.26540
_cell_length_b 15.64200
_cell_length_c 22.28700
_cell_angle_alpha 102.15000
_cell_angle_beta  101.48000
_cell_angle_gamma 104.44000
_space_group_name_H-M_alt      'P 1'


loop_
_space_group_symop_operation_xyz
  'x, y, z' 

loop_
_atom_site_label
_atom_site_fract_x
_atom_site_fract_y
_atom_site_fract_z
_atom_site_type_symbol
H       0.0038   0.6644   0.9094     H
H       0.0061   0.4373   0.2936     H
H       0.0143   0.1542   0.6317     H
C       0.0179   0.6073   0.3078     C
C       0.0229   0.5385    0.908     C
H       0.0242   0.6708    0.322     H
H       0.0298   0.0913   0.7177     H
Gd     0.03054  0.91215   0.8565    Gd
H       0.0337    0.583   0.3438     H
H       0.0547   0.4791   0.0722     H
C       0.0578    0.624   0.8971     C
S       0.0601   0.3697  0.90277     S
O       0.0604   0.0013   0.2101     O
C       0.0638   0.1238   0.4638     C
C       0.0659    0.917   0.3095     C
C       0.0714   0.1493   0.3613     C
H       0.0747   0.3041   0.2662     H
C       0.0749   0.8802   0.3611     C
H       0.0823   0.4264   0.7206     H
O       0.0862   0.6505   0.0827     O
C       0.0868   0.4374   0.2746     C
O       0.0879   0.3036   0.8559     O
C       0.0887   0.8755   0.6583     C
O       0.0896   0.8609   0.7616     O
C       0.0959   0.8988   0.5558     C
C       0.1038   0.4793   0.8894     C
O       0.1084   0.7634   0.4518     O
O       0.1181   0.1457   0.0766     O
H       0.1224   0.2638   0.0208     H
O       0.1243   0.1226   0.5243     O
C       0.1276   0.3572   0.2577     C
H       0.1291   0.1661   0.3337     H
O       0.1322   0.7935   0.8732     O
O       0.1348   0.5991    0.275     O
C       0.1457   0.1492   0.4212     C
C       0.1658   0.5164   0.2631     C
C       0.1708   0.8765   0.7237     C
C       0.1738   0.8987   0.6151     C
C       0.1761   0.6494   0.8672     C
O       0.1821   0.9267   0.5138     O
C       0.1889   0.0042   0.2412     C
O       0.1902   0.3945   0.9684     O
C          0.2    0.966   0.2986     C
C       0.2085   0.7434   0.8555     C
O       0.2091   0.1946   0.2099     O
C        0.215   0.8951   0.4009     C
C       0.2186   0.2704   0.0127     C
C        0.221    0.504   0.8605     C
S       0.2255   0.8493  0.46751     S
H       0.2275   0.1534   0.8396     H
C       0.2463   0.3562   0.2285     C
C       0.2502   0.1546     0.07     C
H       0.2531   0.1666   0.4335     H
C       0.2567   0.5911   0.8512     C
H       0.2609   0.2718   0.7914     H
O       0.2704    0.017   0.8724     O
C       0.2713   0.3318   0.9814     C
H       0.2743   0.4634   0.8477     H
H       0.2811   0.9137   0.6266     H
C       0.2865   0.5151   0.2341     C
C       0.2889   0.1487    0.547     C
C       0.2943   0.2731   0.2112     C
C       0.3078   0.1655   0.8204     C
C       0.3079   0.2176   0.0324     C
O       0.3092    0.763   0.8256     O
O       0.3149   0.0374   0.2293     O
O        0.315   0.8898   0.7352     O
H        0.317   0.1503   0.5912     H
H       0.3189   0.5582   0.0363     H
C       0.3261   0.4372    0.217     C
H       0.3269   0.1049    0.523     H
C       0.3271   0.2359   0.7913     C
H       0.3333   0.2084   0.5422     H
H       0.3381   0.6098   0.8336     H
C       0.3402   0.9797   0.3391     C
O       0.3424   0.1148   0.0954     O
C       0.3486   0.9445   0.3906     C
O       0.3631   0.3914   0.7368     O
O       0.3643   0.5954   0.2209     O
H       0.3778   0.7904     0.26     H
H       0.3803   0.5314   0.0983     H
O       0.3821   0.8555   0.4947     O
C       0.3887   0.0376   0.8537     C
H       0.3894   0.6338   0.1017     H
C       0.3964    0.578   0.0762     C
H       0.4055   0.7082   0.0254     H
H       0.4065   0.4377   0.1977     H
C       0.4081   0.1132   0.8208     C
H       0.4101   0.9062   0.2092     H
C       0.4139    0.341   0.9665     C
O       0.4238   0.2812   0.1991     O
H       0.4301   0.0129   0.3318     H
H       0.4439   0.9541   0.4184     H
C       0.4459   0.2524   0.7619     C
O       0.4475   0.7643   0.6933     O
C       0.4482   0.2263   0.0187     C
O       0.4536   0.4062   0.9351     O
C       0.4558   0.8008   0.2394     C
S       0.4754   0.3443  0.72869     S
C       0.4762   0.8702   0.2092     C
H       0.4792   0.2579   0.2986     H
H       0.4806   0.8208   0.6956     H
Gd     0.48586  0.13989  0.19774    Gd
H       0.4914    0.809   0.9678     H
O       0.4942   0.0003   0.8613     O
O       0.4979   0.6818   0.3316     O
C       0.4992   0.7125   0.0153     C
C       0.5008   0.2875   0.9847     C
O       0.5021   0.3182   0.6684     O
O       0.5058   0.9997   0.1387     O
H       0.5086    0.191   0.0322     H
Gd     0.51414  0.86011  0.80226    Gd
H       0.5194   0.1792   0.3044     H
H       0.5208   0.7421   0.7014     H
C       0.5238   0.1298   0.7908     C
S       0.5246   0.6557  0.27131     S
C       0.5442   0.1992   0.7606     C
O       0.5464   0.5938   0.0649     O
C       0.5518   0.7737   0.9813     C
O       0.5525   0.2357   0.3067     O
C       0.5541   0.7476   0.2381     C
H       0.5561   0.0459   0.5816     H
H       0.5699   0.9871   0.6682     H
O       0.5762   0.7188   0.8009     O
C       0.5861    0.659   0.0335     C
H       0.5899   0.0938   0.7908     H
C       0.5919   0.8868   0.1792     C
H       0.5935   0.5623   0.8023     H
H       0.5945   0.2918   0.9746     H
C       0.6036    0.422   0.9238     C
H       0.6106   0.3662   0.8983     H
C       0.6113   0.9624   0.1463     C
O       0.6179   0.1445   0.5053     O
H       0.6197   0.4686   0.9017     H
H       0.6222   0.2096     0.74     H
O       0.6357   0.4046   0.7791     O
O       0.6369   0.6086   0.2632     O
C       0.6514   0.0555   0.6094     C
O       0.6576   0.8852   0.9046     O
C       0.6598   0.0203   0.6609     C
H       0.6619   0.3902   0.1664     H
H       0.6667   0.7916   0.4578     H
C       0.6729   0.7641   0.2087     C
H       0.6731   0.8951    0.477     H
C       0.6739   0.5628    0.783     C
H       0.6811   0.4418   0.9637     H
H        0.683   0.8497   0.4088     H
O        0.685   0.1102   0.2648     O
O       0.6851   0.9626   0.7707     O
O       0.6908    0.237   0.1744     O
C       0.6921   0.7824   0.9676     C
C       0.6922   0.8345   0.1796     C
C       0.7057   0.7269   0.7888     C
C       0.7111   0.8513    0.453     C
C       0.7135   0.4849   0.7659     C
H       0.7189   0.0863   0.3734     H
H       0.7257   0.5366   0.1523     H
C       0.7287   0.6682   0.0186     C
O       0.7296    0.983   0.1276     O
H       0.7391   0.7282   0.2086     H
C       0.7433   0.4089   0.1488     C
H       0.7469   0.8334   0.5665     H
C       0.7498   0.8454     0.93     C
C       0.7537   0.6438   0.7715     C
H       0.7725   0.8466   0.1604     H
S       0.7745   0.1507  0.53249     S
C        0.779    0.496   0.1395     C
C       0.7814   0.7296   0.9873     C
C        0.785   0.1049   0.5991     C
O       0.7909   0.8054   0.7901     O
C       0.7915   0.2566   0.1445     C
C          0.8    0.034   0.7014     C
O       0.8098   0.6055   0.0316     O
C       0.8111   0.9958   0.7588     C
O       0.8179   0.0733   0.4862     O
C       0.8239   0.3506   0.1328     C
C       0.8262   0.1013   0.3849     C
C       0.8292   0.1235   0.2763     C
C       0.8342   0.4836   0.7369     C
C       0.8543   0.8508   0.5788     C
O       0.8652   0.4009    0.725     O
O       0.8678   0.2065   0.1268     O
H       0.8709   0.8339   0.6663     H
C       0.8724   0.6428   0.7423     C
O       0.8757   0.8774   0.4757     O
H       0.8776   0.7362   0.9792     H
O       0.8819   0.8543   0.9234     O
O       0.8916   0.2366   0.5482     O
C       0.8962   0.5207   0.1106     C
C       0.9041   0.1012   0.4442     C
O       0.9104   0.1391   0.2384     O
C       0.9113   0.1245   0.3417     C
O       0.9121   0.6964   0.1441     O
C       0.9132   0.5626   0.7254     C
O       0.9138   0.3495   0.9173     O
H       0.9177   0.5736   0.2794     H
C       0.9251   0.1198   0.6389     C
H       0.9253   0.6959   0.7338     H
C       0.9286   0.8507   0.6387     C
C       0.9341    0.083   0.6905     C
C       0.9362   0.8762   0.5362     C
O       0.9396   0.9987   0.7899     O
S       0.9399   0.6303  0.09723     S
C       0.9422    0.376   0.1029     C
H       0.9453   0.5209   0.9278     H
H       0.9663    0.417   0.6562     H
Gd     0.96946  0.08785   0.1435    Gd
H       0.9702   0.9087   0.2823     H
H       0.9758   0.3292    0.678     H
C       0.9771   0.4615    0.092     C
C       0.9821   0.3927   0.6922     C
H       0.9857   0.8458   0.3683     H
H       0.9939   0.5627   0.7064     H
H       0.9962   0.3356   0.0906     H
