data_I
_chemical_name_common  '/home/zhangsd/repos/MofS-CGCNN/ML/data/SSD/clean_cifs/WENLEI_clean'
_cell_length_a  9.16710
_cell_length_b 15.52000
_cell_length_c 22.19900
_cell_angle_alpha 102.89000
_cell_angle_beta  101.79000
_cell_angle_gamma 104.14000
_space_group_name_H-M_alt      'P 1'


loop_
_space_group_symop_operation_xyz
  'x, y, z' 

loop_
_atom_site_label
_atom_site_fract_x
_atom_site_fract_y
_atom_site_fract_z
_atom_site_type_symbol
H        0.002   0.6661   0.3152     H
H       0.0025   0.6647   0.9067     H
H       0.0032   0.4372    0.294     H
C       0.0101   0.6042   0.3062     C
H       0.0148   0.1503   0.6315     H
C       0.0224   0.5409    0.908     C
Ho     0.02993  0.91146  0.85606    Ho
H       0.0302   0.0841    0.716     H
H       0.0387   0.5894   0.3459     H
S        0.053   0.3694  0.90081     S
H       0.0539   0.4746   0.0711     H
O       0.0598   0.0042   0.2101     O
C       0.0601   0.6247   0.8962     C
C       0.0625   0.1238   0.4644     C
C       0.0672   0.9214   0.3098     C
H       0.0725   0.3038   0.2664     H
C       0.0735   0.1487   0.3619     C
C       0.0756   0.8836   0.3614     C
O       0.0803   0.3021   0.8537     O
C       0.0834   0.4372   0.2742     C
H       0.0888   0.4388   0.7199     H
O       0.0897   0.8578   0.7625     O
C       0.0903   0.8756   0.6595     C
C       0.0952   0.8991   0.5561     C
O       0.0964   0.6507   0.0861     O
C       0.1025   0.4788   0.8874     C
O       0.1083   0.7661   0.4525     O
O       0.1086   0.1429    0.076     O
H       0.1155   0.2612   0.0207     H
O       0.1222   0.1193   0.5245     O
C       0.1247   0.3569   0.2574     C
O       0.1264   0.5984   0.2731     O
H       0.1325   0.1651   0.3344     H
O       0.1383   0.7995   0.8765     O
C       0.1486    0.149   0.4219     C
C       0.1592   0.5174   0.2619     C
C       0.1709   0.8762   0.7252     C
C       0.1766   0.9012   0.6177     C
C       0.1813   0.6536   0.8689     C
O       0.1817   0.3932   0.9686     O
O       0.1882   0.9293   0.5162     O
C       0.1914   0.0058   0.2398     C
C       0.1972   0.9654   0.2968     C
O       0.2102    0.194   0.2094     O
C       0.2119   0.2678   0.0118     C
C       0.2128   0.7462   0.8558     C
C       0.2196   0.8972   0.4013     C
H       0.2218   0.1493   0.8386     H
C        0.222   0.5052   0.8602     C
S       0.2297   0.8508  0.46788     S
C       0.2425   0.1528   0.0692     C
C       0.2457   0.3546   0.2269     C
H       0.2566   0.2693   0.7896     H
H       0.2573    0.166   0.4347     H
C        0.261   0.5925   0.8519     C
C       0.2618   0.3295   0.9802     C
O       0.2688   0.0161    0.873     O
H       0.2764   0.4642   0.8475     H
C       0.2823   0.5152   0.2322     C
H       0.2854   0.9193   0.6304     H
C       0.2921   0.1496   0.5483     C
C       0.2954   0.2704   0.2099     C
C       0.3036   0.2145   0.0311     C
C       0.3058   0.1632   0.8212     C
O       0.3148   0.7661   0.8271     O
O       0.3164   0.0363   0.2275     O
O       0.3164   0.8923    0.738     O
H       0.3218   0.1473   0.5918     H
C       0.3237   0.4355   0.2151     C
C       0.3259   0.2345   0.7914     C
H       0.3264   0.5334   0.0395     H
H       0.3327   0.2121   0.5468     H
O       0.3336   0.1126   0.0942     O
H       0.3338   0.1095    0.522     H
H       0.3434   0.6102   0.8343     H
C       0.3449   0.9774   0.3373     C
C       0.3527   0.9425   0.3905     C
O       0.3587    0.595   0.2183     O
H       0.3642   0.7868   0.2536     H
O       0.3644   0.3898   0.7372     O
H       0.3754   0.6343   0.0857     H
O       0.3866   0.8555   0.4941     O
C        0.391   0.0386   0.8554     C
C        0.403   0.5778   0.0767     C
H       0.4042   0.4357   0.1954     H
H       0.4046   0.9073    0.205     H
H       0.4058   0.5535   0.1129     H
H       0.4073   0.7098   0.0242     H
C       0.4087   0.3425   0.9661     C
C       0.4115   0.1147   0.8244     C
O       0.4271   0.2803   0.1996     O
H       0.4358    0.008   0.3288     H
C        0.443   0.2235   0.0165     C
C       0.4461   0.7991   0.2348     C
O       0.4481   0.4039   0.9351     O
C       0.4486   0.2519    0.765     C
H       0.4492   0.9505   0.4181     H
C         0.47     0.87    0.205     C
S       0.4785   0.3435  0.73025     S
Ho     0.48325  0.13831  0.19647    Ho
O       0.4957   0.6836   0.3304     O
C        0.497   0.2856   0.9849     C
H        0.497   0.8135   0.9717     H
O       0.4989   0.0007   0.8645     O
O       0.5011   0.9993   0.1355     O
H        0.503   0.1865   0.0283     H
C        0.503   0.7144   0.0151     C
O       0.5043   0.3164   0.6696     O
Ho     0.51675  0.86169  0.80353    Ho
S       0.5215   0.6565  0.26975     S
C         0.53     0.13    0.795     C
H       0.5508   0.0495   0.5819     H
C       0.5514   0.7481    0.235     C
O       0.5519   0.5961   0.0649     O
C       0.5539   0.2009   0.7652     C
C        0.557   0.7765   0.9835     C
H       0.5642    0.992   0.6712     H
O       0.5729   0.7197   0.8004     O
C       0.5885   0.8853   0.1756     C
C       0.5913   0.6575   0.0339     C
H       0.5927   0.2902   0.9758     H
H       0.5942   0.4465   0.8871     H
H       0.5954   0.0927    0.795     H
H       0.5958   0.5643   0.8046     H
C        0.597   0.4222   0.9233     C
C        0.609   0.9614   0.1446     C
O       0.6134   0.1445   0.5059     O
H       0.6246   0.3657   0.9143     H
O       0.6356   0.6102   0.2628     O
H       0.6358   0.2132   0.7464     H
O       0.6413    0.405   0.7817     O
C       0.6473   0.0575   0.6095     C
C       0.6551   0.0226   0.6627     C
H       0.6566   0.3898   0.1657     H
H       0.6662   0.8905    0.478     H
O       0.6664   0.8874   0.9058     O
H       0.6673   0.7879   0.4532     H
H       0.6736   0.4666   0.9605     H
C       0.6741   0.7655   0.2086     C
C       0.6763   0.5645   0.7849     C
H       0.6782   0.8527   0.4082     H
O       0.6836   0.1077    0.262     O
O       0.6836   0.9637   0.7725     O
O       0.6852   0.2339   0.1729     O
C       0.6942   0.8368   0.1788     C
C       0.6964   0.7855   0.9689     C
C       0.7046   0.7296   0.7901     C
C       0.7079   0.8504   0.4517     C
H       0.7146   0.0807   0.3696     H
C       0.7177   0.4848   0.7678     C
H       0.7236   0.5358   0.1525     H
O       0.7312   0.9839    0.127     O
C       0.7382   0.6705   0.0198     C
C        0.739   0.4075   0.1481     C
H       0.7427    0.834   0.5653     H
H       0.7434   0.7307   0.2104     H
C       0.7543   0.6454   0.7731     C
C       0.7575   0.8472   0.9308     C
S       0.7703   0.1492  0.53212     S
C        0.778   0.4948   0.1398     C
H       0.7782   0.8507   0.1614     H
C       0.7804   0.1028   0.5987     C
C       0.7872   0.2538   0.1442     C
C       0.7881   0.7322   0.9882     C
O       0.7898    0.806   0.7906     O
C       0.8028   0.0346   0.7032     C
C       0.8086   0.9942   0.7602     C
O       0.8118   0.0707   0.4838     O
O       0.8183   0.6068   0.0314     O
C       0.8187   0.3464   0.1311     C
C       0.8234   0.0988   0.3823     C
C       0.8291   0.1238   0.2748     C
C       0.8408   0.4826   0.7381     C
C       0.8514    0.851   0.5781     C
O       0.8617   0.2005   0.1235     O
H       0.8675   0.8349   0.6656     H
O       0.8736   0.4016   0.7269     O
C       0.8753   0.6431   0.7426     C
O       0.8778   0.8807   0.4755     O
H       0.8845   0.7388   0.9793     H
O       0.8914   0.8571    0.924     O
O       0.8917   0.2339   0.5475     O
C       0.8975   0.5212   0.1126     C
O       0.9036   0.3493   0.9139     O
C       0.9048   0.1009   0.4439     C
C       0.9097   0.1244   0.3405     C
O       0.9103   0.1422   0.2375     O
H       0.9112   0.5612   0.2801     H
C       0.9166   0.5628   0.7258     C
O       0.9197   0.6979   0.1463     O
C       0.9244   0.1164   0.6386     C
C       0.9265   0.8513   0.6381     C
H       0.9275   0.6962   0.7336     H
C       0.9328   0.0786   0.6902     C
C       0.9375   0.8762   0.5356     C
C       0.9399   0.3753   0.1038     C
O       0.9402   0.9958   0.7899     O
H       0.9461   0.5254   0.9289     H
S        0.947   0.6306  0.09919     S
H       0.9613   0.4106   0.6541     H
H       0.9698   0.9159    0.284     H
Ho     0.97007  0.08854  0.14394    Ho
C       0.9776   0.4591    0.092     C
H       0.9852   0.8497   0.3685     H
C       0.9899   0.3958   0.6938     C
H       0.9968   0.5628    0.706     H
H       0.9975   0.3353   0.0933     H
H        0.998   0.3339   0.6848     H
