data_I
_chemical_name_common  '/home/zhangsd/repos/MofS-CGCNN/ML/data/SSD/clean_cifs/WEVQUJ_clean'
_cell_length_a 14.87200
_cell_length_b 14.87200
_cell_length_c 15.01900
_cell_angle_alpha 90.00000
_cell_angle_beta  90.00000
_cell_angle_gamma 120.00000
_space_group_name_H-M_alt      'P 1'


loop_
_space_group_symop_operation_xyz
  'x, y, z' 

loop_
_atom_site_label
_atom_site_fract_x
_atom_site_fract_y
_atom_site_fract_z
_atom_site_type_symbol
Cu         0.0      0.5      0.0    Cu
Cu         0.0      0.5      0.5    Cu
O       0.0509   0.4429   0.0909     O
O       0.0509   0.4429   0.9091     O
O       0.0509    0.608   0.4091     O
O       0.0509    0.608   0.5909     O
H       0.0884    0.374   0.2358     H
H       0.0884    0.374   0.7642     H
H       0.0884   0.7144   0.2642     H
H       0.0884   0.7144   0.7358     H
C       0.1299   0.4855   0.1397     C
C       0.1299   0.4855   0.8603     C
C       0.1299   0.6444   0.3603     C
C       0.1299   0.6444   0.6397     C
C       0.1482   0.4139   0.1978     C
C       0.1482   0.4139   0.8022     C
C       0.1482   0.7343   0.3022     C
C       0.1482   0.7343   0.6978     C
H       0.1581   0.3659   0.1611     H
H       0.1581   0.3659   0.8389     H
H       0.1581   0.7922   0.3389     H
H       0.1581   0.7922   0.6611     H
O        0.194   0.5804   0.1428     O
O        0.194   0.5804   0.8572     O
O        0.194   0.6136   0.3572     O
O        0.194   0.6136   0.6428     O
H       0.2078   0.3659   0.3389     H
H       0.2078   0.3659   0.6611     H
H       0.2078   0.8419   0.1611     H
H       0.2078   0.8419   0.8389     H
O       0.2366   0.4732     0.25     O
O       0.2366   0.4732     0.75     O
O       0.2366   0.7634     0.25     O
O       0.2366   0.7634     0.75     O
C       0.2657   0.4139   0.3022     C
C       0.2657   0.4139   0.6978     C
C       0.2657   0.8518   0.1978     C
C       0.2657   0.8518   0.8022     C
H       0.2856    0.374   0.2642     H
H       0.2856    0.374   0.7358     H
H       0.2856   0.9116   0.2358     H
H       0.2856   0.9116   0.7642     H
Eu     0.33333  0.66666     0.25    Eu
Eu     0.33333  0.66666     0.75    Eu
C       0.3556   0.4855   0.3603     C
C       0.3556   0.4855   0.6397     C
C       0.3556   0.8701   0.1397     C
C       0.3556   0.8701   0.8603     C
H       0.3659   0.1581   0.3389     H
H       0.3659   0.1581   0.6611     H
H       0.3659   0.2078   0.1611     H
H       0.3659   0.2078   0.8389     H
H        0.374   0.0884   0.2642     H
H        0.374   0.0884   0.7358     H
H        0.374   0.2856   0.2358     H
H        0.374   0.2856   0.7642     H
O       0.3864   0.5804   0.3572     O
O       0.3864   0.5804   0.6428     O
O       0.3864    0.806   0.1428     O
O       0.3864    0.806   0.8572     O
O        0.392   0.4429   0.4091     O
O        0.392   0.4429   0.5909     O
O        0.392   0.9491   0.0909     O
O        0.392   0.9491   0.9091     O
C       0.4139   0.1482   0.3022     C
C       0.4139   0.1482   0.6978     C
C       0.4139   0.2657   0.1978     C
C       0.4139   0.2657   0.8022     C
O       0.4196   0.6136   0.1428     O
O       0.4196   0.6136   0.8572     O
O       0.4196    0.806   0.3572     O
O       0.4196    0.806   0.6428     O
O       0.4429   0.0509   0.4091     O
O       0.4429   0.0509   0.5909     O
O       0.4429    0.392   0.0909     O
O       0.4429    0.392   0.9091     O
O       0.4732   0.2366     0.25     O
O       0.4732   0.2366     0.75     O
C       0.4855   0.1299   0.3603     C
C       0.4855   0.1299   0.6397     C
C       0.4855   0.3556   0.1397     C
C       0.4855   0.3556   0.8603     C
Cu         0.5      0.0      0.0    Cu
Cu         0.5      0.0      0.5    Cu
Cu         0.5      0.5      0.0    Cu
Cu         0.5      0.5      0.5    Cu
C       0.5145   0.6444   0.1397     C
C       0.5145   0.6444   0.8603     C
C       0.5145   0.8701   0.3603     C
C       0.5145   0.8701   0.6397     C
O       0.5268   0.7634     0.25     O
O       0.5268   0.7634     0.75     O
O       0.5571    0.608   0.0909     O
O       0.5571    0.608   0.9091     O
O       0.5571   0.9491   0.4091     O
O       0.5571   0.9491   0.5909     O
O       0.5804    0.194   0.3572     O
O       0.5804    0.194   0.6428     O
O       0.5804   0.3864   0.1428     O
O       0.5804   0.3864   0.8572     O
C       0.5861   0.7343   0.1978     C
C       0.5861   0.7343   0.8022     C
C       0.5861   0.8518   0.3022     C
C       0.5861   0.8518   0.6978     C
O        0.608   0.0509   0.0909     O
O        0.608   0.0509   0.9091     O
O        0.608   0.5571   0.4091     O
O        0.608   0.5571   0.5909     O
O       0.6136    0.194   0.1428     O
O       0.6136    0.194   0.8572     O
O       0.6136   0.4196   0.3572     O
O       0.6136   0.4196   0.6428     O
H        0.626   0.7144   0.2358     H
H        0.626   0.7144   0.7642     H
H        0.626   0.9116   0.2642     H
H        0.626   0.9116   0.7358     H
H       0.6341   0.7922   0.1611     H
H       0.6341   0.7922   0.8389     H
H       0.6341   0.8419   0.3389     H
H       0.6341   0.8419   0.6611     H
C       0.6444   0.1299   0.1397     C
C       0.6444   0.1299   0.8603     C
C       0.6444   0.5145   0.3603     C
C       0.6444   0.5145   0.6397     C
Eu     0.66667  0.33334     0.25    Eu
Eu     0.66667  0.33334     0.75    Eu
H       0.7144   0.0884   0.2358     H
H       0.7144   0.0884   0.7642     H
H       0.7144    0.626   0.2642     H
H       0.7144    0.626   0.7358     H
C       0.7343   0.1482   0.1978     C
C       0.7343   0.1482   0.8022     C
C       0.7343   0.5861   0.3022     C
C       0.7343   0.5861   0.6978     C
O       0.7634   0.2366     0.25     O
O       0.7634   0.2366     0.75     O
O       0.7634   0.5268     0.25     O
O       0.7634   0.5268     0.75     O
H       0.7922   0.1581   0.1611     H
H       0.7922   0.1581   0.8389     H
H       0.7922   0.6341   0.3389     H
H       0.7922   0.6341   0.6611     H
O        0.806   0.3864   0.3572     O
O        0.806   0.3864   0.6428     O
O        0.806   0.4196   0.1428     O
O        0.806   0.4196   0.8572     O
H       0.8419   0.2078   0.3389     H
H       0.8419   0.2078   0.6611     H
H       0.8419   0.6341   0.1611     H
H       0.8419   0.6341   0.8389     H
C       0.8518   0.2657   0.3022     C
C       0.8518   0.2657   0.6978     C
C       0.8518   0.5861   0.1978     C
C       0.8518   0.5861   0.8022     C
C       0.8701   0.3556   0.3603     C
C       0.8701   0.3556   0.6397     C
C       0.8701   0.5145   0.1397     C
C       0.8701   0.5145   0.8603     C
H       0.9116   0.2856   0.2642     H
H       0.9116   0.2856   0.7358     H
H       0.9116    0.626   0.2358     H
H       0.9116    0.626   0.7642     H
O       0.9491    0.392   0.4091     O
O       0.9491    0.392   0.5909     O
O       0.9491   0.5571   0.0909     O
O       0.9491   0.5571   0.9091     O
