data_I
_chemical_name_common  '/home/zhangsd/repos/MofS-CGCNN/ML/data/SSD/clean_cifs/WIDZOA_clean'
_cell_length_a 12.12290
_cell_length_b 12.60990
_cell_length_c 14.28190
_cell_angle_alpha 98.41000
_cell_angle_beta  90.00000
_cell_angle_gamma 90.00000
_space_group_name_H-M_alt      'P 1'


loop_
_space_group_symop_operation_xyz
  'x, y, z' 

loop_
_atom_site_label
_atom_site_fract_x
_atom_site_fract_y
_atom_site_fract_z
_atom_site_type_symbol
H       0.0283   0.7917   0.8885     H
N      0.02932  0.97903  0.85983     N
Cd     0.04634  0.53475  0.88046    Cd
C      0.04733  0.22045  0.11071     C
H       0.0653   0.2771    0.866     H
H       0.0671   0.3496   0.3494     H
N      0.06754  0.08442  0.85954     N
C      0.07118  0.02478  0.11386     C
N      0.08232  0.32089  0.10925     N
O      0.08304  0.56448  0.04255     O
H       0.1003   0.8646   0.0899     H
O      0.10204  0.58343  0.19551     O
O       0.1036  0.57415  0.73103     O
C      0.11731  0.13353  0.11103     C
H       0.1228   0.1736   0.3475     H
C      0.13544  0.60092  0.11688     C
C      0.14037  0.29125  0.86255     C
C       0.1416  0.92829   0.0841     C
C      0.14165  0.33299  0.35242     C
H       0.1576   0.2691   0.6043     H
H       0.1621   0.7723   0.6891     H
H       0.1639    0.927   0.0194     H
C      0.16738  0.64804  0.76585     C
C      0.17125  0.09411  0.85548     C
N      0.17195  0.39267   0.8641     N
C      0.17479  0.22829  0.35131     C
O      0.18516  0.66668  0.85342     O
C      0.19181  0.33675  0.10695     C
H       0.1968   0.4828   0.3577     H
H          0.2   0.0178   0.4076     H
H       0.2029   0.0009   0.2967     H
H       0.2031   0.6128   0.5798     H
H       0.2057   0.9314   0.1237     H
C      0.21349  0.20519  0.85599     C
H       0.2146   0.9382    0.853     H
C      0.21724   0.7204  0.70167     C
H       0.2178    0.406   0.1059     H
C      0.21979   0.4125  0.35807     C
H       0.2202   0.0962   0.6067     H
H        0.222   0.7597   0.2347     H
H       0.2281   0.7142    0.065     H
C      0.22998  0.15245  0.10772     C
C      0.23281  0.25502  0.60602     C
C      0.24063  0.66225  0.10768     C
C       0.2469   0.0047    0.353     C
C       0.2531   0.0047    0.853     C
C      0.25937  0.66225  0.60768     C
C      0.26719  0.25502  0.10602     C
C      0.27002  0.15245  0.60772     C
H       0.2719   0.7142    0.565     H
H        0.278   0.7597   0.7347     H
H       0.2798   0.0962   0.1067     H
C      0.28021   0.4125  0.85807     C
H       0.2822    0.406   0.6059     H
C      0.28276   0.7204  0.20167     C
H       0.2854   0.9382    0.353     H
C      0.28651  0.20519  0.35599     C
H       0.2943   0.9314   0.6237     H
H       0.2969   0.6128   0.0798     H
H       0.2971   0.0009   0.7967     H
H          0.3   0.0178   0.9076     H
H       0.3032   0.4828   0.8577     H
C      0.30819  0.33675  0.60695     C
O      0.31484  0.66668  0.35342     O
C      0.32521  0.22829  0.85131     C
N      0.32805  0.39267   0.3641     N
C      0.32875  0.09411  0.35548     C
C      0.33262  0.64804  0.26585     C
H       0.3361    0.927   0.5194     H
H       0.3379   0.7723   0.1891     H
H       0.3424   0.2691   0.1043     H
C      0.35835  0.33299  0.85242     C
C       0.3584  0.92829   0.5841     C
C      0.35963  0.29125  0.36255     C
C      0.36456  0.60092  0.61688     C
H       0.3772   0.1736   0.8475     H
C      0.38269  0.13353  0.61103     C
O       0.3964  0.57415  0.23103     O
O      0.39796  0.58343  0.69551     O
H       0.3997   0.8646   0.5899     H
O      0.41696  0.56448  0.54255     O
N      0.41768  0.32089  0.60925     N
C      0.42882  0.02478  0.61386     C
N      0.43246  0.08442  0.35954     N
H       0.4329   0.3496   0.8494     H
H       0.4347   0.2771    0.366     H
C      0.45267  0.22045  0.61071     C
Cd     0.45366  0.53475  0.38046    Cd
N      0.47068  0.97903  0.35983     N
H       0.4717   0.7917   0.3885     H
H       0.5283   0.2083   0.6115     H
N      0.52932  0.02097  0.64017     N
Cd     0.54634  0.46525  0.61954    Cd
C      0.54733  0.77955  0.38929     C
H       0.5653   0.7229    0.634     H
H       0.5671   0.6504   0.1506     H
N      0.56754  0.91558  0.64046     N
C      0.57118  0.97522  0.38614     C
N      0.58232  0.67911  0.39075     N
O      0.58304  0.43552  0.45745     O
H       0.6003   0.1354   0.4101     H
O      0.60204  0.41657  0.30449     O
O       0.6036  0.42585  0.76897     O
C      0.61731  0.86647  0.38897     C
H       0.6228   0.8264   0.1525     H
C      0.63544  0.39908  0.38312     C
C      0.64037  0.70875  0.63745     C
C       0.6416  0.07171   0.4159     C
C      0.64165  0.66701  0.14758     C
H       0.6576   0.7309   0.8957     H
H       0.6621   0.2277   0.8109     H
H       0.6639    0.073   0.4806     H
C      0.66738  0.35196  0.73415     C
C      0.67125  0.90589  0.64452     C
N      0.67195  0.60733   0.6359     N
C      0.67479  0.77171  0.14869     C
O      0.68516  0.33332  0.64658     O
C      0.69181  0.66325  0.39305     C
H       0.6968   0.5172   0.1423     H
H          0.7   0.9822   0.0924     H
H       0.7029   0.9991   0.2033     H
H       0.7031   0.3872   0.9202     H
H       0.7057   0.0686   0.3763     H
C      0.71349  0.79481  0.64401     C
H       0.7146   0.0618    0.647     H
C      0.71724   0.2796  0.79833     C
H       0.7178    0.594   0.3941     H
C      0.71979   0.5875  0.14193     C
H       0.7202   0.9038   0.8933     H
H        0.722   0.2403   0.2653     H
H       0.7281   0.2858    0.435     H
C      0.72998  0.84755  0.39228     C
C      0.73281  0.74498  0.89398     C
C      0.74063  0.33775  0.39232     C
C       0.7469   0.9953    0.147     C
C       0.7531   0.9953    0.647     C
C      0.75937  0.33775  0.89232     C
C      0.76719  0.74498  0.39398     C
C      0.77002  0.84755  0.89228     C
H       0.7719   0.2858    0.935     H
H        0.778   0.2403   0.7653     H
H       0.7798   0.9038   0.3933     H
C      0.78021   0.5875  0.64193     C
H       0.7822    0.594   0.8941     H
C      0.78276   0.2796  0.29833     C
H       0.7854   0.0618    0.147     H
C      0.78651  0.79481  0.14401     C
H       0.7943   0.0686   0.8763     H
H       0.7969   0.3872   0.4202     H
H       0.7971   0.9991   0.7033     H
H          0.8   0.9822   0.5924     H
H       0.8032   0.5172   0.6423     H
C      0.80819  0.66325  0.89305     C
O      0.81484  0.33332  0.14658     O
C      0.82521  0.77171  0.64869     C
N      0.82805  0.60733   0.1359     N
C      0.82875  0.90589  0.14452     C
C      0.83262  0.35196  0.23415     C
H       0.8361    0.073   0.9806     H
H       0.8379   0.2277   0.3109     H
H       0.8424   0.7309   0.3957     H
C      0.85835  0.66701  0.64758     C
C       0.8584  0.07171   0.9159     C
C      0.85963  0.70875  0.13745     C
C      0.86456  0.39908  0.88312     C
H       0.8772   0.8264   0.6525     H
C      0.88269  0.86647  0.88897     C
O       0.8964  0.42585  0.26897     O
O      0.89796  0.41657  0.80449     O
H       0.8997   0.1354   0.9101     H
O      0.91696  0.43552  0.95745     O
N      0.91768  0.67911  0.89075     N
C      0.92882  0.97522  0.88614     C
N      0.93246  0.91558  0.14046     N
H       0.9329   0.6504   0.6506     H
H       0.9347   0.7229    0.134     H
C      0.95267  0.77955  0.88929     C
Cd     0.95366  0.46525  0.11954    Cd
N      0.97068  0.02097  0.14017     N
H       0.9717   0.2083   0.1115     H
