data_I
_chemical_name_common  '/home/zhangsd/repos/MofS-CGCNN/ML/data/SSD/clean_cifs/WIDZUG_clean'
_cell_length_a 11.59850
_cell_length_b 13.64790
_cell_length_c 14.24840
_cell_angle_alpha 102.16700
_cell_angle_beta  90.00000
_cell_angle_gamma 115.14600
_space_group_name_H-M_alt      'P 1'


loop_
_space_group_symop_operation_xyz
  'x, y, z' 

loop_
_atom_site_label
_atom_site_fract_x
_atom_site_fract_y
_atom_site_fract_z
_atom_site_type_symbol
Cd      0.0011  0.44596  0.86425    Cd
H       0.0166   0.2104    0.586     H
O      0.01751  0.39682  0.69772     O
C      0.07027  0.33574   0.7076     C
H       0.0792   0.8094   0.1377     H
O      0.08565   0.4565  0.01583     O
H       0.0881   0.2396   0.1349     H
O      0.09565   0.3241   0.7888     O
C      0.09685   0.2715   0.6167     C
H        0.099   0.6978   0.8511     H
H       0.1096   0.3762     0.53     H
O      0.12469  0.45758  0.16403     O
C      0.12754  0.42288   0.0773     C
H       0.1292   0.2878   0.9844     H
H       0.1515   0.2396   0.6349     H
H       0.1586   0.2878   0.4844     H
C      0.15942  0.33824   0.5439     C
C      0.16084  0.81288   0.1335     C
C      0.17465   0.2715   0.1167     C
N      0.17645   0.7197   0.1302     N
C      0.17882  0.33824   0.0439     C
C      0.17971  0.70002   0.8587     C
N      0.18721  0.60702   0.8661     N
H       0.1938   0.2104    0.086     H
H       0.2106   0.7052   0.3798     H
O      0.22845   0.3241   0.2888     O
H       0.2347   0.5452   0.3741     H
H       0.2486   0.9762   0.1328     H
C      0.26179  0.91318   0.1307     C
C      0.26547  0.33574   0.2076     C
H       0.2666   0.3762     0.03     H
H       0.2698   0.1906   0.3623     H
H       0.2724   0.0238   0.3672     H
H       0.2767   0.8634   0.8589     H
C      0.28578  0.79956   0.8619     C
C      0.29065   0.7055   0.3747     C
C      0.29307  0.72554   0.1243     C
C      0.29534  0.42288   0.5773     C
C      0.30379  0.61018   0.8719     C
H       0.3044   0.6616   0.1218     H
C      0.30639  0.61018   0.3719     C
H       0.3105   0.5452   0.8741     H
O      0.33289  0.45758  0.66403     O
H       0.3454   0.8252   0.6179     H
C      0.34796  0.18712   0.3665     C
C      0.34861  0.08682   0.3693     C
H       0.3572   0.6616   0.6218     H
O      0.37085   0.4565  0.51583     O
O      0.37931  0.39682  0.19772     O
N      0.37991  0.90062   0.3724     N
C      0.38198  0.91776   0.1248     C
C      0.39752  0.80144   0.3696     C
C      0.39889  0.82338   0.1217     C
H       0.4012   0.3022   0.6489     H
C      0.40392  0.80144   0.8696     C
H       0.4133   0.1366   0.6411     H
C      0.41485   0.7055   0.8747     C
N      0.41981  0.60702   0.3661     N
C      0.42449  0.82338   0.6217     C
C      0.43247  0.72554   0.6243     C
Cd     0.44486  0.44596  0.36425    Cd
N      0.45675   0.2803   0.3698     N
C      0.46422  0.08224   0.3752     C
N      0.47818  0.98196   0.3755     N
N      0.47929  0.09938   0.1276     N
C      0.47969  0.29998   0.6413     C
H       0.4798   0.8252   0.1179     H
C      0.48622  0.20044   0.6381     C
H       0.4946   0.7052   0.8798     H
N      0.49622  0.01804   0.1245     N
N      0.50378  0.98196   0.8755     N
H       0.5054   0.2948   0.1202     H
C      0.51378  0.79956   0.3619     C
H       0.5202   0.1748   0.8821     H
C      0.52031  0.70002   0.3587     C
N      0.52071  0.90062   0.8724     N
N      0.52182  0.01804   0.6245     N
C      0.53578  0.91776   0.6248     C
N      0.54325   0.7197   0.6302     N
Cd     0.55514  0.55404  0.63575    Cd
C      0.56753  0.27446   0.3757     C
C      0.57551  0.17662   0.3783     C
N      0.58019  0.39298   0.6339     N
C      0.58515   0.2945   0.1253     C
H       0.5867   0.8634   0.3589     H
C      0.59608  0.19856   0.1304     C
H       0.5988   0.6978   0.3511     H
C      0.60111  0.17662   0.8783     C
C      0.60248  0.19856   0.6304     C
C      0.61802  0.08224   0.8752     C
N      0.62009  0.09938   0.6276     N
O      0.62069  0.60318  0.80228     O
O      0.62915   0.5435  0.48417     O
H       0.6428   0.3384   0.3782     H
C      0.65139  0.91318   0.6307     C
C      0.65204  0.81288   0.6335     C
H       0.6546   0.1748   0.3821     H
O      0.66711  0.54242  0.33597     O
H       0.6895   0.4548   0.1259     H
C      0.69361  0.38982   0.6281     C
H       0.6956   0.3384   0.8782     H
C      0.69621  0.38982   0.1281     C
C      0.70466  0.57712   0.4227     C
C      0.70693  0.27446   0.8757     C
C      0.70935   0.2945   0.6253     C
C      0.71422  0.20044   0.1381     C
H       0.7233   0.1366   0.1411     H
H       0.7276   0.9762   0.6328     H
H       0.7302   0.8094   0.6377     H
H       0.7334   0.6238     0.97     H
C      0.73453  0.66426   0.7924     C
C      0.73821  0.08682   0.8693     C
H       0.7514   0.0238   0.8672     H
H       0.7653   0.4548   0.6259     H
O      0.77155   0.6759   0.7112     O
H       0.7894   0.2948   0.6202     H
H       0.8062   0.7896    0.914     H
N      0.81279  0.39298   0.1339     N
C      0.82029  0.29998   0.1413     C
C      0.82118  0.66176   0.9561     C
N      0.82355   0.2803   0.8698     N
C      0.82535   0.7285   0.8833     C
C      0.83916  0.18712   0.8665     C
C      0.84058  0.66176   0.4561     C
H       0.8414   0.7122   0.5156     H
H       0.8485   0.7604   0.3651     H
H       0.8708   0.7122   0.0156     H
C      0.87246  0.57712   0.9227     C
O      0.87531  0.54242  0.83597     O
H       0.8904   0.6238     0.47     H
H        0.901   0.3022   0.1489     H
C      0.90315   0.7285   0.3833     C
O      0.90435   0.6759   0.2112     O
H       0.9119   0.7604   0.8651     H
O      0.91435   0.5435  0.98417     O
H       0.9208   0.1906   0.8623     H
C      0.92973  0.66426   0.2924     C
O      0.98249  0.60318  0.30228     O
H       0.9834   0.7896    0.414     H
Cd      0.9989  0.55404  0.13575    Cd
