data_I
_chemical_name_common  '/home/zhangsd/repos/MofS-CGCNN/ML/data/SSD/clean_cifs/WITJUG_clean'
_cell_length_a 18.03520
_cell_length_b 25.86760
_cell_length_c 18.05840
_cell_angle_alpha 90.00000
_cell_angle_beta  118.86100
_cell_angle_gamma 90.00000
_space_group_name_H-M_alt      'P 1'


loop_
_space_group_symop_operation_xyz
  'x, y, z' 

loop_
_atom_site_label
_atom_site_fract_x
_atom_site_fract_y
_atom_site_fract_z
_atom_site_type_symbol
Mn         0.0      0.0      0.0    Mn
H       0.0026   0.7592   0.1313     H
O       0.0035  0.95819   0.7925     O
H       0.0053   0.1151   0.2994     H
C       0.0137  0.68952   0.0904     C
H       0.0157   0.3282   0.8871     H
H       0.0166   0.4167   0.7821     H
O       0.0181  0.11439   0.7689     O
O      0.02073  0.04811  0.91508     O
C        0.023    0.633   0.3139     C
C       0.0257   0.5897    0.273     C
C       0.0257  0.74161   0.1024     C
O       0.0298  0.27321    0.695     O
H        0.033   0.1719   0.6669     H
S      0.03421  0.59614  0.03407     S
O        0.039  0.41918     0.96     O
O       0.0404  0.58091   0.9606     O
C       0.0452  0.66307   0.0452     C
O       0.0591  0.84678    0.129     O
C       0.0599   0.0257   0.2679     C
C       0.0599    0.108   0.3422     C
S      0.06029  0.32377   0.7282     S
C       0.0719  0.76863    0.072     C
Mn      0.0731  0.91686  0.19842    Mn
H       0.0782   0.1727   0.4171     H
C       0.0804   0.0922   0.7712     C
C       0.0807   0.1566   0.6692     C
H       0.0827   0.2963   0.5895     H
H       0.0837    0.673   0.4213     H
O      0.08421  0.95214  0.97873     O
C       0.0865    0.643   0.3944     C
C       0.0878  0.82505   0.0875     C
H       0.0889   0.2026   0.5796     H
H       0.0896   0.4962   0.0897     H
C       0.0903  0.68921   0.0133     C
C       0.0924   0.5544   0.3141     C
H       0.0929   0.5244    0.286     H
O        0.095  0.98305   0.2789     O
C        0.103  0.74182   0.0262     C
C       0.1035   0.0633   0.3413     C
O       0.1039   0.3313   0.8188     O
C        0.105   0.1427    0.414     C
Mn     0.10663  0.99996  0.89318    Mn
O       0.1095  0.03242   0.1099     O
H       0.1122   0.6715   0.9833     H
O       0.1128   0.0517   0.8082     O
C       0.1155   0.1758   0.6177     C
C       0.1181   0.1165   0.7203     C
C        0.119    0.324   0.6154     C
C       0.1238  0.57139   0.1239     C
C       0.1242   0.3457   0.6863     C
O       0.1293  0.84689   0.0592     O
C       0.1304  0.51751   0.1305     C
H       0.1327   0.7595   0.0039     H
C       0.1576    0.563   0.3957     C
C       0.1576   0.6085   0.4388     C
O       0.1627  0.95376   0.1629     O
C       0.1643  0.00378   0.1645     C
H       0.1662    0.329   0.5333     H
C       0.1691   0.3438   0.5816     C
C        0.179   0.3846   0.7259     C
H       0.1813   0.6381   0.1804     H
C        0.184   0.0549   0.4059     C
O       0.1842   0.6703   0.8977     O
H        0.185   0.3974   0.7767     H
C       0.1856  0.60227   0.1852     C
C       0.1859   0.1327    0.477     C
C       0.1873   0.1543   0.6253     C
C       0.1896   0.0955   0.7265     C
O        0.192   0.9482   0.8877     O
O       0.1949  0.22737   0.5302     O
Mn     0.19826   0.9168  0.07292    Mn
C       0.1999   0.4973   0.1999     C
H        0.201   0.6159   0.4929     H
H       0.2053   0.4615   0.2051     H
H       0.2067   0.1014    0.207     H
O       0.2069  0.04188   0.9958     O
H       0.2121   0.0249   0.4049     H
H       0.2143   0.0672   0.7618     H
H        0.219   0.5831   0.9845     H
O       0.2204  0.48297   0.4046     O
C       0.2206   0.3837   0.6187     C
H       0.2221   0.6029   0.8126     H
C       0.2259   0.0897   0.4735     C
C       0.2264   0.4057   0.6917     C
C       0.2267   0.1159   0.6801     C
S       0.2276  0.17614  0.55999     S
C       0.2296   0.9079   0.9202     C
O       0.2303  0.88629   0.9813     O
C       0.2317   0.5264   0.4389     C
H       0.2386    0.934    0.783     H
C       0.2389  0.02695   0.2387     C
C       0.2477  0.08025   0.2479     C
C       0.2523  0.58025   0.2521     C
C       0.2611  0.52695   0.2613     C
H       0.2614    0.434    0.717     H
C       0.2683   0.0264   0.0611     C
O       0.2697  0.38629   0.5187     O
C       0.2704   0.4079   0.5798     C
S       0.2724  0.67614  0.94001     S
C       0.2733   0.6159   0.8199     C
C       0.2736   0.9057   0.8083     C
C       0.2741   0.5897   0.0265     C
H       0.2779   0.1029   0.6874     H
C       0.2794   0.8837   0.8813     C
O       0.2796  0.98297   0.0954     O
H        0.281   0.0831   0.5155     H
H       0.2857   0.5672   0.7382     H
H       0.2879   0.5249   0.0951     H
O       0.2931  0.54188   0.5042     O
H       0.2933   0.6014    0.293     H
H       0.2947   0.9615   0.2949     H
H        0.299   0.1159   0.0071     H
C       0.3001   0.9973   0.3001     C
Mn     0.30174   0.4168  0.42708    Mn
O       0.3051  0.72737   0.9698     O
O        0.308   0.4482   0.6123     O
C       0.3104   0.5955   0.7735     C
C       0.3127   0.6543   0.8747     C
C       0.3141   0.6327    0.023     C
C       0.3144  0.10227   0.3148     C
H        0.315   0.8974   0.7233     H
O       0.3158   0.1703   0.6023     O
C        0.316   0.5549   0.0941     C
H       0.3187   0.1381   0.3196     H
C        0.321   0.8846   0.7741     C
C       0.3309   0.8438   0.9184     C
H       0.3338    0.829   0.9667     H
C       0.3357  0.50378   0.3355     C
O       0.3373  0.45376   0.3371     O
C       0.3424    0.063   0.1043     C
C       0.3424   0.1085   0.0612     C
H       0.3673   0.2595   0.4961     H
C       0.3696  0.01751   0.3695     C
O       0.3707  0.34689   0.4408     O
C       0.3758   0.8457   0.8137     C
C       0.3762  0.07139   0.3761     C
C        0.381    0.824   0.8846     C
C       0.3819   0.6165   0.7797     C
C       0.3845   0.6758   0.8823     C
O       0.3872   0.5517   0.6918     O
H       0.3878   0.1715   0.5167     H
O       0.3905  0.53242   0.3901     O
Mn     0.39337  0.49996  0.60682    Mn
C        0.395   0.6427    0.086     C
O       0.3961   0.8313   0.6812     O
C       0.3965   0.5633   0.1587     C
C        0.397  0.24182   0.4738     C
O        0.405  0.48305   0.2211     O
H       0.4071   0.0244    0.214     H
C       0.4076   0.0544   0.1859     C
C       0.4097  0.18921   0.4867     C
H       0.4104   0.9962   0.4103     H
H       0.4111   0.7026   0.9204     H
C       0.4122  0.32505   0.4125     C
C       0.4135    0.143   0.1056     C
O      0.41579  0.45214  0.52127     O
H       0.4163    0.173   0.0787     H
H       0.4173   0.7963   0.9105     H
C       0.4193   0.6566   0.8308     C
C       0.4196   0.5922   0.7288     C
H       0.4218   0.6727   0.0829     H
Mn      0.4269  0.41686  0.30158    Mn
C       0.4281  0.26863    0.428     C
S      0.43971  0.82377   0.7718     S
C       0.4401   0.5257   0.2321     C
C       0.4401    0.608   0.1578     C
O       0.4409  0.34678    0.371     O
C       0.4548  0.16307   0.4548     C
O       0.4596  0.08091   0.5394     O
O        0.461  0.91918     0.54     O
S      0.46579  0.09614  0.46593     S
H        0.467   0.6719   0.8331     H
O       0.4702  0.77321    0.805     O
C       0.4743   0.0897    0.227     C
C       0.4743  0.24161   0.3976     C
C        0.477    0.133   0.1861     C
O      0.47927  0.54811  0.58492     O
O       0.4819  0.61439   0.7311     O
H       0.4834   0.9167   0.7179     H
H       0.4843   0.8282   0.6129     H
C       0.4863  0.18952   0.4096     C
H       0.4947   0.6151   0.2006     H
O       0.4965  0.45819   0.7075     O
H       0.4974   0.2592   0.3687     H
Mn         0.5      0.5      0.5    Mn
H       0.5026   0.7408   0.6313     H
O       0.5035  0.54181   0.2925     O
H       0.5053   0.3849   0.7994     H
C       0.5137  0.81048   0.5904     C
H       0.5157   0.1718   0.3871     H
H       0.5166   0.0833   0.2821     H
O       0.5181  0.38561   0.2689     O
O      0.52073  0.45189  0.41508     O
C        0.523    0.867   0.8139     C
C       0.5257  0.75839   0.6024     C
C       0.5257   0.9103    0.773     C
O       0.5298  0.22679    0.195     O
H        0.533   0.3281   0.1669     H
S      0.53421  0.90386  0.53407     S
O        0.539  0.08082     0.46     O
O       0.5404  0.91909   0.4606     O
C       0.5452  0.83693   0.5452     C
O       0.5591  0.65322    0.629     O
C       0.5599    0.392   0.8422     C
C       0.5599   0.4743   0.7679     C
S      0.56029  0.17623   0.2282     S
C       0.5719  0.73137    0.572     C
Mn      0.5731  0.58314  0.69842    Mn
H       0.5782   0.3273   0.9171     H
C       0.5804   0.4078   0.2712     C
C       0.5807   0.3434   0.1692     C
H       0.5827   0.2037   0.0895     H
H       0.5837    0.827   0.9213     H
O      0.58421  0.54786  0.47873     O
C       0.5865    0.857   0.8944     C
C       0.5878  0.67495   0.5875     C
H       0.5889   0.2974   0.0796     H
H       0.5896   0.0038   0.5897     H
C       0.5903  0.81079   0.5133     C
C       0.5924   0.9456   0.8141     C
H       0.5929   0.9756    0.786     H
O        0.595  0.51695   0.7789     O
C        0.603  0.75818   0.5262     C
C       0.6035   0.4367   0.8413     C
O       0.6039   0.1687   0.3188     O
C        0.605   0.3573    0.914     C
Mn     0.60663  0.50004  0.39318    Mn
O       0.6095  0.46758   0.6099     O
H       0.6122   0.8285   0.4833     H
O       0.6128   0.4483   0.3082     O
C       0.6155   0.3242   0.1177     C
C       0.6181   0.3835   0.2203     C
C        0.619    0.176   0.1154     C
C       0.6238  0.92861   0.6239     C
C       0.6242   0.1543   0.1863     C
O       0.6293  0.65311   0.5592     O
C       0.6304  0.98249   0.6305     C
H       0.6327   0.7405   0.5039     H
C       0.6576   0.8915   0.9388     C
C       0.6576    0.937   0.8957     C
O       0.6627  0.54624   0.6629     O
C       0.6643  0.49622   0.6645     C
H       0.6662    0.171   0.0333     H
C       0.6691   0.1562   0.0816     C
C        0.679   0.1154   0.2259     C
H       0.6813   0.8619   0.6804     H
C        0.684   0.4451   0.9059     C
O       0.6842   0.8297   0.3977     O
H        0.685   0.1026   0.2767     H
C       0.6856  0.89773   0.6852     C
C       0.6859   0.3673    0.977     C
C       0.6873   0.3457   0.1253     C
C       0.6896   0.4045   0.2265     C
O        0.692   0.5518   0.3877     O
O       0.6949  0.27263   0.0302     O
Mn     0.69826   0.5832  0.57292    Mn
C       0.6999   0.0027   0.6999     C
H        0.701   0.8841   0.9929     H
H       0.7053   0.0385   0.7051     H
H       0.7067   0.3986    0.707     H
O       0.7069  0.45812   0.4958     O
H       0.7121   0.4751   0.9049     H
H       0.7143   0.4328   0.2618     H
H        0.719   0.9169   0.4845     H
O       0.7204  0.01703   0.9046     O
C       0.7206   0.1163   0.1187     C
H       0.7221   0.8971   0.3126     H
C       0.7259   0.4103   0.9735     C
C       0.7264   0.0943   0.1917     C
C       0.7267   0.3841   0.1801     C
S       0.7276  0.32386  0.05999     S
C       0.7296   0.5921   0.4202     C
O       0.7303  0.61371   0.4813     O
C       0.7317   0.9736   0.9389     C
H       0.7386    0.566    0.283     H
C       0.7389  0.47305   0.7387     C
C       0.7477  0.41975   0.7479     C
C       0.7523  0.91975   0.7521     C
C       0.7611  0.97305   0.7613     C
H       0.7614    0.066    0.217     H
C       0.7683   0.4736   0.5611     C
O       0.7697  0.11371   0.0187     O
C       0.7704   0.0921   0.0798     C
S       0.7724  0.82386  0.44001     S
C       0.7733   0.8841   0.3199     C
C       0.7736   0.5943   0.3083     C
C       0.7741   0.9103   0.5265     C
H       0.7779   0.3971   0.1874     H
C       0.7794   0.6163   0.3813     C
O       0.7796  0.51703   0.5954     O
H        0.781   0.4169   0.0155     H
H       0.7857   0.9328   0.2382     H
H       0.7879   0.9751   0.5951     H
O       0.7931  0.95812   0.0042     O
H       0.7933   0.8986    0.793     H
H       0.7947   0.5385   0.7949     H
H        0.799   0.3841   0.5071     H
C       0.8001   0.5027   0.8001     C
Mn     0.80174   0.0832  0.92708    Mn
O       0.8051  0.77263   0.4698     O
O        0.808   0.0518   0.1123     O
C       0.8104   0.9045   0.2735     C
C       0.8127   0.8457   0.3747     C
C       0.8141   0.8673    0.523     C
C       0.8144  0.39773   0.8148     C
H        0.815   0.6026   0.2233     H
O       0.8158   0.3297   0.1023     O
C        0.816   0.9451   0.5941     C
H       0.8187   0.3619   0.8196     H
C        0.821   0.6154   0.2741     C
C       0.8309   0.6562   0.4184     C
H       0.8338    0.671   0.4667     H
C       0.8357  0.99622   0.8355     C
O       0.8373  0.04624   0.8371     O
C       0.8424   0.3915   0.5612     C
C       0.8424    0.437   0.6043     C
H       0.8673   0.2405   0.9961     H
C       0.8696  0.48249   0.8695     C
O       0.8707  0.15311   0.9408     O
C       0.8758   0.6543   0.3137     C
C       0.8762  0.42861   0.8761     C
C        0.881    0.676   0.3846     C
C       0.8819   0.8835   0.2797     C
C       0.8845   0.8242   0.3823     C
O       0.8872   0.9483   0.1918     O
H       0.8878   0.3285   0.0167     H
O       0.8905  0.96758   0.8901     O
Mn     0.89337    4e-05  0.10682    Mn
C        0.895   0.8573    0.586     C
O       0.8961   0.6687   0.1812     O
C       0.8965   0.9367   0.6587     C
C        0.897  0.25818   0.9738     C
O        0.905  0.01695   0.7211     O
H       0.9071   0.4756    0.714     H
C       0.9076   0.4456   0.6859     C
C       0.9097  0.31079   0.9867     C
H       0.9104   0.5038   0.9103     H
H       0.9111   0.7974   0.4204     H
C       0.9122  0.17495   0.9125     C
C       0.9135    0.357   0.6056     C
O      0.91579  0.04786  0.02127     O
H       0.9163    0.327   0.5787     H
H       0.9173   0.7037   0.4105     H
C       0.9193   0.8434   0.3308     C
C       0.9196   0.9078   0.2288     C
H       0.9218   0.8273   0.5829     H
Mn      0.9269  0.08314  0.80158    Mn
C       0.9281  0.23137    0.928     C
S      0.93971  0.67623   0.2718     S
C       0.9401    0.892   0.6578     C
C       0.9401   0.9743   0.7321     C
O       0.9409  0.15322    0.871     O
C       0.9548  0.33693   0.9548     C
O       0.9596  0.41909   0.0394     O
O        0.961  0.58082     0.04     O
S      0.96579  0.40386  0.96593     S
H        0.967   0.8281   0.3331     H
O       0.9702  0.72679    0.305     O
C       0.9743  0.25839   0.8976     C
C       0.9743   0.4103    0.727     C
C        0.977    0.367   0.6861     C
O      0.97927  0.95189  0.08492     O
O       0.9819  0.88561   0.2311     O
H       0.9834   0.5833   0.2179     H
H       0.9843   0.6718   0.1129     H
C       0.9863  0.31048   0.9096     C
H       0.9947   0.8849   0.7006     H
O       0.9965  0.04181   0.2075     O
H       0.9974   0.2408   0.8687     H
