data_I
_chemical_name_common  '/home/zhangsd/repos/MofS-CGCNN/ML/data/SSD/clean_cifs/WOHZAU_clean'
_cell_length_a  9.08350
_cell_length_b  9.08350
_cell_length_c 15.91930
_cell_angle_alpha 88.41730
_cell_angle_beta  88.41730
_cell_angle_gamma 84.77170
_space_group_name_H-M_alt      'P 1'


loop_
_space_group_symop_operation_xyz
  'x, y, z' 

loop_
_atom_site_label
_atom_site_fract_x
_atom_site_fract_y
_atom_site_fract_z
_atom_site_type_symbol
C       0.0167   0.6157   0.0942     C
H       0.0183   0.4813   0.9107     H
C       0.0256   0.5884   0.3688     C
H       0.0293   0.6575    0.038     H
C       0.0328   0.6446   0.2784     C
H       0.0642   0.1852   0.8532     H
H       0.0653   0.7445   0.2782     H
O       0.0905   0.4601   0.6024     O
C       0.0988    0.284   0.8558     C
C        0.116    0.347   0.7657     C
H       0.1215   0.4449   0.2305     H
O       0.1408   0.5926   0.4102     O
C       0.1499   0.5453   0.2298     C
H       0.1502    0.445   0.7673     H
O       0.1614    0.274   0.4508     O
C       0.1666    0.601   0.1385     C
H       0.1852   0.0642   0.3532     H
H        0.189   0.2842   0.7345     H
H       0.2053   0.6983   0.1384     H
C       0.2409   0.2729   0.9032     C
H       0.2441   0.5441   0.2572     H
H       0.2555   0.9347   0.2218     H
O       0.2564   0.3608   0.0903     O
C       0.2729   0.2409   0.4032     C
O        0.274   0.1614   0.9508     O
C       0.2744   0.4958   0.0904     C
Er     0.27785  0.47757  0.51099    Er
C        0.284   0.0988   0.3558     C
H       0.2842    0.189   0.2345     H
H       0.3017   0.7947   0.3616     H
O       0.3234    0.377   0.8994     O
H       0.3425   0.9707    0.462     H
C        0.347    0.116   0.2657     C
C       0.3554   0.9672   0.2216     C
O       0.3608   0.2564   0.5903     O
O        0.377   0.3234   0.3994     O
O       0.3826   0.5424   0.0495     O
C       0.3843   0.9833   0.4058     C
C        0.399   0.8334   0.3615     C
O       0.4074   0.8592   0.0898     O
C       0.4116   0.9744   0.1312     C
H       0.4449   0.1215   0.7305     H
H        0.445   0.1502   0.2673     H
C       0.4547   0.8501   0.2702     C
H       0.4559   0.7559   0.2428     H
O       0.4576   0.6174   0.4505     O
O       0.4601   0.0905   0.1024     O
Er     0.47757  0.27785  0.01099    Er
H       0.4813   0.0183   0.4107     H
C       0.4958   0.2744   0.5904     C
C       0.5042   0.7256   0.4096     C
H       0.5187   0.9817   0.5893     H
Er     0.52243  0.72215  0.98901    Er
O       0.5399   0.9095   0.8976     O
O       0.5424   0.3826   0.5495     O
H       0.5441   0.2441   0.7572     H
C       0.5453   0.1499   0.7298     C
H        0.555   0.8498   0.7327     H
H       0.5551   0.8785   0.2695     H
C       0.5884   0.0256   0.8688     C
O       0.5926   0.1408   0.9102     O
C        0.601   0.1666   0.6385     C
C       0.6157   0.0167   0.5942     C
O       0.6174   0.4576   0.9505     O
O        0.623   0.6766   0.6006     O
O       0.6392   0.7436   0.4097     O
C       0.6446   0.0328   0.7784     C
C        0.653    0.884   0.7343     C
H       0.6575   0.0293    0.538     H
O       0.6766    0.623   0.1006     O
H       0.6983   0.2053   0.6384     H
H       0.7158    0.811   0.7655     H
C        0.716   0.9012   0.6442     C
Er     0.72215  0.52243  0.48901    Er
C       0.7256   0.5042   0.9096     C
O        0.726   0.8386   0.0492     O
C       0.7271   0.7591   0.5968     C
O       0.7436   0.6392   0.9097     O
H       0.7445   0.0653   0.7782     H
H       0.7559   0.4559   0.7428     H
C       0.7591   0.7271   0.0968     C
H       0.7947   0.3017   0.8616     H
H        0.811   0.7158   0.2655     H
H       0.8148   0.9358   0.6468     H
C       0.8334    0.399   0.8615     C
O       0.8386    0.726   0.5492     O
H       0.8498    0.555   0.2327     H
C       0.8501   0.4547   0.7702     C
O       0.8592   0.4074   0.5898     O
H       0.8785   0.5551   0.7695     H
C        0.884    0.653   0.2343     C
C       0.9012    0.716   0.1442     C
O       0.9095   0.5399   0.3976     O
H       0.9347   0.2555   0.7218     H
H       0.9358   0.8148   0.1468     H
C       0.9672   0.3554   0.7216     C
H       0.9707   0.3425    0.962     H
C       0.9744   0.4116   0.6312     C
H       0.9817   0.5187   0.0893     H
C       0.9833   0.3843   0.9058     C
