data_I
_chemical_name_common  '/home/zhangsd/repos/MofS-CGCNN/ML/data/SSD/clean_cifs/WOPDEL_clean'
_cell_length_a 13.55830
_cell_length_b 13.90940
_cell_length_c 16.28000
_cell_angle_alpha 107.80200
_cell_angle_beta  90.00000
_cell_angle_gamma 119.16900
_space_group_name_H-M_alt      'P 1'


loop_
_space_group_symop_operation_xyz
  'x, y, z' 

loop_
_atom_site_label
_atom_site_fract_x
_atom_site_fract_y
_atom_site_fract_z
_atom_site_type_symbol
C       0.0057   0.6842   0.5394     C
H       0.0104   0.2522   0.2925     H
C       0.0111   0.6564   0.2996     C
H       0.0137   0.3714   0.3117     H
Mn     0.02978  0.58918  0.13576    Mn
C       0.0319   0.3474   0.6153     C
C        0.035    0.711    0.699     C
O        0.041     0.33   0.7567     O
C       0.0432   0.6862   0.4595     C
O       0.0649      0.4   0.9578     O
H       0.0752   0.6912   0.9117     H
H       0.0919   0.7462   0.7506     H
O        0.092   0.6392   0.2836     O
C       0.0934   0.7278   0.6216     C
H       0.0994   0.5738    0.577     H
H       0.0999    0.845   0.1373     H
C       0.1074   0.3486   0.4587     C
H       0.1198   0.7106   0.4565     H
O       0.1236   0.5042   0.1025     O
C       0.1259    0.436   0.0317     C
H       0.1332    0.344   0.4055     H
N       0.1337    0.584   0.8765     N
C       0.1407   0.6886   0.8983     C
C       0.1448   0.3838   0.6119     C
H       0.1488   0.9024   0.6543     H
C       0.1553    0.656   0.6033     C
C       0.1717   0.8522   0.1354     C
N        0.179    0.758   0.1328     N
C       0.1842    0.389   0.5348     C
C       0.1842   0.8554   0.6425     C
H       0.1949    0.405   0.6617     H
H       0.1968     0.67   0.6575     H
C       0.2048    0.389   0.0348     C
H       0.2078     0.68   0.5642     H
H       0.2101    0.405   0.1617     H
H       0.2108    0.344   0.9055     H
H       0.2225   0.8642   0.5934     H
H         0.23   0.5152    0.842     H
H         0.23   0.9812   0.3622     H
C       0.2303   0.5856   0.8576     C
H       0.2318    0.858    0.919     H
C       0.2335   0.7888   0.9023     C
C        0.239   0.3838   0.1119     C
H        0.239   0.8808   0.6931     H
C       0.2412   0.3486   0.9587     C
H       0.2418   0.2522   0.7925     H
H       0.2464   0.0976   0.8457     H
H       0.2488   0.0188   0.1378     H
H       0.2549    0.155   0.3627     H
C        0.261    0.958   0.1357     C
H       0.2852   0.5152    0.342     H
H       0.2858   0.6794   0.3463     H
C       0.2861   0.7768    0.132     C
O        0.289     0.33   0.2567     O
H       0.2971   0.7158   0.1319     H
C        0.303    0.042   0.3643     C
H       0.3042   0.8492   0.3517     H
C       0.3101    0.436   0.5317     C
C       0.3155   0.3474   0.1153     C
C       0.3195   0.1478   0.3646     C
C       0.3215   0.3158   0.9606     C
C        0.324    0.289    0.801     C
C       0.3288   0.1446   0.8575     C
C        0.329    0.684   0.8597     C
C       0.3342    0.789   0.8812     C
O       0.3351      0.4   0.4578     O
H       0.3457   0.2538   0.7494     H
C       0.3547   0.3436   0.2004     C
C        0.355    0.684   0.3597     C
C       0.3553   0.5856   0.3576     C
C        0.357   0.3138   0.0405     C
H       0.3577   0.3714   0.8117     H
H       0.3582   0.1192   0.8069     H
H       0.3583   0.1358   0.9066     H
C       0.3656   0.2722   0.8784     C
C       0.3693   0.9724   0.1327     C
H       0.3738    0.142    0.581     H
C        0.378   0.8756   0.1313     C
C       0.3789    0.913   0.3657     C
O       0.3806   0.5042   0.6025     O
H        0.384   0.3088   0.5883     H
H       0.3936   0.6794   0.8463     H
C       0.3969   0.0276   0.3673     C
H       0.4092   0.2894   0.0435     H
H       0.4187   0.7158   0.6319     H
N        0.421    0.242   0.3672     N
H       0.4241   0.9626   0.8992     H
H       0.4314     0.88   0.6298     H
C       0.4321    0.897   0.8836     C
Mn      0.4406  0.41082  0.36424    Mn
C       0.4447   0.2112   0.5977     C
H       0.4486     0.88   0.1298     H
N       0.4503    0.584   0.3765     N
C       0.4521   0.3114   0.6017     C
O       0.4528   0.3608   0.2164     O
C       0.4548    0.789   0.3812     C
H        0.455   0.1508   0.1483     H
H       0.4615   0.0374   0.6008     H
C       0.4649    0.897   0.3836     C
C       0.4659    0.087   0.1343     C
H       0.4722     0.68   0.0642     H
H       0.4732     0.67   0.1575     H
H       0.4744   0.5738    0.077     H
C       0.4907   0.7768    0.632     C
C       0.4976   0.8756   0.6313     C
C       0.4993    0.344   0.8967     C
C       0.5007    0.656   0.1033     C
C       0.5024   0.1244   0.3687     C
C       0.5093   0.2232    0.368     C
H       0.5256   0.4262    0.923     H
H       0.5268     0.33   0.8425     H
H       0.5278     0.32   0.9358     H
C       0.5341    0.913   0.8657     C
C       0.5351    0.103   0.6164     C
H       0.5385   0.9626   0.3992     H
H        0.545   0.8492   0.8517     H
C       0.5452    0.211   0.6188     C
O       0.5472   0.6392   0.7836     O
C       0.5479   0.6886   0.3983     C
N       0.5497    0.416   0.6235     N
H       0.5514     0.12   0.8702     H
C       0.5553   0.7888   0.4023     C
Mn      0.5594  0.58918  0.63576    Mn
C       0.5679    0.103   0.1164     C
H       0.5686     0.12   0.3702     H
H       0.5759   0.0374   0.1008     H
N        0.579    0.758   0.6328     N
H       0.5813   0.2842   0.3681     H
H       0.5908   0.7106   0.9565     H
C       0.6031   0.9724   0.6327     C
H       0.6064   0.3206   0.1537     H
H        0.616   0.6912   0.4117     H
O       0.6194   0.4958   0.3975     O
C       0.6211    0.087   0.6343     C
C        0.622   0.1244   0.8687     C
H       0.6262    0.858    0.419     H
C       0.6307   0.0276   0.8673     C
C       0.6344   0.7278   0.1216     C
H       0.6417   0.8642   0.0934     H
H       0.6418   0.8808   0.1931     H
H       0.6423   0.6286   0.1883     H
C        0.643   0.6862   0.9595     C
C       0.6447   0.4144   0.6424     C
C        0.645    0.316   0.6403     C
C       0.6453   0.6564   0.7996     C
H       0.6543   0.7462   0.2506     H
O       0.6649      0.6   0.5422     O
C       0.6658    0.211   0.1188     C
C        0.671    0.316   0.1403     C
C       0.6712   0.8554   0.1425     C
C        0.676    0.711    0.199     C
C       0.6785   0.6842   0.0394     C
C       0.6805   0.8522   0.6354     C
C       0.6845   0.6526   0.8847     C
C       0.6899    0.564   0.4683     C
H       0.6958   0.1508   0.6483     H
C        0.697    0.958   0.6357     C
H       0.7029   0.2842   0.8681     H
O        0.711     0.67   0.7433     O
C       0.7139   0.2232    0.868     C
H       0.7142   0.3206   0.6537     H
H       0.7148   0.4848    0.658     H
C        0.739    0.042   0.8643     C
H       0.7451    0.845   0.6373     H
H       0.7512   0.9812   0.8622     H
H       0.7536   0.9024   0.1543     H
H       0.7582   0.7478   0.2075     H
C       0.7588   0.6514   0.0413     C
H        0.761   0.1192   0.3069     H
C        0.761   0.6162   0.8881     C
C       0.7665   0.2112   0.0977     C
H       0.7682    0.142    0.081     H
C       0.7697   0.4144   0.1424     C
H         0.77   0.0188   0.6378     H
H         0.77   0.4848    0.158     H
H       0.7775   0.1358   0.4066     H
H       0.7892    0.656   0.0945     H
H       0.7899    0.595   0.8383     H
H       0.7922     0.32   0.4358     H
C       0.7952    0.611   0.9652     C
H       0.8032     0.33   0.3425     H
H       0.8051    0.595   0.3383     H
C       0.8158   0.1446   0.3575     C
C       0.8158    0.611   0.4652     C
N        0.821    0.242   0.8672     N
C       0.8283   0.1478   0.8646     C
C       0.8447    0.344   0.3967     C
H       0.8512   0.0976   0.3457     H
C       0.8552   0.6162   0.3881     C
C       0.8593   0.3114   0.1017     C
N       0.8663    0.416   0.1235     N
H       0.8668    0.656   0.5945     H
C       0.8741    0.564   0.9683     C
O       0.8764   0.4958   0.8975     O
H       0.8802   0.2894   0.5435     H
C       0.8926   0.6514   0.5413     C
H       0.9001    0.155   0.8627     H
H       0.9006   0.4262    0.423     H
C       0.9066   0.2722   0.3784     C
O        0.908   0.3608   0.7164     O
H       0.9081   0.2538   0.2494     H
H       0.9248   0.3088   0.0883     H
O       0.9351      0.6   0.0422     O
C       0.9568   0.3138   0.5405     C
O        0.959     0.67   0.2433     O
C        0.965    0.289    0.301     C
C       0.9681   0.6526   0.3847     C
Mn     0.97022  0.41082  0.86424    Mn
H       0.9863   0.6286   0.6883     H
C       0.9889   0.3436   0.7004     C
H       0.9896   0.7478   0.7075     H
C       0.9943   0.3158   0.4606     C
