data_I
_chemical_name_common  '/home/zhangsd/repos/MofS-CGCNN/ML/data/SSD/clean_cifs/WORREC_clean'
_cell_length_a 10.00620
_cell_length_b 15.38740
_cell_length_c 15.38740
_cell_angle_alpha 75.43030
_cell_angle_beta  71.02590
_cell_angle_gamma 71.02590
_space_group_name_H-M_alt      'P 1'


loop_
_space_group_symop_operation_xyz
  'x, y, z' 

loop_
_atom_site_label
_atom_site_fract_x
_atom_site_fract_y
_atom_site_fract_z
_atom_site_type_symbol
C          0.0   0.0722   0.9278     C
H          0.0   0.1216   0.8784     H
H          0.0   0.8784   0.1216     H
C          0.0   0.9278   0.0722     C
C      0.01107  0.01143  0.08423     C
C      0.01107  0.08423  0.01143     C
C      0.01904  0.02206  0.17606     C
C      0.01904  0.17606  0.02206     C
C      0.03053  0.00947  0.65247     C
C      0.03053  0.65247  0.00947     C
C      0.04636  0.02184  0.74224     C
C      0.04636  0.74224  0.02184     C
O      0.05736  0.03193  0.34435     O
O      0.05736  0.34435  0.03193     O
O      0.06636  0.53193  0.84435     O
O      0.06636  0.84435  0.53193     O
H       0.0725   0.0613   0.1765     H
H       0.0725   0.1765   0.0613     H
Cu     0.09987  0.04546  0.45454    Cu
Cu     0.09987  0.45454  0.04546    Cu
H       0.1021   0.0604    0.741     H
H       0.1021    0.741   0.0604     H
O      0.10976  0.04706  0.57882     O
O      0.10976  0.57882  0.04706     O
H       0.1897   0.5613   0.6765     H
H       0.1897   0.6765   0.5613     H
C      0.19247  0.49053  0.84753     C
C      0.19247  0.84753  0.49053     C
O      0.23564  0.45294  0.92118     O
O      0.23564  0.92118  0.45294     O
C      0.28284  0.52206  0.67606     C
C      0.28284  0.67606  0.52206     C
C      0.31044  0.47816  0.75776     C
C      0.31044  0.75776  0.47816     C
C      0.39327  0.51143  0.58423     C
C      0.39327  0.58423  0.51143     C
H       0.4035   0.4396    0.759     H
H       0.4035    0.759   0.4396     H
H          0.5   0.3784   0.6216     H
C          0.5   0.4278   0.5722     C
C          0.5   0.5722   0.4278     C
H          0.5   0.6216   0.3784     H
H       0.5965    0.241   0.5604     H
H       0.5965   0.5604    0.241     H
C      0.60673  0.41577  0.48857     C
C      0.60673  0.48857  0.41577     C
C      0.68956  0.24224  0.52184     C
C      0.68956  0.52184  0.24224     C
C      0.71716  0.32394  0.47794     C
C      0.71716  0.47794  0.32394     C
O      0.76436  0.07882  0.54706     O
O      0.76436  0.54706  0.07882     O
C      0.80753  0.15247  0.50947     C
C      0.80753  0.50947  0.15247     C
H       0.8103   0.3235   0.4387     H
H       0.8103   0.4387   0.3235     H
O      0.89024  0.42118  0.95294     O
O      0.89024  0.95294  0.42118     O
H       0.8979    0.259   0.9396     H
H       0.8979   0.9396    0.259     H
Cu     0.90013  0.54546  0.95454    Cu
Cu     0.90013  0.95454  0.54546    Cu
H       0.9275   0.8235   0.9387     H
H       0.9275   0.9387   0.8235     H
O      0.93364  0.15565  0.46807     O
O      0.93364  0.46807  0.15565     O
O      0.94264  0.65565  0.96807     O
O      0.94264  0.96807  0.65565     O
C      0.95364  0.25776  0.97816     C
C      0.95364  0.97816  0.25776     C
C      0.96947  0.34753  0.99053     C
C      0.96947  0.99053  0.34753     C
C      0.98096  0.82394  0.97794     C
C      0.98096  0.97794  0.82394     C
C      0.98893  0.91577  0.98857     C
C      0.98893  0.98857  0.91577     C
