data_I
_chemical_name_common  '/home/zhangsd/repos/MofS-CGCNN/ML/data/SSD/clean_cifs/WUDQIW_clean'
_cell_length_a  8.35670
_cell_length_b  9.04340
_cell_length_c 12.05500
_cell_angle_alpha 90.00000
_cell_angle_beta  90.00000
_cell_angle_gamma 90.00000
_space_group_name_H-M_alt      'P 1'


loop_
_space_group_symop_operation_xyz
  'x, y, z' 

loop_
_atom_site_label
_atom_site_fract_x
_atom_site_fract_y
_atom_site_fract_z
_atom_site_type_symbol
N      0.01345  0.82308  0.52695     N
C        0.018   0.4452  0.03035     C
H        0.025   0.0379   0.4848     H
O      0.05948  0.59132   0.6937     O
C       0.0752  0.21832  0.02402     C
H        0.078   0.1202   0.0011     H
O      0.09179  0.35828   0.7523     O
N      0.11949  0.41616  0.11242     N
H       0.1267    0.491   0.2683     H
Ni     0.12879  0.81024  0.68074    Ni
H       0.1399   0.6171   0.1798     H
C       0.1421  0.47855  0.71404     C
N      0.15781  0.26872   0.1098     N
C       0.1759   0.5182   0.1983     C
C       0.3241   0.4818   0.6983     C
N      0.34219  0.73128   0.6098     N
C       0.3579  0.52145  0.21404     C
H       0.3601   0.3829   0.6798     H
Ni     0.37121  0.18976  0.18074    Ni
H       0.3733    0.509   0.7683     H
N      0.38051  0.58384  0.61242     N
O      0.40821  0.64172   0.2523     O
H        0.422   0.8798   0.5011     H
C       0.4248  0.78168  0.52402     C
O      0.44052  0.40868   0.1937     O
H        0.475   0.9621   0.9848     H
C        0.482   0.5548  0.53035     C
N      0.48655  0.17692  0.02695     N
N      0.51345  0.67692  0.47305     N
C        0.518   0.0548  0.96965     C
H        0.525   0.4621   0.5152     H
O      0.55948  0.90868   0.3063     O
C       0.5752  0.28168  0.97598     C
H        0.578   0.3798   0.9989     H
O      0.59179  0.14172   0.2477     O
N      0.61949  0.08384  0.88758     N
H       0.6267    0.009   0.7317     H
Ni     0.62879  0.68976  0.31926    Ni
H       0.6399   0.8829   0.8202     H
C       0.6421  0.02145  0.28596     C
N      0.65781  0.23128   0.8902     N
C       0.6759   0.9818   0.8017     C
C       0.8241   0.0182   0.3017     C
N      0.84219  0.76872   0.3902     N
C       0.8579  0.97855  0.78596     C
H       0.8601   0.1171   0.3202     H
Ni     0.87121  0.31024  0.81926    Ni
H       0.8733    0.991   0.2317     H
N      0.88051  0.91616  0.38758     N
O      0.90821  0.85828   0.7477     O
H        0.922   0.6202   0.4989     H
C       0.9248  0.71832  0.47598     C
O      0.94052  0.09132   0.8063     O
H        0.975   0.5379   0.0152     H
C        0.982   0.9452  0.46965     C
N      0.98655  0.32308  0.97305     N
