data_I
_chemical_name_common  '/home/zhangsd/repos/MofS-CGCNN/ML/data/SSD/clean_cifs/WUDTIA_clean'
_cell_length_a  9.84010
_cell_length_b 10.05170
_cell_length_c 18.06420
_cell_angle_alpha 90.22100
_cell_angle_beta  93.85700
_cell_angle_gamma 113.89100
_space_group_name_H-M_alt      'P 1'


loop_
_space_group_symop_operation_xyz
  'x, y, z' 

loop_
_atom_site_label
_atom_site_fract_x
_atom_site_fract_y
_atom_site_fract_z
_atom_site_type_symbol
H       0.0065   0.4511   0.7644     H
C       0.0081    0.033   0.8749     C
C       0.0122   0.1402   0.9347     C
C       0.0201   0.3354    0.047     C
C       0.0237   0.4428   0.1067     C
C       0.0507   0.4954   0.2444     C
H       0.0519   0.9699    0.895     H
H       0.0632   0.0848   0.8347     H
H       0.0761    0.561   0.8919     H
C       0.0775   0.4228   0.1854     C
H       0.0873   0.5396    0.092     H
H       0.0884   0.5412   0.3541     H
H       0.0934    0.024   0.1429     H
C       0.1068   0.4902   0.3158     C
C       0.1151   0.7804   0.9766     C
C       0.1198    0.875   0.0346     C
C       0.1474   0.2519   0.9598     C
C       0.1511   0.3521    0.015     C
C       0.1588   0.3402   0.2012     C
H       0.1769   0.2891   0.1629     H
C       0.1904   0.4095    0.331     C
C       0.2139   0.3321   0.2732     C
H       0.2264    0.758   0.8885     H
H       0.2372   0.7694   0.1463     H
H       0.2518   0.4815   0.8636     H
H       0.2531   0.0898    0.059     H
C       0.2545   0.8053   0.9368     C
C       0.2585   0.4086   0.4078     C
C        0.265    0.999   0.0636     C
H       0.2666   0.2745   0.2826     H
O       0.2679    0.509  0.45344     O
H       0.2804   0.5463   0.0694     H
C       0.2853   0.8543   0.1754     C
C       0.2904   0.4375   0.8304     C
C       0.2908   0.2594    0.929     C
H        0.293    0.164    0.927     H
H       0.2976   0.5714   0.7466     H
C       0.2985   0.4767   0.0396     C
O       0.3024   0.3095  0.42133     O
H       0.3038   0.7542   0.2694     H
H       0.3104   0.9078   0.9318     H
H       0.3147   0.7657   0.9651     H
C       0.3162   0.9875   0.1438     C
C       0.3176   0.4914   0.7599     C
C       0.3198   0.3195   0.8522     C
C       0.3247    0.845   0.2495     C
H       0.3428   0.0031   0.0322     H
H       0.3477    0.523   0.9967     H
H       0.3605   0.4396   0.0682     H
C       0.3739   0.4276   0.7093     C
H        0.377    0.316     0.96     H
C       0.3823     0.26    0.802     C
O       0.3848   0.5993  0.61815     O
C       0.3928   0.1115   0.1877     C
C       0.3948   0.9692   0.2941     C
C       0.3999   0.4839   0.6327     C
C       0.4075    0.312   0.7312     C
H       0.4076   0.1837   0.8162     H
H       0.4197   0.2021   0.1667     H
C       0.4242   0.9565   0.3761     C
O       0.4263   0.8382  0.39687     O
C       0.4309   0.1041   0.2628     C
O       0.4364   0.4125  0.58596     O
O       0.4419   0.0609  0.41787     O
H       0.4474    0.269   0.6982     H
H       0.4803    0.189   0.2918     H
Ce     0.49269  0.72342  0.50362    Ce
Ce     0.50731  0.27658  0.49638    Ce
H       0.5197    0.811   0.7082     H
H       0.5526    0.731   0.3018     H
O       0.5581   0.9391  0.58213     O
O       0.5636   0.5875  0.41404     O
C       0.5691   0.8959   0.7372     C
O       0.5737   0.1618  0.60313     O
C       0.5758   0.0435   0.6239     C
H       0.5803   0.7979   0.8333     H
H       0.5924   0.8163   0.1838     H
C       0.5925    0.688   0.2688     C
C       0.6001   0.5161   0.3673     C
C       0.6052   0.0308   0.7059     C
C       0.6072   0.8885   0.8123     C
O       0.6152   0.4007  0.38185     O
C       0.6177     0.74    0.198     C
H        0.623    0.684     0.04     H
C       0.6261   0.5724   0.2907     C
H       0.6395   0.5604   0.9318     H
H       0.6523    0.477   0.0033     H
H       0.6572   0.9969   0.9678     H
C       0.6753    0.155   0.7505     C
C       0.6802   0.6805   0.1478     C
C       0.6824   0.5086   0.2401     C
C       0.6838   0.0125   0.8562     C
H       0.6853   0.2343   0.0349     H
H       0.6896   0.0922   0.0682     H
H       0.6962   0.2458   0.7306     H
O       0.6976   0.6905  0.57867     O
C       0.7015   0.5233   0.9604     C
H       0.7024   0.4286   0.2534     H
H        0.707    0.836    0.073     H
C       0.7092   0.7406    0.071     C
C       0.7096   0.5625   0.1696     C
C       0.7147   0.1457   0.8246     C
H       0.7196   0.4537   0.9306     H
O       0.7321    0.491  0.54656     O
H       0.7334   0.7255   0.7174     H
C        0.735    0.001   0.9364     C
C       0.7415   0.5914   0.5922     C
C       0.7455   0.1947   0.0632     C
H       0.7469   0.9102    0.941     H
H       0.7482   0.5185   0.1364     H
H       0.7628   0.2306   0.8537     H
H       0.7736    0.242   0.1115     H
C       0.7861   0.6679   0.7268     C
C       0.8096   0.5905    0.669     C
H       0.8231   0.7109   0.8371     H
C       0.8412   0.6598   0.7988     C
C       0.8489   0.6479    0.985     C
C       0.8526   0.7481   0.0402     C
C       0.8802    0.125   0.9654     C
C       0.8849   0.2196   0.0234     C
C       0.8932   0.5098   0.6842     C
H       0.9066    0.976   0.8571     H
H       0.9116   0.4588   0.6459     H
H       0.9127   0.4604    0.908     H
C       0.9225   0.5772   0.8146     C
H       0.9239    0.439   0.1081     H
H       0.9368   0.9152   0.1653     H
H       0.9481   0.0301    0.105     H
C       0.9493   0.5046   0.7556     C
C       0.9763   0.5572   0.8933     C
C       0.9799   0.6646    0.953     C
C       0.9878   0.8598   0.0653     C
C       0.9919    0.967   0.1251     C
H       0.9935   0.5489   0.2356     H
