data_I
_chemical_name_common  '/home/zhangsd/repos/MofS-CGCNN/ML/data/SSD/clean_cifs/WUYXAR_clean'
_cell_length_a 15.50800
_cell_length_b 16.24100
_cell_length_c 18.38300
_cell_angle_alpha 108.70900
_cell_angle_beta  104.27900
_cell_angle_gamma 107.16000
_space_group_name_H-M_alt      'P 1'


loop_
_space_group_symop_operation_xyz
  'x, y, z' 

loop_
_atom_site_label
_atom_site_fract_x
_atom_site_fract_y
_atom_site_fract_z
_atom_site_type_symbol
H       0.0104   0.8871   0.1569     H
H       0.0164   0.7478   0.3755     H
C       0.0175    0.213   0.7972     C
C       0.0205   0.8084   0.4103     C
C       0.0387   0.1653   0.8467     C
H       0.0432   0.1971   0.5908     H
O       0.0567   0.8751   0.3816     O
H       0.0631   0.8282   0.4661     H
H       0.0758   0.3262   0.7837     H
C       0.0859   0.8176   0.2559     C
C       0.0886   0.2906   0.8126     C
H       0.1017   0.0435   0.4487     H
C       0.1177   0.8585   0.3435     C
H       0.1262   0.7751   0.1615     H
C       0.1337   0.1976   0.9007     C
H       0.1472   0.1643   0.9317     H
C       0.1494   0.8038   0.2191     C
H       0.1606   0.1496   0.4676     H
C       0.1611    0.099   0.4837     C
H       0.1664   0.1184   0.5403     H
C       0.1794   0.3229   0.8675     C
C       0.2062   0.2731   0.9104     C
C       0.2143    0.887   0.3912     C
H       0.2257   0.3808   0.8769     H
H       0.2273   0.7699   0.6197     H
O       0.2464   0.0766   0.4753     O
C       0.2481   0.8302   0.2632     C
C       0.2569   0.9346   0.4831     C
O       0.2637   0.7941   0.4883     O
C       0.2719   0.0313   0.5234     C
H       0.2739   0.8533   0.1321     H
H       0.2788   0.6973      0.7     H
C        0.282   0.8762   0.3506     C
C       0.2839   0.8918   0.5316     C
C         0.29   0.7995     0.66     C
H       0.2917   0.1717   0.7438     H
C       0.3043   0.3068    0.971     C
C        0.308   0.8192   0.1475     C
C       0.3097   0.8047   0.2201     C
C       0.3177   0.0808   0.6083     C
C       0.3206   0.7568   0.7085     C
C       0.3244   0.9355   0.6174     C
C       0.3259   0.2157   0.7279     C
O       0.3271   0.2601   0.0085     O
H       0.3358   0.7249   0.4417     H
C       0.3432   0.0288   0.6527     C
H       0.3452    0.334   0.8226     H
C       0.3454   0.7704   0.4948     C
C       0.3463   0.1857   0.6555     C
H       0.3527   0.7434   0.5342     H
C       0.3543    0.888   0.6721     C
H       0.3551   0.7962   0.0532     H
C       0.3553   0.7841   0.0994     C
C       0.3587   0.3136    0.775     C
O        0.364   0.3842    0.991     O
C       0.3646   0.7545   0.2418     C
H       0.3717   0.7466   0.2905     H
H       0.3751   0.0614     0.71     H
O       0.3776   0.9043    0.398     O
O       0.3852   0.6759   0.8158     O
C       0.3921   0.2485   0.6316     C
H        0.401   0.2277   0.5818     H
H        0.403   0.8267    0.513     H
C       0.4034   0.7306   0.1206     C
C       0.4079   0.3786   0.7547     C
C       0.4083   0.7167   0.1888     C
C       0.4131   0.8014   0.7698     C
H       0.4175   0.9934   0.3497     H
C        0.428   0.3487   0.6823     C
O       0.4289   0.5057   0.8758     O
H       0.4336   0.0434   0.4433     H
C       0.4382   0.9919   0.4028     C
H       0.4416   0.6809   0.2017     H
C       0.4435   0.9327   0.7363     C
C       0.4437   0.7484   0.8216     C
C       0.4474   0.4774   0.8127     C
C       0.4489   0.6808   0.0613     C
O       0.4548   0.6123   0.0652     O
H       0.4639   0.3931   0.6676     H
O       0.4646   0.2133   0.1314     O
O       0.4653    0.719   0.0151     O
H       0.4682   0.0818   0.1774     H
C         0.47   0.8876    0.781     C
Cu     0.48357  0.33052  0.08704    Cu
H       0.4852    0.994   0.7485     H
H       0.4956   0.0017   0.5814     H
O       0.4969   0.4574   0.2057     O
O       0.5031   0.5426   0.7943     O
H       0.5044   0.9983   0.4186     H
H       0.5148    0.006   0.2515     H
Cu     0.51643  0.66948  0.91296    Cu
C         0.53   0.1124    0.219     C
H       0.5318   0.9182   0.8226     H
O       0.5347    0.281   0.9849     O
O       0.5354   0.7867   0.8686     O
H       0.5361   0.6069   0.3324     H
O       0.5452   0.3877   0.9348     O
C       0.5511   0.3192   0.9387     C
C       0.5526   0.5226   0.1873     C
C       0.5563   0.2516   0.1784     C
C       0.5565   0.0673   0.2637     C
H       0.5584   0.3191   0.7983     H
C       0.5618   0.0081   0.5972     C
H       0.5664   0.9566   0.5567     H
O       0.5711   0.4943   0.1242     O
C        0.572   0.6513   0.3177     C
H       0.5825   0.0066   0.6503     H
C       0.5869   0.1986   0.2302     C
C       0.5917   0.2833   0.8112     C
C       0.5921   0.6214   0.2453     C
C       0.5966   0.2694   0.8794     C
H        0.597   0.1733    0.487     H
H        0.599   0.7723   0.4182     H
C       0.6079   0.7515   0.3684     C
O       0.6148   0.3241   0.1842     O
O       0.6224   0.0957    0.602     O
H       0.6249   0.9386     0.29     H
H       0.6283   0.2534   0.7095     H
C       0.6354   0.2455   0.7582     C
O        0.636   0.6158    0.009     O
C       0.6413   0.6864    0.225     C
C       0.6447   0.2159   0.9006     C
H       0.6449   0.2038   0.9468     H
C       0.6457    0.112   0.3279     C
H       0.6473   0.2566   0.4658     H
C       0.6537   0.8143   0.3445     C
C       0.6546   0.2296   0.5052     C
H       0.6548    0.666   0.1774     H
C       0.6568   0.9712   0.3473     C
H       0.6642   0.2751   0.5583     H
O       0.6729   0.7399   0.9915     O
C       0.6741   0.7843   0.2721     C
C       0.6756   0.0645   0.3826     C
C       0.6794   0.2432   0.2915     C
C       0.6823   0.9192   0.3917     C
C       0.6903   0.1953   0.7799     C
C        0.692   0.1808   0.8525     C
C       0.6957   0.6932    0.029     C
H       0.7083   0.8283   0.2562     H
C         0.71   0.2005     0.34     C
C       0.7161   0.1082   0.4684     C
C        0.718   0.1238   0.6494     C
H       0.7212   0.3027      0.3     H
H       0.7261   0.1467   0.8679     H
C       0.7281   0.9687   0.4766     C
O       0.7363   0.2059   0.5117     O
C       0.7431   0.0654   0.5169     C
C       0.7519   0.1698   0.7368     C
O       0.7536   0.9234   0.5247     O
H       0.7727   0.2301   0.3803     H
H       0.7743   0.6192   0.1231     H
C       0.7857    0.113   0.6088     C
C       0.7938   0.7269   0.0896     C
C       0.8206   0.6771   0.1325     C
H       0.8336   0.8816   0.4597     H
C       0.8389    0.901   0.5163     C
H       0.8394   0.8504   0.5324     H
C       0.8506   0.1962   0.7809     C
H       0.8528   0.8357   0.0683     H
C       0.8663   0.8024   0.0993     C
H       0.8738   0.2249   0.8385     H
C       0.8823   0.1415   0.6565     C
H       0.8983   0.9565   0.5513     H
C       0.9114   0.7094   0.1874     C
C       0.9141   0.1824   0.7441     C
H       0.9242   0.6738   0.2163     H
H       0.9369   0.1718   0.5339     H
O       0.9433   0.1249   0.6184     O
H       0.9568   0.8029   0.4092     H
C       0.9613   0.8347   0.1533     C
C       0.9795   0.1916   0.5897     C
C       0.9825    0.787   0.2028     C
H       0.9836   0.2522   0.6245     H
H       0.9896   0.1129   0.8431     H
