data_I
_chemical_name_common  '/home/zhangsd/repos/MofS-CGCNN/ML/data/SSD/clean_cifs/WUYYAS_clean'
_cell_length_a 15.89000
_cell_length_b 18.59600
_cell_length_c 28.50000
_cell_angle_alpha 101.97900
_cell_angle_beta  94.41400
_cell_angle_gamma 108.93100
_space_group_name_H-M_alt      'P 1'


loop_
_space_group_symop_operation_xyz
  'x, y, z' 

loop_
_atom_site_label
_atom_site_fract_x
_atom_site_fract_y
_atom_site_fract_z
_atom_site_type_symbol
H          0.0   0.1278   0.7083     H
H          0.0   0.8722   0.2917     H
H       0.0044   0.8648   0.4372     H
C       0.0078   0.0275   0.6726     C
C       0.0134   0.8798   0.4072     C
H       0.0185   0.0876   0.3606     H
H       0.0247    0.935   0.4123     H
O       0.0256   0.6139   0.7995     O
C       0.0278   0.9264   0.2983     C
H       0.0291   0.9624   0.7607     H
C       0.0394   0.0548   0.3392     C
Cd     0.04015  0.35104  0.26962    Cd
C       0.0427   0.8211    0.765     C
O       0.0452    0.192   0.2462     O
O       0.0624   0.5897   0.7252     O
H        0.064   0.8683   0.3958     H
C       0.0655    0.589   0.7703     C
O       0.0679   0.1642   0.6292     O
O       0.0706   0.7643   0.7609     O
H       0.0782    0.339   0.4237     H
C        0.082   0.9687   0.7801     C
O       0.0857   0.3383   0.3412     O
H       0.0887   0.2879   0.8339     H
C       0.0963   0.0577   0.6561     C
H       0.0994   0.5491   0.8524     H
C       0.1014   0.9037   0.7862     C
C       0.1017   0.9559   0.2788     C
C       0.1126   0.0861   0.3206     C
H       0.1235   0.9223   0.2585     H
H        0.127   0.3544   0.5072     H
C       0.1276   0.3254   0.4324     C
C       0.1278   0.1237    0.636     C
H       0.1292   0.0866   0.7973     H
C       0.1344   0.5525   0.7871     C
C       0.1389   0.5373   0.8322     C
H       0.1408   0.9787   0.6773     H
H        0.141   0.1403   0.3288     H
C       0.1418   0.0435   0.8031     C
H       0.1426    0.341   0.8023     H
C       0.1454   0.3087   0.3446     C
C       0.1462   0.3083   0.8238     C
C       0.1475   0.0398   0.2892     C
C       0.1512   0.3292    0.483     C
O        0.157   0.1524   0.5283     O
C       0.1587   0.0217   0.6639     C
O       0.1617   0.3484   0.2281     O
H       0.1623   0.0481   0.5073     H
H       0.1629   0.2656   0.8073     H
O       0.1653   0.4674   0.2663     O
C       0.1708   0.3042    0.398     C
C       0.1839   0.9156   0.8123     C
O       0.1887   0.2864   0.3158     O
H       0.1943   0.1013   0.4714     H
C       0.1957   0.1001    0.505     C
H       0.1978   0.4962   0.8793     H
C       0.1978   0.5061   0.8486     C
C       0.1996   0.5358   0.7594     C
C       0.2001    0.428   0.2386     C
H       0.2013   0.5459   0.7288     H
H       0.2017   0.8729   0.8132     H
H       0.2036   0.2658   0.7122     H
C       0.2096   0.2216   0.5605     C
C       0.2096   0.2946   0.4933     C
C       0.2098   0.1494   0.6251     C
O       0.2143   0.3547   0.8666     O
C       0.2184    0.056    0.834     C
C       0.2279   0.0668   0.2684     C
C       0.2303    0.273   0.4096     C
C       0.2393   0.2919   0.5439     C
C       0.2409   0.9911   0.8374     C
C       0.2425   0.2247   0.6056     C
H        0.245   0.3557   0.7149     H
C       0.2485    0.046   0.6526     C
C       0.2501   0.2654   0.4562     C
O       0.2566   0.1493   0.2718     O
H       0.2569   0.1151   0.5201     H
C       0.2579   0.5062   0.7759     C
C       0.2583   0.3105   0.7193     C
C       0.2591   0.4888   0.8192     C
H       0.2605   0.2554   0.3856     H
H       0.2661   0.2796   0.0238     H
H       0.2674   0.2593   0.1041     H
O       0.2706   0.0325   0.2463     O
C       0.2709   0.1342   0.8669     C
H       0.2729   0.0044   0.7345     H
C       0.2731   0.1135   0.6331     C
H       0.2736   0.0948   0.9267     H
O       0.2737   0.2051   0.8045     O
C       0.2741   0.4583   0.2141     C
H       0.2765   0.3569   0.1735     H
H       0.2856   0.3199   0.7522     H
C       0.2891   0.1408   0.9162     C
C       0.2903   0.3634   0.5759     C
H       0.2906   0.2407   0.4625     H
H        0.293   0.3898   0.9557     H
C       0.2942   0.2063    0.853     C
H       0.2943   0.9977   0.8565     H
C       0.2947   0.2478   0.0338     C
C       0.2948   0.2941   0.6373     C
C        0.296    0.235   0.0821     C
O       0.2963   0.2105   0.1753     O
C       0.2993   0.3859   0.8548     C
H       0.2998   0.4971   0.7566     H
H       0.3045   0.5091   0.6407     H
H        0.306   0.4094   0.5653     H
H       0.3066    0.576    0.252     H
C        0.307   0.0073   0.6674     C
C        0.307   0.4108   0.1826     C
C       0.3105   0.9905   0.7138     C
C       0.3178   0.3652   0.6244     C
O       0.3193   0.2954    0.687     O
C       0.3232   0.4503   0.8352     C
C       0.3248    0.543   0.2291     C
H       0.3256   0.1879   0.7437     H
C       0.3277   0.2094   0.9501     C
C        0.333     0.18    0.147     C
C       0.3348   0.2792   0.8857     C
C       0.3388   0.1878   0.0959     C
C       0.3392    0.209   0.0032     C
C       0.3407   0.1878    0.777     C
H       0.3421   0.1371   0.7787     H
H       0.3429   0.4236   0.0095     H
O       0.3459   0.3218   0.2647     O
C       0.3507   0.4102   0.9761     C
C       0.3518   0.2823   0.9353     C
O       0.3575   0.1402   0.6211     O
C       0.3587   0.5123   0.6575     C
C       0.3628   0.3516   0.8664     C
H       0.3637   0.9438   0.7594     H
C       0.3664   0.9551   0.7292     C
C       0.3677    0.987    0.638     C
H       0.3691    0.999   0.6079     H
O       0.3768    0.131   0.1596     O
C       0.3791   0.4418   0.6562     C
C       0.3794   0.1518   0.0644     C
H       0.3805   0.6448   0.0918     H
C       0.3808   0.1614   0.0174     C
C       0.3852    0.443   0.1645     C
Cd     0.38683  0.14532  0.23916    Cd
H       0.3881   0.4562   0.9676     H
H       0.3912   0.5653   0.0957     H
O       0.3934    0.351   0.9692     O
H       0.3988   0.2269   0.7903     H
C       0.3993   0.5719   0.2084     C
H       0.4013   0.6269   0.6851     H
H       0.4063   0.4103   0.1431     H
H       0.4075   0.1194   0.0742     H
H       0.4095   0.1361    0.996     H
C       0.4105   0.4809   0.8265     C
C       0.4173   0.5826   0.6827     C
H       0.4224   0.4732   0.2781     H
C       0.4224   0.6177   0.0931     C
C       0.4247   0.9504   0.6516     C
C       0.4274   0.3248   0.2703     C
H       0.4275   0.5255   0.8145     H
H       0.4285   0.6259    0.215     H
C       0.4285    0.935   0.7009     C
H       0.4302   0.1489   0.6831     H
H       0.4312   0.2301   0.6753     H
C       0.4328   0.5233   0.1779     C
C       0.4331   0.1798   0.6598     C
H       0.4493   0.6156   0.0641     H
C       0.4494   0.3811   0.8564     C
O       0.4502    0.272   0.2626     O
C       0.4577   0.4494   0.6832     C
O       0.4583   0.1234   0.3082     O
H       0.4608   0.9353   0.6302     H
H       0.4689   0.4045   0.6865     H
C       0.4759   0.4447   0.8359     C
C       0.4778   0.4769   0.2937     C
H       0.4883   0.1866   0.6466     H
C       0.4899    0.902   0.7182     C
O       0.4907   0.6582   0.1343     O
C       0.4969   0.4099   0.2943     C
O       0.4996   0.9016   0.7612     O
O       0.5004   0.0984   0.2388     O
C       0.5031   0.5901   0.7057     C
O       0.5093   0.3418   0.8657     O
C       0.5101    0.098   0.2818     C
H       0.5117   0.8134   0.3534     H
C       0.5222   0.5231   0.7063     C
C       0.5241   0.5553   0.1641     C
H       0.5311   0.5955   0.3135     H
H       0.5392   0.0647   0.3698     H
O       0.5417   0.8766   0.6918     O
C       0.5423   0.5506   0.3168     C
O       0.5498    0.728   0.7374     O
C       0.5506   0.6189   0.1436     C
H       0.5507   0.3844   0.9359     H
C       0.5669   0.8202   0.3402     C
C       0.5672   0.4767   0.8221     C
H       0.5688   0.7699   0.3247     H
H       0.5698   0.8511   0.3169     H
C       0.5715    0.065   0.2991     C
H       0.5715   0.3741    0.785     H
H       0.5725   0.4745   0.1855     H
C       0.5726   0.6752   0.7297     C
C       0.5753   0.0496   0.3484     C
C       0.5776   0.3823   0.9069     C
H       0.5776   0.5268   0.7219     H
C       0.5827   0.4174   0.3173     C
C       0.5895   0.5191   0.1735     C
H       0.5905   0.8639    0.004     H
H       0.5925   0.8806   0.9258     H
H       0.5937   0.5897   0.8569     H
H       0.5987   0.3731   0.3149     H
C       0.6007   0.4281   0.7916     C
H       0.6012   0.7731   0.2097     H
O       0.6066    0.649   0.0308     O
H       0.6088   0.4347   0.9043     H
H       0.6119   0.5438   0.0324     H
Cd     0.61317  0.85468  0.76084    Cd
C       0.6148    0.557   0.8355     C
C       0.6192   0.8386   0.9826     C
H       0.6195   0.3552   0.9082     H
C       0.6206   0.8482   0.9356     C
C       0.6209   0.5582   0.3438     C
O       0.6232    0.869   0.8404     O
H       0.6309    0.001   0.3921     H
C       0.6323    0.013    0.362     C
C       0.6336   0.0449   0.2708     C
H       0.6363   0.0562   0.2406     H
C       0.6372   0.6484   0.1336     C
C       0.6413   0.4877   0.3425     C
O       0.6425   0.8598   0.3789     O
C       0.6482   0.7177   0.0647     C
C       0.6493   0.5898   0.0239     C
O       0.6541   0.6782   0.7353     O
H       0.6571   0.5764   0.9905     H
H       0.6579   0.8629   0.2213     H
C       0.6593   0.8122    0.223     C
C       0.6608    0.791   0.9968     C
C       0.6612   0.8122   0.9041     C
C       0.6652   0.7208   0.1143     C
C        0.667     0.82    0.853     C
C       0.6723   0.7906   0.0499     C
H       0.6744   0.8121   0.2563     H
C       0.6752    0.457   0.7709     C
C       0.6768   0.5497   0.1648     C
O       0.6807   0.7046    0.313     O
C       0.6822   0.6348   0.3756     C
C       0.6895   0.0095   0.2862     C
C        0.693   0.5892   0.8174     C
C        0.693   0.9927   0.3326     C
H       0.6934    0.424    0.748     H
H        0.694   0.5906   0.4347     H
H       0.6955   0.4909   0.3593     H
H       0.7002   0.5029   0.2434     H
C       0.7007   0.6141   0.1452     C
O       0.7037   0.7895   0.8247     O
C        0.704    0.765   0.9179     C
C       0.7052   0.7059   0.3627     C
C       0.7053   0.7522   0.9662     C
H       0.7057   0.0023   0.1435     H
C       0.7058   0.7937    0.147     C
H        0.707   0.6102   0.0443     H
H       0.7094   0.7593   0.5375     H
C       0.7097   0.6366   0.4241     C
C       0.7109   0.8592   0.0838     C
H       0.7144   0.6801   0.2478     H
H       0.7235   0.6431   0.8265     H
C       0.7259   0.5417   0.7859     C
O       0.7263   0.7949   0.1955     O
H       0.7264   0.9052   0.0733     H
C       0.7269   0.8865   0.3669     C
H       0.7271   0.9956   0.2655     H
C       0.7291   0.8658   0.1331     C
O       0.7294   0.9675   0.7537     O
H       0.7326   0.7407   0.8959     H
H       0.7339   0.7204   0.9762     H
H       0.7395   0.7446   0.6144     H
C       0.7409   0.5112   0.1808     C
C       0.7417   0.6895   0.2807     C
C       0.7421   0.4938   0.2241     C
H       0.7431   0.8849   0.4799     H
O       0.7434   0.8507   0.7282     O
C       0.7499   0.7346   0.5438     C
C       0.7515    0.954   0.3474     C
H        0.755   0.6443   0.2851     H
C       0.7575   0.7753   0.3944     C
C       0.7591   0.0089   0.1626     C
C       0.7607   0.7081   0.4561     C
C       0.7697    0.727   0.5904     C
C       0.7721   0.9332   0.7316     C
C       0.7816    0.944    0.166     C
O       0.7857   0.6453   0.1334     O
C       0.7902   0.8506   0.3749     C
C       0.7904   0.7054   0.5067     C
C       0.7904   0.7784   0.4395     C
H       0.7964   0.7342   0.2878     H
H       0.7983   0.1271   0.1868     H
H       0.7987   0.4541   0.2712     H
C       0.7999    0.572   0.7614     C
C       0.8004   0.4642   0.2406     C
C       0.8022   0.4939   0.1514     C
H       0.8022   0.5038   0.1207     H
C       0.8043   0.8999    0.495     C
Pr     0.80535   0.7711  0.76876    Pr
H       0.8057   0.8987   0.5286     H
O       0.8113   0.7136   0.6842     O
C       0.8161   0.0844   0.1877     C
C       0.8292   0.6958    0.602     C
O       0.8347   0.5326   0.7337     O
H       0.8371   0.7344   0.1927     H
H       0.8377   0.9519   0.4927     H
O       0.8383   0.6516   0.7719     O
C       0.8413   0.9783   0.3361     C
O        0.843   0.8476   0.4717     O
C       0.8488   0.6708    0.517     C
C       0.8525   0.9602   0.7108     C
C       0.8538   0.6917   0.1762     C
C       0.8546   0.6913   0.6554     C
H       0.8574    0.659   0.1977     H
C       0.8582   0.9565   0.1969     C
H        0.859   0.8597   0.6712     H
H       0.8592   0.0213   0.3227     H
C       0.8611   0.4627   0.1678     C
C       0.8656   0.4475   0.2129     C
H       0.8708   0.9134   0.2027     H
C       0.8722   0.8763    0.364     C
C       0.8724   0.6746   0.5676     C
H        0.873   0.6456   0.4928     H
H       0.8765   0.0777   0.7415     H
C       0.8874   0.9139   0.6794     C
C       0.8983   0.0441   0.7212     C
C       0.8986   0.0963   0.2138     C
H       0.9006   0.4509   0.1476     H
C       0.9037   0.9423   0.3439     C
H       0.9113   0.7121   0.1661     H
O       0.9143   0.6617   0.6588     O
C        0.918   0.0313   0.2199     C
H       0.9218    0.661   0.5763     H
O       0.9294   0.2357   0.2391     O
O       0.9321   0.8358   0.3708     O
C       0.9345    0.411   0.2297     C
H        0.936   0.1317   0.6042     H
O       0.9376   0.4103   0.2748     O
O       0.9548    0.808   0.7538     O
C       0.9573   0.1789    0.235     C
Cd     0.95985  0.64896  0.73038    Cd
C       0.9606   0.9452   0.6608     C
H       0.9709   0.0376   0.2393     H
C       0.9722   0.0736   0.7017     C
O       0.9744   0.3861   0.2005     O
H       0.9753    0.065   0.5877     H
H       0.9815   0.9124   0.6394     H
C       0.9866   0.1202   0.5928     C
C       0.9922   0.9725   0.3274     C
H       0.9956   0.1352   0.5628     H
