data_I
_chemical_name_common  '/home/zhangsd/repos/MofS-CGCNN/ML/data/SSD/clean_cifs/WUYYEW_clean'
_cell_length_a 15.81300
_cell_length_b 18.21300
_cell_length_c 27.96100
_cell_angle_alpha 104.73600
_cell_angle_beta  91.53800
_cell_angle_gamma 107.95500
_space_group_name_H-M_alt      'P 1'


loop_
_space_group_symop_operation_xyz
  'x, y, z' 

loop_
_atom_site_label
_atom_site_fract_x
_atom_site_fract_y
_atom_site_fract_z
_atom_site_type_symbol
C       0.0055   0.0706   0.2001     C
C       0.0092   0.0639   0.8484     C
H       0.0116   0.9018   0.1279     H
H       0.0149   0.8492   0.9127     H
C       0.0168   0.1143   0.0892     C
H       0.0203   0.9286    0.899     H
O       0.0206   0.1957   0.7489     O
Cd     0.02269   0.3661  0.78257    Cd
H       0.0319   0.0926   0.0568     H
O       0.0342   0.5958    0.286     O
H       0.0361   0.1255   0.2091     H
C       0.0365   0.0182   0.1657     C
H       0.0529   0.9537   0.2562     H
H       0.0581   0.3217   0.9353     H
C       0.0601   0.8109    0.259     C
O       0.0668    0.354   0.8533     O
C        0.072   0.9598   0.7789     C
C       0.0846   0.0943   0.8274     C
O       0.0846   0.5727   0.2122     O
C       0.0871    0.572   0.2568     C
O       0.0883   0.7524   0.2499     O
H        0.094   0.9249   0.7564     H
O        0.099   0.1571   0.1237     O
H       0.1051   0.5412   0.3447     H
C       0.1062   0.9596    0.274     C
H       0.1077   0.2886   0.3317     H
C       0.1132   0.3141   0.9385     C
H       0.1134   0.3146   0.0121     H
H        0.115   0.1493   0.8369     H
C       0.1168   0.0425   0.7913     C
C       0.1255   0.8917   0.2785     C
C       0.1264   0.0465   0.1473     C
C       0.1277   0.3254   0.8549     C
O       0.1381   0.3556  0.73202     O
C       0.1453   0.3076   0.9848     C
C       0.1487   0.5296   0.3253     C
O       0.1497   0.4763   0.7756     O
C       0.1525   0.1135   0.1283     C
C        0.154   0.5411   0.2771     C
H        0.156   0.0784   0.2879     H
C       0.1602   0.3095   0.8997     C
O       0.1644   0.2981   0.8154     O
C        0.165   0.0344   0.2955     C
C       0.1666   0.3011   0.3212     C
H       0.1684   0.9639   0.1644     H
H        0.169   0.3285   0.2959     H
Cd     0.16982  0.23356  0.73177    Cd
C       0.1742   0.4321   0.7448     C
H       0.1749   0.0423   0.9781     H
O        0.176   0.1451   0.0215     O
H         0.18   0.2524   0.3082     H
C       0.1871   0.0095    0.153     C
H       0.1925   0.1108   0.9515     H
C       0.1996   0.0753   0.7696     C
C       0.2042   0.9024   0.3076     C
C       0.2054   0.0982   0.9816     C
H       0.2122   0.4909   0.3746     H
C        0.214   0.4989    0.343     C
C       0.2189    0.525   0.2495     C
H         0.22    0.858   0.3096     H
H       0.2209   0.5325   0.2178     H
C       0.2237   0.2909   0.9887     C
O       0.2239   0.1554   0.7757     O
O       0.2299   0.3511   0.3623     O
C       0.2317   0.2896   0.9044     C
C       0.2379   0.2157   0.0529     C
C       0.2387   0.0465    0.329     C
C       0.2417   0.1412    0.116     C
O        0.243   0.0328   0.7471     O
H       0.2469   0.2586   0.2067     H
H       0.2539   0.2615    0.602     H
H       0.2547   0.3645    0.676     H
C       0.2562   0.4672   0.7187     C
C       0.2587   0.9794   0.3335     C
C       0.2593   0.2866   0.0385     C
H       0.2622   0.2816   0.8766     H
C       0.2652   0.2794   0.9467     C
H       0.2687   0.1094   0.9879     H
H       0.2695   0.2822   0.5257     H
C       0.2706   0.2153   0.0979     C
O       0.2715   0.2113   0.6753     O
C       0.2755   0.0352   0.1429     C
C       0.2782   0.4815   0.3149     C
H       0.2795   0.5845   0.7558     H
C       0.2835   0.4968   0.2681     C
C       0.2865   0.2356   0.5807     C
C       0.2868   0.4191   0.6859     C
H       0.2887    0.088   0.4226     H
C       0.2887   0.1275   0.3626     C
H       0.2901   0.9904   0.2215     H
C       0.2946   0.2473    0.535     C
H       0.2953    0.351   0.2162     H
C       0.2985   0.0993   0.1226     C
H          0.3   0.3866   0.4645     H
C       0.3018     0.55   0.7331     C
C        0.303   0.1349   0.4126     C
C       0.3038   0.3005   0.2146     C
O       0.3045   0.1958   0.2982     O
H       0.3091   0.9859   0.3541     H
C       0.3135   0.1984   0.3485     C
C       0.3144   0.1731   0.6473     C
O       0.3149   0.3269   0.7658     O
H       0.3166   0.2647   0.9469     H
C       0.3174   0.3823   0.3524     C
C       0.3177   0.3559   0.0713     C
C       0.3254   0.1858   0.5971     C
C       0.3262   0.2844   0.1293     C
H       0.3292   0.4886   0.2495     H
H       0.3314   0.3028   0.2462     H
H       0.3327   0.4035    0.062     H
C       0.3336   0.9785   0.2021     C
C        0.337   0.2068   0.4486     C
C       0.3385   0.9941   0.1565     C
H         0.34   0.5034   0.1397     H
C       0.3404   0.4442    0.331     C
C       0.3414   0.2063   0.5013     C
C       0.3503   0.2736   0.3825     C
O       0.3508   0.1273   0.6597     O
C       0.3537    0.357   0.1161     C
Cd     0.35875  0.14671  0.74135    Cd
C         0.36   0.2771   0.4322     C
O       0.3607   0.2841   0.1765     O
H       0.3631   0.1728   0.2368     H
C       0.3632   0.4105   0.4747     C
C       0.3655   0.4468   0.6655     C
H       0.3695   0.5689   0.5985     H
H       0.3706   0.6504    0.589     H
H       0.3732   0.4411    0.509     H
C       0.3741   0.1483   0.5647     C
C       0.3756   0.1774   0.2715     C
C       0.3784   0.3455   0.3637     C
C       0.3793     0.58   0.7137     C
H       0.3799   0.1275    0.275     H
C       0.3805   0.1571   0.5174     C
H       0.3832   0.4823   0.7924     H
H       0.3847   0.4116   0.6415     H
O       0.3867   0.1272   0.1104     O
H       0.3867    0.937    0.251     H
H       0.3894   0.4451   0.4545     H
C       0.3906   0.9462   0.2198     C
C       0.3947   0.5052   0.1539     C
C       0.3958   0.3344   0.7748     C
C       0.3977   0.9746   0.1278     C
H       0.4004   0.9841   0.0966     H
H       0.4029   0.1166   0.5751     H
O       0.4029   0.3492   0.4688     O
C       0.4068   0.6183   0.5934     C
H        0.408   0.6353    0.722     H
H       0.4114   0.1296    0.496     H
C       0.4141   0.4329   0.1481     C
C       0.4158   0.5292   0.6818     C
O       0.4237   0.2757   0.7652     O
O       0.4259   0.1297   0.8165     O
H       0.4312   0.2195   0.2847     H
C       0.4312   0.4751   0.3234     C
H       0.4364   0.6068   0.5642     H
C       0.4398   0.4855   0.8048     C
H       0.4399   0.6248   0.1841     H
H       0.4489   0.5198   0.3112     H
H       0.4506   0.2118   0.1752     H
C       0.4553   0.9269   0.1905     C
C       0.4555   0.5785   0.1801     C
C       0.4577   0.9388   0.1445     C
C       0.4611   0.4152   0.7993     C
C        0.465   0.1711   0.1508     C
C       0.4665   0.3766   0.3545     C
O       0.4736   0.6622   0.6365     O
O       0.4745   0.1013    0.743     O
C       0.4768   0.1046   0.7897     C
H       0.4771   0.1337   0.1665     H
H       0.4831   0.8043   0.8637     H
H       0.4865   0.6054   0.8287     H
C       0.4951   0.4414   0.3335     C
H       0.4982   0.9239   0.1239     H
C       0.4992   0.4407   0.1718     C
C       0.5008   0.5593   0.8282     C
H       0.5018   0.0761   0.8761     H
C       0.5049   0.5586   0.6665     C
H       0.5135   0.3946   0.1713     H
H       0.5169   0.1957   0.1363     H
H       0.5229   0.8663   0.8335     H
C       0.5232   0.8954   0.2103     C
O       0.5255   0.8987    0.257     O
O       0.5264   0.3378   0.3635     O
C       0.5335   0.6234   0.6455     C
C        0.535   0.8289   0.8492     C
C       0.5389   0.5848   0.2007     C
C       0.5423   0.0612   0.8555     C
C       0.5445   0.4215   0.8199     C
C       0.5447   0.0731   0.8095     C
H       0.5494   0.7882   0.8248     H
H       0.5511   0.4802   0.6888     H
H       0.5601   0.3752   0.8159     H
C       0.5602   0.5145   0.1952     C
H       0.5636   0.3932   0.4358     H
C       0.5688   0.5249   0.6766     C
H       0.5688   0.7805   0.7153     H
O       0.5741   0.8703   0.1835     O
O       0.5763   0.7243   0.2348     O
C       0.5842   0.4708   0.3182     C
C       0.5859   0.5671   0.8519     C
H       0.5886   0.8704    0.504     H
H        0.592   0.3647    0.278     H
C       0.5932   0.3817   0.4066     C
O       0.5971   0.6508   0.5312     O
H       0.5971   0.8834   0.4249     H
H       0.5996   0.0159   0.9034     H
C       0.6023   0.0254   0.8722     C
C       0.6042   0.6656   0.2252     C
C       0.6053   0.4948   0.8461     C
C       0.6094   0.0538   0.7802     C
H       0.6106   0.5549   0.5455     H
H       0.6133    0.063    0.749     H
O       0.6133   0.8728   0.8896     O
H       0.6153   0.5884   0.3585     H
H       0.6168   0.5177   0.2076     H
C       0.6195   0.8429   0.4826     C
H       0.6201   0.8725    0.725     H
C       0.6207     0.42   0.2863     C
C       0.6216   0.6545   0.6363     C
C       0.6244   0.8226   0.7285     C
C       0.6259   0.8517   0.4353     C
H       0.6268   0.5589    0.491     H
H       0.6294   0.3496    0.411     H
H       0.6305   0.4311   0.4015     H
C       0.6345   0.5532   0.3345     C
C       0.6368   0.5895   0.5253     C
H       0.6369   0.8272   0.7632     H
O       0.6393   0.7159   0.8235     O
C         0.64   0.7229   0.5678     C
Cd     0.64125  0.85329  0.25865    Cd
C       0.6463    0.643   0.8839     C
O       0.6492   0.8727   0.3403     O
C       0.6497   0.7264   0.6175     C
C       0.6586   0.7937   0.4987     C
C       0.6596   0.5558    0.669     C
H         0.66   0.4966   0.8603     H
C       0.6615   0.0059   0.8435     C
C        0.663   0.7932   0.5514     C
C       0.6664   0.0215   0.7979     C
H       0.6673   0.5965    0.938     H
H       0.6686   0.6972   0.7538     H
H       0.6708   0.5114   0.7505     H
C       0.6738   0.7156   0.8707     C
C       0.6746   0.8142   0.4029     C
C       0.6823   0.6441   0.9287     C
C       0.6826   0.6177   0.6476     C
H       0.6834   0.7353   0.0531     H
O       0.6851   0.6731   0.2342     O
C       0.6856   0.8269   0.3527     C
C       0.6865   0.8016   0.6515     C
H       0.6909   0.0141   0.6459     H
O       0.6955   0.8042   0.7018     O
C       0.6962   0.6995   0.7854     C
C        0.697   0.8651   0.5874     C
C       0.6982     0.45   0.2669     C
H          0.7   0.6134   0.5355     H
C       0.7015   0.9007   0.8774     C
H       0.7047    0.649   0.7838     H
C       0.7054   0.7527    0.465     C
H       0.7099   0.0096   0.7785     H
C       0.7113   0.8725   0.6374     C
H       0.7113    0.912   0.5774     H
C       0.7132   0.5809   0.3141     C
C       0.7135   0.7644   0.4193     C
C       0.7165   0.5032   0.7319     C
H       0.7205   0.4155   0.2442     H
C       0.7218   0.5185   0.6851     C
C       0.7245   0.9648   0.8571     C
O       0.7285   0.7887   0.3247     O
C       0.7294   0.7847   0.9021     C
H       0.7305   0.7178   0.4743     H
H       0.7313   0.8906   0.0121     H
C       0.7348   0.7206   0.0533     C
H       0.7378   0.7184   0.1234     H
C       0.7407   0.7134   0.9615     C
C       0.7413   0.0206   0.6665     C
C       0.7438   0.5328   0.2813     C
H       0.7453   0.6355    0.324     H
H       0.7461   0.7385    0.398     H
H       0.7531   0.7414   0.7933     H
O        0.757   0.9672   0.2529     O
C       0.7583   0.8588    0.884     C
C       0.7613   0.9535    0.671     C
C       0.7621   0.7843   0.9471     C
C       0.7683   0.7104   0.0956     C
O       0.7701   0.6489   0.6377     O
O       0.7761   0.8446   0.2243     O
C       0.7763   0.7091   0.0113     C
H       0.7791   0.4675   0.7822     H
H         0.78    0.142   0.6904     H
C       0.7811    0.475   0.7505     C
C        0.786   0.5011    0.657     C
H       0.7878   0.5091   0.6254     H
C       0.7946   0.9018   0.0184     C
C       0.7958   0.0976   0.6924     C
C       0.8004   0.9247   0.2304     C
H       0.8075   0.8892   0.0485     H
C       0.8129   0.9905    0.847     C
H         0.82   0.7476   0.6918     H
O        0.824   0.8549   0.9785     O
H       0.8251   0.9577   0.0219     H
C       0.8258   0.5679   0.2552     C
Sm     0.83018  0.76644  0.26823    Sm
H        0.831   0.6715   0.7041     H
H       0.8316   0.0361   0.8356     H
C       0.8334   0.6989   0.6788     C
C        0.835   0.9656   0.7045     C
O       0.8356   0.7019   0.1846     O
C       0.8398   0.6905   0.1003     C
H        0.844   0.9216   0.7121     H
C        0.846   0.4589   0.7229     C
C       0.8475   0.8865   0.8717     C
O       0.8503   0.5237   0.2244     O
C       0.8513   0.4704   0.6747     C
C       0.8547   0.6924   0.0152     C
O       0.8619   0.6444  0.26798     O
C       0.8723   0.6746   0.1451     C
C       0.8736   0.9535   0.8527     C
C       0.8745   0.1083   0.7215     C
C       0.8832   0.9575   0.2087     C
H        0.885   0.8507   0.1631     H
H       0.8866   0.6854   0.9879     H
C       0.8868   0.6859   0.0615     C
H       0.8923   0.7114   0.6683     H
C       0.8938   0.0404    0.726     C
H       0.8949   0.4588   0.6553     H
O        0.901   0.8429   0.8763     O
H        0.906   0.0751   0.2436     H
O       0.9117   0.2476   0.7501     O
C       0.9129    0.428   0.7432     C
O       0.9154   0.4273   0.7878     O
C       0.9154   0.9057   0.1726     C
C        0.928   0.0402   0.2211     C
O       0.9332    0.646   0.1467     O
C       0.9399   0.1891    0.741     C
H       0.9419   0.6783   0.0647     H
H       0.9471   0.0463   0.7438     H
C       0.9635   0.9818   0.8343     C
H       0.9639   0.8745   0.7909     H
O       0.9658   0.4042    0.714     O
H       0.9681   0.9074   0.9432     H
Cd     0.97731   0.6339  0.21743    Cd
O       0.9794   0.8043   0.2511     O
H       0.9797   0.0714    0.101     H
C       0.9832   0.8857   0.9108     C
H       0.9851   0.1508   0.0873     H
H       0.9884   0.0982   0.8721     H
C       0.9908   0.9361   0.1516     C
C       0.9945   0.9294   0.7999     C
