data_I
_chemical_name_common  '/home/zhangsd/repos/MofS-CGCNN/ML/data/SSD/clean_cifs/XADDOX_clean'
_cell_length_a 10.89690
_cell_length_b 21.02400
_cell_length_c 28.74100
_cell_angle_alpha 90.00000
_cell_angle_beta  90.00000
_cell_angle_gamma 90.00000
_space_group_name_H-M_alt      'P 1'


loop_
_space_group_symop_operation_xyz
  'x, y, z' 

loop_
_atom_site_label
_atom_site_fract_x
_atom_site_fract_y
_atom_site_fract_z
_atom_site_type_symbol
H       0.0003    0.349   0.9674     H
H       0.0003    0.651   0.0326     H
C       0.0042   0.1392   0.5378     C
C       0.0042   0.8608   0.4622     C
O       0.0103   0.0271  0.32536     O
O       0.0103   0.9729  0.67464     O
C       0.0121    0.013   0.7068     C
C       0.0121    0.987   0.2932     C
Co     0.02182  0.04329  0.88625    Co
Co     0.02182  0.95671  0.11375    Co
H       0.0251   0.3855   0.2597     H
H       0.0251   0.6145   0.7403     H
C       0.0269   0.2034   0.2374     C
C       0.0269   0.7966   0.7626     C
O       0.0307   0.4438  0.70178     O
O       0.0307   0.5562  0.29822     O
C       0.0312   0.2043   0.1883     C
C       0.0312   0.7957   0.8117     C
H       0.0382    0.253    0.633     H
H       0.0382    0.747    0.367     H
C       0.0429   0.2547   0.6653     C
C       0.0429   0.7453   0.3347     C
C       0.0458   0.1348   0.4919     C
C       0.0458   0.8652   0.5081     C
H       0.0486   0.1296   0.6039     H
H       0.0486   0.8704   0.3961     H
C       0.0521   0.2572   0.7609     C
C       0.0521   0.7428   0.2391     C
H       0.0531   0.2575   0.7933     H
H       0.0531   0.7425   0.2067     H
H       0.0743   0.3453   0.0435     H
H       0.0743   0.6547   0.9565     H
C       0.0748   0.1216   0.5736     C
C       0.0748   0.8784   0.4264     C
H       0.0837   0.1773   0.1722     H
H       0.0837   0.8227   0.8278     H
O       0.0906   0.0451   0.0975     O
O       0.0906   0.9549   0.9025     O
H       0.0909   0.0766   0.8078     H
H       0.0909   0.9234   0.1922     H
C       0.0984   0.3981   0.2459     C
C       0.0984   0.6019   0.7541     C
C       0.1002   0.4497   0.2164     C
C       0.1002   0.5503   0.7836     C
O       0.1021   0.1614  0.30805     O
O       0.1021   0.8386  0.69195     O
C       0.1065   0.1563    0.264     C
C       0.1065   0.8437    0.736     C
O       0.1083   0.0232  0.73132     O
O       0.1083   0.9768  0.26868     O
O       0.1233    0.095  0.40418     O
O       0.1233    0.905  0.59582     O
C       0.1244   0.4668   0.6828     C
C       0.1244   0.5332   0.3172     C
O       0.1249   0.4927  0.35037     O
O       0.1249   0.5073  0.64963     O
C        0.127   0.2143   0.6882     C
C        0.127   0.7857   0.3118     C
C       0.1314   0.2164   0.7366     C
C       0.1314   0.7836   0.2634     C
O       0.1396   0.0514  0.82974     O
O       0.1396   0.9486  0.17026     O
O       0.1415   0.0852  0.93232     O
O       0.1415   0.9148  0.06768     O
Co     0.15107  0.08264  0.33799    Co
Co     0.15107  0.91736  0.66201    Co
Co     0.15189  0.03497   0.2037    Co
Co     0.15189  0.96503   0.7963    Co
H       0.1548   0.0668    0.017     H
H       0.1548   0.9332    0.983     H
C       0.1586   0.1055   0.4841     C
C       0.1586   0.8945   0.5159     C
O        0.169   0.1174  0.24438     O
O        0.169   0.8826  0.75562     O
H       0.1779   0.1872   0.6715     H
H       0.1779   0.8128   0.3285     H
H       0.1828   0.3654   0.7328     H
H       0.1828   0.6346   0.2672     H
C        0.184   0.0923   0.5664     C
C        0.184   0.9077   0.4336     C
C       0.1911   0.0716   0.1065     C
C       0.1911   0.9284   0.8935     C
H        0.201   0.3289   0.2736     H
H        0.201   0.6711   0.7264     H
C       0.2043   0.3651    0.255     C
C       0.2043   0.6349    0.745     C
C        0.205   0.0951   0.4347     C
C        0.205   0.9049   0.5653     C
C       0.2112   0.4688   0.1965     C
C       0.2112   0.5312   0.8035     C
C        0.212   0.1725   0.7635     C
C        0.212   0.8275   0.2365     C
H       0.2133   0.4966   0.8237     H
H       0.2133   0.5034   0.1763     H
O       0.2171   0.0748  0.64636     O
O       0.2171   0.9252  0.35364     O
O       0.2178   0.1803  0.80733     O
O       0.2178   0.8197  0.19267     O
C       0.2269   0.0892   0.0227     C
C       0.2269   0.9108   0.9773     C
C       0.2278   0.0854   0.5216     C
C       0.2278   0.9146   0.4784     C
O       0.2326   0.0771  0.14776     O
O       0.2326   0.9229  0.85224     O
C       0.2457   0.4444      0.7     C
C       0.2457   0.5556      0.3     C
C        0.247   0.1021   0.9371     C
C        0.247   0.8979   0.0629     C
C       0.2534   0.3885   0.7261     C
C       0.2534   0.6115   0.2739     C
C       0.2615   0.0685   0.6062     C
C       0.2615   0.9315   0.3938     C
C       0.2635   0.0983   0.0678     C
C       0.2635   0.9017   0.9322     C
O       0.2701   0.1297   0.7445     O
O       0.2701   0.8703   0.2555     O
Co     0.28964  0.04333  0.70682    Co
Co     0.28964  0.95667  0.29318    Co
C       0.2938   0.1122   0.9852     C
C       0.2938   0.8878   0.0148     C
Co     0.29572  0.10443  0.83614    Co
Co     0.29572  0.89557  0.16386    Co
H       0.3044    0.067   0.5166     H
H       0.3044    0.933   0.4834     H
O       0.3114   0.0467   0.3245     O
O       0.3114   0.9533   0.6755     O
C       0.3141   0.3843   0.2374     C
C       0.3141   0.6157   0.7626     C
O       0.3158   0.0883   0.4281     O
O       0.3158   0.9117   0.5719     O
C       0.3179   0.4363   0.2069     C
C       0.3179   0.5637   0.7931     C
O       0.3181   0.1134  0.90488     O
O       0.3181   0.8866  0.09512     O
O       0.3331   0.0112  0.22889     O
O       0.3331   0.9888  0.77111     O
H       0.3469    0.484   0.3253     H
H       0.3469    0.516   0.6747     H
H       0.3492   0.0744   0.3011     H
H       0.3492   0.9256   0.6989     H
C       0.3508   0.4787  0.69199     C
C       0.3508   0.5213  0.30801     C
O        0.361   0.0419    0.597     O
O        0.361   0.9581    0.403     O
C       0.3645    0.368   0.7419     C
C       0.3645    0.632   0.2581     C
H       0.3695   0.3299   0.7582     H
H       0.3695   0.6701   0.2418     H
C        0.376   0.1288   0.0761     C
C        0.376   0.8712   0.9239     C
H        0.386   0.3631   0.2455     H
H        0.386   0.6369   0.7545     H
C       0.4012   0.1429   0.9933     C
C       0.4012   0.8571   0.0067     C
H       0.4043   0.1343   0.1063     H
H       0.4043   0.8657   0.8937     H
C       0.4248   0.0012   0.2035     C
C       0.4248   0.9988   0.7965     C
O       0.4285   0.0409  0.82724     O
O       0.4285   0.9591  0.17276     O
Co     0.43156   0.0435  0.38044    Co
Co     0.43156   0.9565  0.61956    Co
O       0.4325    0.496   0.8412     O
O       0.4325    0.504   0.1588     O
C        0.438   0.4582   0.1873     C
C        0.438   0.5418   0.8127     C
C       0.4452   0.1508   0.0384     C
C       0.4452   0.8492   0.9616     C
H       0.4459    0.159   0.9683     H
H       0.4459    0.841   0.0317     H
H       0.4543   0.1109   0.2454     H
H       0.4543   0.8891   0.7546     H
C       0.4642   0.4581   0.7097     C
C       0.4642   0.5419   0.2903     C
O        0.467   0.0684  0.70178     O
O        0.467   0.9316  0.29822     O
C       0.4706   0.4033    0.734     C
C       0.4706   0.5967    0.266     C
H       0.4796   0.3295   0.5434     H
H       0.4796   0.6705   0.4566     H
H       0.5204   0.1705   0.0434     H
H       0.5204   0.8295   0.9566     H
C       0.5294   0.0967    0.234     C
C       0.5294   0.9033    0.766     C
O        0.533   0.4316  0.20178     O
O        0.533   0.5684  0.79822     O
C       0.5358   0.0419   0.2097     C
C       0.5358   0.9581   0.7903     C
H       0.5457   0.3891   0.7454     H
H       0.5457   0.6109   0.2546     H
H       0.5541    0.341   0.4683     H
H       0.5541    0.659   0.5317     H
C       0.5548   0.3492   0.5384     C
C       0.5548   0.6508   0.4616     C
C        0.562   0.0418   0.6873     C
C        0.562   0.9582   0.3127     C
O       0.5675    0.004   0.3412     O
O       0.5675    0.996   0.6588     O
Co     0.56844   0.4565  0.88044    Co
Co     0.56844   0.5435  0.11956    Co
O       0.5715   0.4591  0.32724     O
O       0.5715   0.5409  0.67276     O
C       0.5752   0.4988   0.7035     C
C       0.5752   0.5012   0.2965     C
H       0.5957   0.3657   0.6063     H
H       0.5957   0.6343   0.3937     H
C       0.5988   0.3571   0.4933     C
C       0.5988   0.6429   0.5067     C
H        0.614   0.1369   0.7455     H
H        0.614   0.8631   0.2545     H
C        0.624   0.3712   0.5761     C
C        0.624   0.6288   0.4239     C
H       0.6305   0.1701   0.2582     H
H       0.6305   0.8299   0.7418     H
C       0.6355    0.132   0.2419     C
C       0.6355    0.868   0.7581     C
O        0.639   0.4581    0.097     O
O        0.639   0.5419    0.903     O
C       0.6492   0.0213  0.19199     C
C       0.6492   0.9787  0.80801     C
H       0.6508   0.4256   0.8011     H
H       0.6508   0.5744   0.1989     H
H       0.6531    0.016   0.8253     H
H       0.6531    0.984   0.1747     H
O       0.6669   0.4888  0.72889     O
O       0.6669   0.5112  0.27111     O
O       0.6819   0.3866  0.40488     O
O       0.6819   0.6134  0.59512     O
C       0.6821   0.0637   0.7069     C
C       0.6821   0.9363   0.2931     C
O       0.6842   0.4117   0.9281     O
O       0.6842   0.5883   0.0719     O
C       0.6859   0.1157   0.7374     C
C       0.6859   0.8843   0.2626     C
O       0.6886   0.4533   0.8245     O
O       0.6886   0.5467   0.1755     O
H       0.6956    0.433   0.0166     H
H       0.6956    0.567   0.9834     H
Co     0.70428  0.39557  0.33614    Co
Co     0.70428  0.60443  0.66386    Co
C       0.7062   0.3878   0.4852     C
C       0.7062   0.6122   0.5148     C
Co     0.71036  0.45667  0.20682    Co
Co     0.71036  0.54333  0.79318    Co
O       0.7299   0.3703   0.2445     O
O       0.7299   0.6297   0.7555     O
C       0.7365   0.4017   0.5678     C
C       0.7365   0.5983   0.4322     C
C       0.7385   0.4315   0.1062     C
C       0.7385   0.5685   0.8938     C
C       0.7466   0.1115   0.2261     C
C       0.7466   0.8885   0.7739     C
C        0.753   0.3979   0.4371     C
C        0.753   0.6021   0.5629     C
C       0.7543   0.0556      0.2     C
C       0.7543   0.9444      0.8     C
O       0.7674   0.4229  0.64776     O
O       0.7674   0.5771  0.35224     O
C       0.7722   0.4146   0.0216     C
C       0.7722   0.5854   0.9784     C
C       0.7731   0.4108   0.5227     C
C       0.7731   0.5892   0.4773     C
O       0.7822   0.3197  0.30733     O
O       0.7822   0.6803  0.69267     O
O       0.7829   0.4252  0.14636     O
O       0.7829   0.5748  0.85364     O
H       0.7867   0.0034   0.3237     H
H       0.7867   0.9966   0.6763     H
C        0.788   0.3275   0.2635     C
C        0.788   0.6725   0.7365     C
C       0.7888   0.0312   0.6965     C
C       0.7888   0.9688   0.3035     C
C        0.795   0.4049   0.9347     C
C        0.795   0.5951   0.0653     C
C       0.7957   0.1349    0.755     C
C       0.7957   0.8651    0.245     C
H        0.799   0.1711   0.7736     H
H        0.799   0.8289   0.2264     H
C       0.8089   0.4284   0.6065     C
C       0.8089   0.5716   0.3935     C
C        0.816   0.4077   0.0664     C
C        0.816   0.5923   0.9336     C
H       0.8172   0.1346   0.2328     H
H       0.8172   0.8654   0.7672     H
H       0.8221   0.3128   0.1715     H
H       0.8221   0.6872   0.8285     H
O        0.831   0.3826  0.74438     O
O        0.831   0.6174  0.25562     O
C       0.8414   0.3945   0.9841     C
C       0.8414   0.6055   0.0159     C
H       0.8452   0.4332    0.517     H
H       0.8452   0.5668    0.483     H
Co     0.84811  0.46503   0.7037    Co
Co     0.84811  0.53497   0.2963    Co
Co     0.84893  0.41736  0.83799    Co
Co     0.84893  0.58264  0.16201    Co
O       0.8585   0.4148  0.43232     O
O       0.8585   0.5852  0.56768     O
O       0.8604   0.4486  0.32974     O
O       0.8604   0.5514  0.67026     O
C       0.8686   0.2836   0.2366     C
C       0.8686   0.7164   0.7634     C
C        0.873   0.2857   0.1882     C
C        0.873   0.7143   0.8118     C
O       0.8751   0.0073  0.85037     O
O       0.8751   0.9927  0.14963     O
C       0.8756   0.0332   0.1828     C
C       0.8756   0.9668   0.8172     C
O       0.8767    0.405  0.90418     O
O       0.8767    0.595  0.09582     O
O       0.8917   0.4768  0.23132     O
O       0.8917   0.5232  0.76868     O
C       0.8935   0.3437    0.764     C
C       0.8935   0.6563    0.236     C
O       0.8979   0.3386  0.80805     O
O       0.8979   0.6614  0.19195     O
C       0.8998   0.0503   0.7164     C
C       0.8998   0.9497   0.2836     C
C       0.9016   0.1019   0.7459     C
C       0.9016   0.8981   0.2541     C
H       0.9091   0.4234   0.3078     H
H       0.9091   0.5766   0.6922     H
O       0.9094   0.4549   0.5975     O
O       0.9094   0.5451   0.4025     O
H       0.9163   0.3227   0.6722     H
H       0.9163   0.6773   0.3278     H
C       0.9252   0.3784   0.0736     C
C       0.9252   0.6216   0.9264     C
H       0.9257   0.1547   0.5435     H
H       0.9257   0.8453   0.4565     H
H       0.9469   0.2425   0.2933     H
H       0.9469   0.7575   0.7067     H
C       0.9479   0.2428   0.2609     C
C       0.9479   0.7572   0.7391     C
H       0.9514   0.3704   0.1039     H
H       0.9514   0.6296   0.8961     H
C       0.9542   0.3652   0.9919     C
C       0.9542   0.6348   0.0081     C
C       0.9571   0.2453   0.1653     C
C       0.9571   0.7547   0.8347     C
H       0.9618    0.247    0.133     H
H       0.9618    0.753    0.867     H
C       0.9688   0.2957   0.6883     C
C       0.9688   0.7043   0.3117     C
O       0.9693   0.0562  0.20178     O
O       0.9693   0.9438  0.79822     O
C       0.9731   0.2966   0.7374     C
C       0.9731   0.7034   0.2626     C
H       0.9749   0.1145   0.7597     H
H       0.9749   0.8855   0.2403     H
Co     0.97818  0.45671  0.38625    Co
Co     0.97818  0.54329  0.61375    Co
C       0.9879    0.487   0.2068     C
C       0.9879    0.513   0.7932     C
O       0.9897   0.4729  0.82536     O
O       0.9897   0.5271  0.17464     O
C       0.9958   0.3608   0.0378     C
C       0.9958   0.6392   0.9622     C
H       0.9997    0.151   0.4674     H
H       0.9997    0.849   0.5326     H
