data_I
_chemical_name_common  '/home/zhangsd/repos/MofS-CGCNN/ML/data/SSD/clean_cifs/XAKZUF_clean'
_cell_length_a 40.70900
_cell_length_b 40.70900
_cell_length_c 17.46800
_cell_angle_alpha 90.00000
_cell_angle_beta  90.00000
_cell_angle_gamma 90.00000
_space_group_name_H-M_alt      'P 1'


loop_
_space_group_symop_operation_xyz
  'x, y, z' 

loop_
_atom_site_label
_atom_site_fract_x
_atom_site_fract_y
_atom_site_fract_z
_atom_site_type_symbol
C      0.00268   0.3896   0.5141     C
C      0.00268   0.8896   0.4859     C
O      0.00473  0.02751  0.81565     O
O      0.00473  0.52751  0.18435     O
N      0.00553   0.4441   0.6861     N
N      0.00553   0.9441   0.3139     N
C      0.00996  0.08749   0.5755     C
C      0.00996  0.58749   0.4245     C
H       0.0138   0.4024   0.4743     H
H       0.0138   0.9024   0.5257     H
H       0.0149   0.0421   0.4249     H
H       0.0149   0.5421   0.5751     H
C      0.01529  0.42979   0.6241     C
C      0.01529  0.92979   0.3759     C
H       0.0158   0.1224   0.4915     H
H       0.0158   0.6224   0.5085     H
H       0.0182    0.374   0.5368     H
H       0.0182    0.874   0.4632     H
H       0.0188   0.0037   0.0815     H
H       0.0188   0.5037   0.9185     H
H        0.021   0.0132   0.3639     H
H        0.021   0.5132   0.6361     H
H       0.0211   0.0635   0.2881     H
H       0.0211   0.5635   0.7119     H
H       0.0237   0.0706   0.5505     H
H       0.0237   0.5706   0.4495     H
H       0.0244   0.1003     0.61     H
H       0.0244   0.6003     0.39     H
C      0.02473    0.474   0.7889     C
C      0.02473    0.974   0.2111     C
C      0.03092  0.03283    0.388     C
C      0.03092  0.53283    0.612     C
N      0.03262  0.45981   0.7236     N
N      0.03262  0.95981   0.2764     N
O      0.03738  0.49693  0.30571     O
O      0.03738  0.99693  0.69429     O
C       0.0401   0.0604    0.322     C
C       0.0401   0.5604    0.678     C
C      0.04066   0.0062   0.0997     C
C      0.04066   0.5062   0.9003     C
Mn     0.04088  0.03913  0.74539    Mn
Mn     0.04088  0.53913  0.25461    Mn
H       0.0425   0.4336   0.3077     H
H       0.0425   0.9336   0.6923     H
H       0.0438   0.4753   0.1586     H
H       0.0438   0.9753   0.8414     H
H        0.045   0.4578   0.4327     H
H        0.045   0.9578   0.5673     H
H       0.0456   0.0813   0.3467     H
H       0.0456   0.5813   0.6533     H
O      0.04578  0.42969  0.60258     O
O      0.04578  0.92969  0.39742     O
C      0.04985  0.49171   0.8316     C
C      0.04985  0.99171   0.1684     C
O      0.05031  0.08059  0.78507     O
O      0.05031  0.58059  0.21493     O
H       0.0576   0.0342   0.0084     H
H       0.0576   0.5342   0.9916     H
H       0.0588    0.411   0.3724     H
H       0.0588    0.911   0.6276     H
H       0.0589   0.0527   0.2919     H
H       0.0589   0.5527   0.7081     H
H       0.0595    0.135   0.8473     H
H       0.0595    0.635   0.1527     H
C      0.06025  0.49278   0.3572     C
C      0.06025  0.99278   0.6428     C
C       0.0613  0.43114   0.3423     C
C       0.0613  0.93114   0.6577     C
C      0.06187  0.02375   0.4283     C
C      0.06187  0.52375   0.5717     C
C      0.06293  0.45981   0.3946     C
C      0.06293  0.95981   0.6054     C
C       0.0636   0.0248   0.0562     C
C       0.0636   0.5248   0.9438     C
C      0.06481   0.4834    0.144     C
C      0.06481   0.9834    0.856     C
C      0.07297  0.10236   0.7639     C
C      0.07297  0.60236   0.2361     C
O      0.07341  0.04474  0.47736     O
O      0.07341  0.54474  0.52264     O
N      0.07381  0.01291   0.8326     N
N      0.07381  0.51291   0.1674     N
Mn      0.0742  0.45418  0.67144    Mn
Mn      0.0742  0.95418  0.32856    Mn
C      0.07458  0.13153   0.8065     C
C      0.07458  0.63153   0.1935     C
H       0.0756   0.3491   0.4291     H
H       0.0756   0.8491   0.5709     H
N      0.07583   0.0437  0.67073     N
N      0.07583   0.5437  0.32927     N
N      0.07664  0.49641   0.5877     N
N      0.07664  0.99641   0.4123     N
H       0.0789   0.4415   0.0856     H
H       0.0789   0.9415   0.9144     H
N      0.08119   0.0155   0.6255     N
N      0.08119   0.5155   0.3745     N
H       0.0816   0.3845   0.5327     H
H       0.0816   0.4299   0.3122     H
H       0.0816   0.8845   0.4673     H
H       0.0816   0.9299   0.6878     H
C      0.08265  0.49487   0.8043     C
C      0.08265  0.99487   0.1957     C
H        0.084   0.4589   0.4228     H
H        0.084   0.9589   0.5772     H
C        0.085   0.4633   0.0985     C
C        0.085   0.9633   0.9015     C
C      0.09438   0.0985   0.7023     C
C      0.09438   0.5985   0.2977     C
C      0.09472  0.34778   0.4602     C
C      0.09472  0.84778   0.5398     C
C       0.0949   0.0289   0.0853     C
C       0.0949   0.5289   0.9147     C
O      0.09493  0.47921   0.7464     O
O      0.09493  0.97921   0.2536     O
C      0.09553  0.06888   0.6542     C
C      0.09553  0.56888   0.3458     C
C      0.09778  0.15528   0.7898     C
C      0.09778  0.65528   0.2102     C
C      0.09825  0.36891   0.5208     C
C      0.09825  0.86891   0.4792     C
H       0.0991   0.1744   0.8209     H
H       0.0991   0.6744   0.1791     H
C      0.10311   0.0214   0.8487     C
C      0.10311   0.5214   0.1513     C
C      0.10414  0.01503    0.151     C
C      0.10414  0.51503    0.849     C
H       0.1051   0.4472   0.9402     H
H       0.1051   0.9472   0.0598     H
N      0.10604  0.49382  0.54574     N
N      0.10604  0.99382  0.45426     N
H       0.1102   0.0419   0.0578     H
H       0.1102   0.5419   0.9422     H
H       0.1111   0.0413   0.8275     H
H       0.1111   0.5413   0.1725     H
Mn     0.11339  0.02956   0.5262    Mn
Mn     0.11339  0.52956   0.4738    Mn
H       0.1138   0.4197   0.0024     H
H       0.1138   0.9197   0.9976     H
H        0.115   0.3095   0.4027     H
H        0.115   0.8095   0.5973     H
C      0.11515   0.4773   0.0728     C
C      0.11515   0.9773   0.9272     C
O      0.11518  0.44708  0.61427     O
O      0.11518  0.94708  0.38573     O
O      0.11562  0.06744  0.59786     O
O      0.11562  0.56744  0.40214     O
C      0.11707  0.12342   0.6857     C
C      0.11707  0.62342   0.3143     C
H       0.1184   0.0452   0.3472     H
H       0.1184   0.5452   0.6528     H
C      0.11847  0.32458   0.4435     C
C      0.11847  0.82458   0.5565     C
C      0.11891  0.15175   0.7292     C
C      0.11891  0.65175   0.2708     C
C       0.1233    0.437   0.9693     C
C       0.1233    0.937   0.0307     C
H        0.124   0.2318   0.7132     H
H        0.124   0.7318   0.2868     H
C      0.12413   0.0034    0.895     C
C      0.12413   0.5034    0.105     C
C      0.12475  0.46823    0.564     C
C      0.12475  0.96823    0.436     C
H       0.1259   0.0187   0.1689     H
H       0.1259   0.5187   0.8311     H
C      0.12658  0.36707   0.5643     C
C      0.12658  0.86707   0.4357     C
H       0.1276   0.2658   0.7585     H
H       0.1276   0.7658   0.2415     H
H       0.1292   0.3816   0.6065     H
H       0.1292   0.8816   0.3935     H
H       0.1316   0.1208   0.6435     H
H       0.1316   0.6208   0.3565     H
H       0.1341    0.448    0.819     H
H       0.1341    0.948    0.181     H
C      0.13428  0.06045   0.3653     C
C      0.13428  0.56045   0.6347     C
H       0.1345   0.1684   0.7173     H
H       0.1345   0.6684   0.2827     H
C      0.13767   0.4604   0.0144     C
C      0.13767   0.9604   0.9856     C
C       0.1396  0.24732   0.7359     C
C       0.1396  0.74732   0.2641     C
H       0.1414   0.0807   0.2626     H
H       0.1414   0.5807   0.7374     H
N      0.14199  0.06018   0.4406     N
N      0.14199  0.56018   0.5594     N
H       0.1459   0.0111   0.9026     H
H       0.1459   0.5111   0.0974     H
C      0.14695   0.4213   0.9136     C
C      0.14695   0.9213   0.0864     C
H       0.1471   0.4775   0.9807     H
H       0.1471   0.9775   0.0193     H
C      0.14764  0.32297   0.4861     C
C      0.14764  0.82297   0.5139     C
C      0.14793  0.43084   0.8368     C
C      0.14793  0.93084   0.1632     C
C      0.14812  0.08135   0.3146     C
C      0.14812  0.58135   0.6854     C
H       0.1497   0.2744     0.64     H
H       0.1497   0.7744     0.36     H
O      0.15105   0.0094  0.56263     O
O      0.15105   0.5094  0.43737     O
C       0.1515  0.34438   0.5477     C
C       0.1515  0.84438   0.4523     C
H       0.1524   0.2362   0.7757     H
H       0.1524   0.7362   0.2243     H
H       0.1561   0.4501   0.0425     H
H       0.1561   0.9501   0.9575     H
C      0.15662  0.46366   0.5269     C
C      0.15662  0.96366   0.4731     C
H        0.161   0.1912   0.8776     H
H        0.161   0.6912   0.1224     H
C      0.16251  0.25996   0.6745     C
C      0.16251  0.75996   0.3255     C
H        0.165   0.0293   0.7102     H
H        0.165   0.5293   0.2898     H
C      0.16508  0.08066   0.4636     C
C      0.16508  0.58066   0.5364     C
C      0.16776  0.48429   0.4667     C
C      0.16776  0.98429   0.5333     C
C      0.16865  0.39812   0.9354     C
C      0.16865  0.89812   0.0646     C
H       0.1687   0.2956   0.9033     H
H       0.1687   0.7956   0.0967     H
H       0.1688   0.4238   0.5906     H
H       0.1688   0.9238   0.4094     H
H       0.1692   0.4212   0.7339     H
H       0.1692   0.9212   0.2661     H
H       0.1693   0.3914   0.9874     H
H       0.1693   0.8914   0.0126     H
C      0.16934  0.41508   0.7864     C
C      0.16934  0.91508   0.2136     C
O      0.16941  0.30031  0.46493     O
O      0.16941  0.80031  0.53507     O
H       0.1697   0.1362   0.2476     H
H       0.1697   0.6362   0.7524     H
H       0.1712   0.0808   0.5161     H
H       0.1712   0.5808   0.4839     H
C       0.1713  0.10305   0.3364     C
C       0.1713  0.60305   0.6636     C
H       0.1738   0.0812   0.6594     H
H       0.1738   0.5812   0.3406     H
C      0.17665  0.43798   0.5513     C
C      0.17665  0.93798   0.4487     C
H       0.1794   0.2737   0.6995     H
H       0.1794   0.7737   0.3005     H
O      0.17969  0.20422  0.64742     O
O      0.17969  0.70422  0.35258     O
C      0.17979  0.23471   0.6259     C
C      0.17979  0.73471   0.3741     C
H       0.1799   0.1684   0.9378     H
H       0.1799   0.6684   0.0622     H
C      0.18084  0.10207   0.4132     C
C      0.18084  0.60207   0.5868     C
C      0.18112  0.34553   0.5958     C
C      0.18112  0.84553   0.4042     C
C      0.18114   0.1887   0.9077     C
C      0.18114   0.6887   0.0923     C
C      0.18231  0.04278    0.729     C
C      0.18231  0.54278    0.271     C
O      0.18256  0.36562  0.65214     O
O      0.18256  0.86562  0.34786     O
H       0.1836   0.2075   0.9423     H
H       0.1836   0.7075   0.0577     H
H       0.1865   0.2711   0.9619     H
H       0.1865   0.7711   0.0381     H
C        0.187   0.1267   0.2807     C
C        0.187   0.6267   0.7193     C
C      0.18798  0.07335   0.6987     C
C      0.18798  0.57335   0.3013     C
C      0.18955  0.38428   0.8847     C
C      0.18955  0.88428   0.1153     C
C       0.1896   0.2901    0.928     C
C       0.1896   0.7901    0.072     C
N      0.18982  0.39199   0.8094     N
N      0.18982  0.89199   0.1906     N
H       0.1915   0.1711   0.1644     H
H       0.1915   0.6711   0.8356     H
N       0.1941  0.24447   0.5639     N
N       0.1941  0.74447   0.4361     N
O      0.19708  0.13482  0.63573     O
O      0.19708  0.63482  0.36427     O
H       0.1972   0.1449   0.3098     H
H       0.1972   0.6449   0.6902     H
H       0.1973   0.3089   0.9581     H
H       0.1973   0.8089   0.0419     H
H        0.198   0.1159    0.431     H
H        0.198   0.6159    0.569     H
C       0.1987  0.47775   0.4354     C
C       0.1987  0.97775   0.5646     C
H       0.1992   0.0109   0.8111     H
H       0.1992   0.5109   0.1889     H
H       0.2001   0.0939   0.2075     H
H       0.2001   0.5939   0.7925     H
C      0.20276  0.03183   0.7887     C
C      0.20276  0.53183   0.2113     C
Mn     0.20418   0.1758  0.57856    Mn
Mn     0.20418   0.6758  0.42144    Mn
H       0.2048   0.3684   0.9028     H
H       0.2048   0.8684   0.0972     H
O      0.20526  0.32341  0.77264     O
O      0.20526  0.82341  0.22736     O
N       0.2063  0.32583  0.57927     N
N       0.2063  0.82583  0.42073     N
H       0.2064   0.4911   0.3946     H
H       0.2064   0.9911   0.6054     H
C      0.20722  0.43231    0.521     C
C      0.20722  0.93231    0.479     C
H       0.2078    0.205   0.8173     H
H       0.2078    0.705   0.1827     H
H       0.2079   0.2649   0.8251     H
H       0.2079   0.7649   0.1749     H
H       0.2081   0.3602   0.1922     H
H       0.2081   0.8602   0.8078     H
H       0.2087   0.3611   0.4225     H
H       0.2087   0.8611   0.5775     H
H       0.2089    0.166   0.8272     H
H       0.2089    0.666   0.1728     H
C      0.20981  0.18707   0.8554     C
N      0.20981  0.21738   0.5264     N
C      0.20981  0.68707   0.1446     C
N      0.20981  0.71738   0.4736     N
C       0.2104  0.11233   0.2356     C
C       0.2104  0.61233   0.7644     C
Mn     0.21087  0.29088  0.50461    Mn
Mn     0.21087  0.79088  0.49539    Mn
C       0.2133    0.165   0.1515     C
C       0.2133    0.665   0.8485     C
C      0.21366  0.09338   0.7231     C
C      0.21366  0.59338   0.2769     C
H       0.2158   0.3076   0.2416     H
H       0.2158   0.8076   0.7584     H
C      0.21717  0.28092    0.862     C
C      0.21717  0.78092    0.138     C
C      0.21817  0.45276   0.4613     C
C      0.21817  0.95276   0.5387     C
C      0.21823  0.12525    0.686     C
C      0.21823  0.62525    0.314     C
Mn     0.22044  0.36339   0.7238    Mn
Mn     0.22044  0.86339   0.2762    Mn
H       0.2207    0.415   0.5398     H
H       0.2207    0.915   0.4602     H
C       0.2211   0.3449   0.1647     C
C       0.2211   0.8449   0.8353     C
O      0.22249  0.25473  0.43435     O
O      0.22249  0.75473  0.56565     O
C        0.224  0.22527   0.4611     C
C        0.224  0.72527   0.5389     C
C       0.2252   0.3136   0.1938     C
C       0.2252   0.8136   0.8062     C
H       0.2253   0.2062   0.0914     H
H       0.2253   0.7062   0.9086     H
C      0.22625  0.31187   0.8217     C
C      0.22625  0.81187   0.1783     C
C       0.2273  0.13485   0.1772     C
C       0.2273  0.63485   0.8228     C
H       0.2275   0.1029   0.2693     H
H       0.2275   0.6029   0.7307     H
C      0.22775   0.0513   0.8146     C
C      0.22775   0.5513   0.1854     C
C       0.2286  0.35311   0.4013     C
C       0.2286  0.85311   0.5987     C
O      0.22921  0.15507   0.5036     O
O      0.22921  0.65507   0.4964     O
H       0.2313   0.3759   0.0811     H
H       0.2313   0.8759   0.9189     H
C       0.2334  0.18519    0.106     C
C       0.2334  0.68519    0.894     C
C      0.23429  0.08224   0.7833     C
C      0.23429  0.58224   0.2167     C
N       0.2345  0.33119   0.6245     N
N       0.2345  0.83119   0.3755     N
C      0.23497  0.35414    0.099     C
C      0.23497  0.85414    0.901     C
H       0.2368    0.271   0.8861     H
H       0.2368    0.771   0.1139     H
N      0.23709  0.32381   0.4174     N
N      0.23709  0.82381   0.5826     N
H       0.2389   0.3959   0.3474     H
H       0.2389   0.8959   0.6526     H
H       0.2391   0.4492   0.4389     H
H       0.2391   0.9492   0.5611     H
O       0.2406  0.40105  0.68737     O
O       0.2406  0.90105  0.31263     O
H       0.2411   0.0436   0.8554     H
H       0.2411   0.5436   0.1446     H
C      0.24171  0.20015   0.4184     C
C      0.24171  0.70015   0.5816     C
C      0.24278  0.18975   0.8928     C
C      0.24278  0.68975   0.1072     C
C       0.2438  0.29066   0.1503     C
C       0.2438  0.79066   0.8497     C
N      0.24382  0.14396  0.70426     N
N      0.24382  0.64396  0.29574     N
C      0.24487  0.16735   0.4457     C
C      0.24487  0.66735   0.5543     C
H       0.2463   0.2688   0.1685     H
H       0.2463   0.7688   0.8315     H
N      0.24641  0.17336   0.6623     N
N      0.24641  0.67336   0.3377     N
C       0.2466  0.37413    0.355     C
C       0.2466  0.87413    0.645     C
O      0.24693  0.21262  0.94429     O
O      0.24693  0.71262  0.05571     O
O      0.25307  0.28738  0.55571     O
O      0.25307  0.78738  0.44429     O
C       0.2534  0.12587    0.145     C
C       0.2534  0.62587    0.855     C
N      0.25359  0.32664   0.8377     N
N      0.25359  0.82664   0.1623     N
H       0.2537   0.2312   0.3315     H
H       0.2537   0.7312   0.6685     H
C      0.25513  0.33265   0.0543     C
C      0.25513  0.83265   0.9457     C
N      0.25618  0.35604  0.79574     N
N      0.25618  0.85604  0.20426     N
C       0.2562  0.20934   0.3497     C
C       0.2562  0.70934   0.6503     C
C      0.25722  0.31025   0.6072     C
C      0.25722  0.81025   0.3928     C
C      0.25829  0.29985   0.0816     C
C      0.25829  0.79985   0.9184     C
H       0.2589   0.4564   0.6446     H
H       0.2589   0.9564   0.3554     H
O       0.2594  0.09895  0.81263     O
O       0.2594  0.59895  0.18737     O
H       0.2609   0.0508   0.0611     H
H       0.2609   0.5508   0.9389     H
H       0.2611   0.1041   0.1526     H
H       0.2611   0.6041   0.8474     H
N      0.26291  0.17619   0.0826     N
N      0.26291  0.67619   0.9174     N
H       0.2632    0.229   0.6139     H
H       0.2632    0.729   0.3861     H
C      0.26503  0.14586    0.401     C
C      0.26503  0.64586    0.599     C
N       0.2655  0.16881   0.8755     N
N       0.2655  0.66881   0.1245     N
C      0.26571  0.41776   0.7167     C
C      0.26571  0.91776   0.2833     C
C       0.2666  0.31481    0.394     C
C       0.2666  0.81481    0.606     C
H       0.2687   0.1241   0.4189     H
H       0.2687   0.6241   0.5811     H
O      0.27079  0.34493   0.9964     O
O      0.27079  0.84493   0.0036     O
C       0.2714  0.14689   0.0987     C
C       0.2714  0.64689   0.9013     C
C      0.27225   0.4487   0.6854     C
C      0.27225   0.9487   0.3146     C
H       0.2725   0.3971   0.2307     H
H       0.2725   0.8971   0.7693     H
C       0.2727  0.36515   0.3228     C
C       0.2727  0.86515   0.6772     C
C      0.27375  0.18813   0.6783     C
C      0.27375  0.68813   0.3217     C
H       0.2747   0.2938   0.4086     H
H       0.2747   0.7938   0.5914     H
C       0.2748   0.1864   0.3062     C
C       0.2748   0.6864   0.6938     C
C        0.276  0.27473   0.0389     C
C        0.276  0.77473   0.9611     C
O      0.27751  0.24527  0.06565     O
O      0.27751  0.74527  0.93435     O
C       0.2789   0.1551   0.3353     C
C       0.2789   0.6551   0.6647     C
H       0.2793    0.085   0.9602     H
H       0.2793    0.585   0.0398     H
Mn     0.27956  0.13661   0.7762    Mn
Mn     0.27956  0.63661   0.2238    Mn
C      0.28177  0.37475    0.814     C
C      0.28177  0.87475    0.186     C
C      0.28183  0.04724   0.0387     C
C      0.28183  0.54724   0.9613     C
C      0.28283  0.21908    0.638     C
C      0.28283  0.71908    0.362     C
H       0.2842   0.1924   0.2584     H
H       0.2842   0.6924   0.7416     H
C      0.28634  0.40662   0.7769     C
C      0.28634  0.90662   0.2231     C
C       0.2867    0.335   0.3485     C
C       0.2867    0.835   0.6515     C
Mn     0.28913  0.20912  0.99539    Mn
Mn     0.28913  0.70912  0.00461    Mn
C       0.2896  0.38767   0.2644     C
C       0.2896  0.88767   0.7356     C
N      0.29019  0.28262   0.9736     N
C      0.29019  0.31293   0.6446     C
N      0.29019  0.78262   0.0264     N
C      0.29019  0.81293   0.3554     C
H       0.2911    0.334   0.6728     H
H       0.2911    0.834   0.3272     H
H       0.2913   0.1389   0.0775     H
H       0.2913   0.6389   0.9225     H
H       0.2919   0.1398   0.3078     H
H       0.2919   0.6398   0.6922     H
H       0.2921   0.2351   0.6749     H
H       0.2921   0.7351   0.3251     H
H       0.2922    0.295   0.6827     H
H       0.2922    0.795   0.3173     H
C      0.29278  0.06769    0.979     C
C      0.29278  0.56769    0.021     C
H       0.2936   0.0089   0.1054     H
H       0.2936   0.5089   0.8946     H
N       0.2937  0.17417  0.92073     N
N       0.2937  0.67417  0.07927     N
O      0.29474  0.17659  0.72736     O
O      0.29474  0.67659  0.27264     O
H       0.2952   0.1316   0.5972     H
H       0.2952   0.6316   0.4028     H
Mn     0.29582   0.3242  0.92144    Mn
Mn     0.29582   0.8242  0.07856    Mn
C      0.29724  0.46817   0.7113     C
C      0.29724  0.96817   0.2887     C
H       0.2999   0.4061   0.2925     H
H       0.2999   0.9061   0.7075     H
H       0.3008   0.4891   0.6889     H
H       0.3008   0.9891   0.3111     H
C       0.3013  0.02225   0.0646     C
C       0.3013  0.52225   0.9354     C
H        0.302   0.3841    0.069     H
H        0.302   0.8841    0.931     H
H       0.3027   0.1911   0.5419     H
H       0.3027   0.6911   0.4581     H
H       0.3028   0.3551   0.1902     H
H       0.3028   0.8551   0.8098     H
O      0.30292  0.36518  0.86427     O
O      0.30292  0.86518  0.13573     O
N       0.3059  0.25553   0.9361     N
N       0.3059  0.75553   0.0639     N
H       0.3085   0.3289   0.3356     H
H       0.3085   0.8289   0.6644     H
N      0.31018  0.10801   0.6906     N
N      0.31018  0.60801   0.3094     N
C       0.3104   0.2099    0.572     C
C       0.3104   0.7099    0.428     C
C      0.31045  0.11572   0.6153     C
C      0.31045  0.61572   0.3847     C
C      0.31202  0.42665   0.8013     C
C      0.31202  0.92665   0.1987     C
C        0.313   0.3733   0.2193     C
C        0.313   0.8733   0.7807     C
H       0.3135   0.2289   0.5381     H
H       0.3135   0.7289   0.4619     H
H       0.3164   0.2925   0.5577     H
H       0.3164   0.7925   0.4423     H
O      0.31744  0.13438  0.84786     O
O      0.31744  0.63438  0.15214     O
C      0.31769  0.45722    0.771     C
C      0.31769  0.95722    0.229     C
C      0.31886   0.3113   0.5923     C
C      0.31886   0.8113   0.4077     C
C      0.31888  0.15447   0.9042     C
C      0.31888  0.65447   0.0958     C
C      0.31916  0.39793   0.0868     C
C      0.31916  0.89793   0.9132     C
H       0.3201   0.3316   0.5622     H
H       0.3201   0.8316   0.4378     H
C      0.32021  0.26529   0.8741     C
C      0.32021  0.76529   0.1259     C
O      0.32031  0.29578  0.85258     O
O      0.32031  0.79578  0.14742     O
H       0.3206   0.2263   0.8005     H
H       0.3206   0.7263   0.1995     H
C      0.32335  0.06202   0.9487     C
C      0.32335  0.56202   0.0513     C
H       0.3262   0.4188   0.8406     H
H       0.3262   0.9188   0.1594     H
C       0.3287  0.39695   0.1636     C
C       0.3287  0.89695   0.8364     C
H       0.3288   0.4192   0.9839     H
H       0.3288   0.9192   0.0161     H
H       0.3303   0.3638   0.2524     H
H       0.3303   0.8638   0.7476     H
O      0.33059  0.19969  0.03507     O
O      0.33059  0.69969  0.96493     O
C      0.33066  0.08492   0.7136     C
C      0.33066  0.58492   0.2864     C
H       0.3307   0.1086   0.5126     H
H       0.3307   0.6086   0.4874     H
H       0.3308   0.0788   0.7661     H
H       0.3308   0.5788   0.2339     H
H       0.3312   0.0762   0.9094     H
H       0.3312   0.5762   0.0906     H
H       0.3313   0.2044   0.5967     H
H       0.3313   0.7044   0.4033     H
C      0.33135  0.10188   0.5646     C
C      0.33135  0.60188   0.4354     C
C      0.33224  0.01571   0.0333     C
C      0.33224  0.51571   0.9667     C
C      0.33492  0.41934   0.0364     C
C      0.33492  0.91934   0.9636     C
H        0.335   0.4707   0.7898     H
H        0.335   0.9707   0.2102     H
C      0.33749  0.24004   0.8255     C
C      0.33749  0.74004   0.1745     C
H        0.339   0.3088   0.6224     H
H        0.339   0.8088   0.3776     H
C      0.34338  0.03634   0.9731     C
C      0.34338  0.53634   0.0269     C
H       0.3439   0.0499   0.4575     H
H       0.3439   0.5499   0.5425     H
H       0.3476   0.2638   0.7243     H
H       0.3476   0.7638   0.2757     H
C       0.3485  0.15562   0.9523     C
C       0.3485  0.65562   0.0477     C
O      0.34895   0.4906  0.93737     O
O      0.34895   0.9906  0.06263     O
H       0.3503   0.2256     0.86     H
H       0.3503   0.7256     0.14     H
C      0.35188  0.41865   0.1854     C
C      0.35188  0.91865   0.8146     C
C      0.35207  0.06916   0.6632     C
C      0.35207  0.56916   0.3368     C
C      0.35236  0.17703   0.0139     C
C      0.35236  0.67703   0.9861     C
H       0.3529   0.0225   0.5193     H
H       0.3529   0.5225   0.4807     H
C      0.35305   0.0787   0.5864     C
C      0.35305   0.5787   0.4136     C
H       0.3541   0.4889   0.5974     H
H       0.3541   0.9889   0.4026     H
N      0.35801  0.43982   0.0594     N
N      0.35801  0.93982   0.9406     N
H       0.3586   0.4193   0.2374     H
H       0.3586   0.9193   0.7626     H
C       0.3604  0.25268   0.7641     C
C       0.3604  0.75268   0.2359     C
C      0.36233   0.0396   0.4856     C
C      0.36233   0.5396   0.5144     C
H       0.3655   0.3316   0.7827     H
H       0.3655   0.8316   0.2173     H
C      0.36572  0.43955   0.1347     C
C      0.36572  0.93955   0.8653     C
H       0.3659    0.052    0.681     H
H       0.3659    0.552    0.319     H
H       0.3684   0.3792   0.8565     H
H       0.3684   0.8792   0.1435     H
H       0.3708   0.1184   0.8935     H
H       0.3708   0.6184   0.1065     H
H       0.3724   0.2342   0.7415     H
H       0.3724   0.7342   0.2585     H
C      0.37342  0.13293   0.9357     C
C      0.37342  0.63293   0.0643     C
H       0.3741   0.4813   0.3311     H
H       0.3741   0.9813   0.6689     H
C      0.37525  0.03177    0.936     C
C      0.37525  0.53177    0.064     C
C      0.37587   0.4966    0.605     C
C      0.37587   0.9966    0.395     C
H        0.376   0.2682   0.7868     H
H        0.376   0.7682   0.2132     H
C       0.3767    0.063   0.5307     C
C       0.3767    0.563   0.4693     C
C      0.38109  0.34825   0.7708     C
C      0.38109  0.84825   0.2292     C
C      0.38153  0.17542   0.0565     C
C      0.38153  0.67542   0.9435     C
H       0.3816   0.4548   0.1528     H
H       0.3816   0.9548   0.8472     H
C      0.38293  0.37658   0.8143     C
C      0.38293  0.87658   0.1857     C
O      0.38438  0.43256  0.90214     O
O      0.38438  0.93256  0.09786     O
O      0.38482  0.05292  0.88573     O
O      0.38482  0.55292  0.11427     O
C      0.38485   0.0227   0.4272     C
C      0.38485   0.5227   0.5728     C
H        0.385   0.1905   0.0973     H
H        0.385   0.6905   0.9027     H
H       0.3862   0.0803   0.4976     H
H       0.3862   0.5803   0.5024     H
Mn     0.38661  0.47044   0.9738    Mn
Mn     0.38661  0.97044   0.0262    Mn
H       0.3889   0.4587   0.6725     H
H       0.3889   0.9587   0.3275     H
H       0.3898   0.4581   0.4422     H
H       0.3898   0.9581   0.5578     H
N      0.39396  0.00618  0.95426     N
N      0.39396  0.50618  0.04574     N
H       0.3949   0.0528   0.5598     H
H       0.3949   0.5528   0.4402     H
C      0.39586  0.48497    0.349     C
C      0.39586  0.98497    0.651     C
C      0.39689   0.4786   0.6513     C
C      0.39689   0.9786   0.3487     C
H       0.4009   0.3256   0.6791     H
H       0.4009   0.8256   0.3209     H
C      0.40175  0.13109   0.9792     C
C      0.40175  0.63109   0.0208     C
C      0.40222  0.34472   0.7102     C
C      0.40222  0.84472   0.2898     C
C      0.40447  0.43112   0.8458     C
C      0.40447  0.93112   0.1542     C
O      0.40507  0.02079   0.7536     O
O      0.40507  0.52079   0.2464     O
C       0.4051   0.4711   0.4147     C
C       0.4051   0.9711   0.5853     C
C      0.40528  0.15222   0.0398     C
C      0.40528  0.65222   0.9602     C
C      0.40562   0.4015   0.7977     C
C      0.40562   0.9015   0.2023     C
C        0.415   0.0367   0.4015     C
C        0.415   0.5367   0.5985     C
H        0.416   0.0411   0.0772     H
H        0.416   0.5411   0.9228     H
C      0.41735  0.00513   0.6957     C
C      0.41735  0.50513   0.3043     C
H       0.4184   0.0701   0.1878     H
H       0.4184   0.1155   0.9673     H
H       0.4184   0.5701   0.8122     H
H       0.4184   0.6155   0.0327     H
N      0.41881   0.4845   0.8745     N
N      0.41881   0.9845   0.1255     N
H       0.4211   0.0585   0.4144     H
H       0.4211   0.5585   0.5856     H
N      0.42336  0.00359   0.9123     N
N      0.42336  0.50359   0.0877     N
N      0.42417   0.4563  0.82927     N
N      0.42417   0.9563  0.17073     N
H       0.4244   0.1509   0.0709     H
H       0.4244   0.6509   0.9291     H
C      0.42542  0.36847   0.6935     C
C      0.42542  0.86847   0.3065     C
Mn      0.4258  0.04582  0.82856    Mn
Mn      0.4258  0.54582  0.17144    Mn
N      0.42619  0.48709   0.6674     N
N      0.42619  0.98709   0.3326     N
O      0.42659  0.45526  0.02264     O
O      0.42659  0.95526  0.97736     O
C      0.42703  0.39764   0.7361     C
C      0.42703  0.89764   0.2639     C
C      0.43519   0.0166    0.356     C
C      0.43519   0.5166    0.644     C
C       0.4364   0.4752   0.4438     C
C       0.4364   0.9752   0.5562     C
C      0.43707  0.04019   0.1054     C
C      0.43707  0.54019   0.8946     C
C      0.43813  0.47625   0.0717     C
C      0.43813  0.97625   0.9283     C
C       0.4387  0.06886   0.1577     C
C       0.4387  0.56886   0.8423     C
C      0.43975  0.00722   0.1428     C
C      0.43975  0.50722   0.8572     C
H       0.4405    0.365   0.6527     H
H       0.4405    0.865   0.3473     H
H       0.4411   0.4473   0.2081     H
H       0.4411   0.9473   0.7919     H
H       0.4412    0.089   0.1276     H
H       0.4412    0.589   0.8724     H
H       0.4424   0.4658   0.4916     H
H       0.4424   0.9658   0.5084     H
O      0.44969  0.41941  0.71493     O
O      0.44969  0.91941  0.28507     O
C      0.45015  0.00829   0.6684     C
C      0.45015  0.50829   0.3316     C
O      0.45422  0.07031  0.89742     O
O      0.45422  0.57031  0.10258     O
H       0.4544   0.4187   0.1533     H
H       0.4544   0.9187   0.8467     H
H        0.455   0.0422   0.0673     H
H        0.455   0.5422   0.9327     H
H       0.4562   0.0247   0.3414     H
H       0.4562   0.5247   0.6586     H
H       0.4575   0.0664   0.1923     H
H       0.4575   0.5664   0.8077     H
Mn     0.45912  0.46087  0.75461    Mn
Mn     0.45912  0.96087  0.24539    Mn
C      0.45934   0.4938   0.4003     C
C      0.45934   0.9938   0.5997     C
C       0.4599   0.4396    0.178     C
C       0.4599   0.9396    0.822     C
O      0.46262  0.00307  0.19429     O
O      0.46262  0.50307  0.80571     O
N      0.46738  0.04019   0.7764     N
N      0.46738  0.54019   0.2236     N
C      0.46908  0.46717    0.112     C
C      0.46908  0.96717    0.888     C
C      0.47527    0.026   0.7111     C
C      0.47527    0.526   0.2889     C
H       0.4756   0.3997     0.89     H
H       0.4756   0.8997     0.11     H
H       0.4763   0.4294   0.9495     H
H       0.4763   0.9294   0.0505     H
H       0.4789   0.4365   0.2119     H
H       0.4789   0.9365   0.7881     H
H        0.479   0.4868   0.1361     H
H        0.479   0.9868   0.8639     H
H       0.4812   0.4963   0.4185     H
H       0.4812   0.9963   0.5815     H
H       0.4818    0.126   0.9632     H
H       0.4818    0.626   0.0368     H
H       0.4842   0.3776   0.0085     H
H       0.4842   0.8776   0.9915     H
C      0.48471  0.07021   0.8759     C
C      0.48471  0.57021   0.1241     C
H       0.4851   0.4579   0.0751     H
H       0.4851   0.9579   0.9249     H
H       0.4862   0.0976   0.0257     H
H       0.4862   0.5976   0.9743     H
C      0.49004  0.41251   0.9245     C
C      0.49004  0.91251   0.0755     C
N      0.49447   0.0559   0.8139     N
N      0.49447   0.5559   0.1861     N
O      0.49527  0.47249  0.68435     O
O      0.49527  0.97249  0.31565     O
C      0.49732   0.1104   0.9859     C
C      0.49732   0.6104   0.0141     C
C      0.50268   0.3896   0.9859     C
C      0.50268   0.8896   0.0141     C
O      0.50473  0.02751  0.68435     O
O      0.50473  0.52751  0.31565     O
N      0.50553   0.4441   0.8139     N
N      0.50553   0.9441   0.1861     N
C      0.50996  0.08749   0.9245     C
C      0.50996  0.58749   0.0755     C
H       0.5138   0.4024   0.0257     H
H       0.5138   0.9024   0.9743     H
H       0.5149   0.0421   0.0751     H
H       0.5149   0.5421   0.9249     H
C      0.51529  0.42979   0.8759     C
C      0.51529  0.92979   0.1241     C
H       0.5158   0.1224   0.0085     H
H       0.5158   0.6224   0.9915     H
H       0.5182    0.374   0.9632     H
H       0.5182    0.874   0.0368     H
H       0.5188   0.0037   0.4185     H
H       0.5188   0.5037   0.5815     H
H        0.521   0.0132   0.1361     H
H        0.521   0.5132   0.8639     H
H       0.5211   0.0635   0.2119     H
H       0.5211   0.5635   0.7881     H
H       0.5237   0.0706   0.9495     H
H       0.5237   0.5706   0.0505     H
H       0.5244   0.1003     0.89     H
H       0.5244   0.6003     0.11     H
C      0.52473    0.474   0.7111     C
C      0.52473    0.974   0.2889     C
C      0.53092  0.03283    0.112     C
C      0.53092  0.53283    0.888     C
N      0.53262  0.45981   0.7764     N
N      0.53262  0.95981   0.2236     N
O      0.53738  0.49693  0.19429     O
O      0.53738  0.99693  0.80571     O
C       0.5401   0.0604    0.178     C
C       0.5401   0.5604    0.822     C
C      0.54066   0.0062   0.4003     C
C      0.54066   0.5062   0.5997     C
Mn     0.54088  0.03913  0.75461    Mn
Mn     0.54088  0.53913  0.24539    Mn
H       0.5425   0.4336   0.1923     H
H       0.5425   0.9336   0.8077     H
H       0.5438   0.4753   0.3414     H
H       0.5438   0.9753   0.6586     H
H        0.545   0.4578   0.0673     H
H        0.545   0.9578   0.9327     H
H       0.5456   0.0813   0.1533     H
H       0.5456   0.5813   0.8467     H
O      0.54578  0.42969  0.89742     O
O      0.54578  0.92969  0.10258     O
C      0.54985  0.49171   0.6684     C
C      0.54985  0.99171   0.3316     C
O      0.55031  0.08059  0.71493     O
O      0.55031  0.58059  0.28507     O
H       0.5576   0.0342   0.4916     H
H       0.5576   0.5342   0.5084     H
H       0.5588    0.411   0.1276     H
H       0.5588    0.911   0.8724     H
H       0.5589   0.0527   0.2081     H
H       0.5589   0.5527   0.7919     H
H       0.5595    0.135   0.6527     H
H       0.5595    0.635   0.3473     H
C      0.56025  0.49278   0.1428     C
C      0.56025  0.99278   0.8572     C
C       0.5613  0.43114   0.1577     C
C       0.5613  0.93114   0.8423     C
C      0.56187  0.02375   0.0717     C
C      0.56187  0.52375   0.9283     C
C      0.56293  0.45981   0.1054     C
C      0.56293  0.95981   0.8946     C
C       0.5636   0.0248   0.4438     C
C       0.5636   0.5248   0.5562     C
C      0.56481   0.4834    0.356     C
C      0.56481   0.9834    0.644     C
C      0.57297  0.10236   0.7361     C
C      0.57297  0.60236   0.2639     C
O      0.57341  0.04474  0.02264     O
O      0.57341  0.54474  0.97736     O
N      0.57381  0.01291   0.6674     N
N      0.57381  0.51291   0.3326     N
Mn      0.5742  0.45418  0.82856    Mn
Mn      0.5742  0.95418  0.17144    Mn
C      0.57458  0.13153   0.6935     C
C      0.57458  0.63153   0.3065     C
H       0.5756   0.3491   0.0709     H
H       0.5756   0.8491   0.9291     H
N      0.57583   0.0437  0.82927     N
N      0.57583   0.5437  0.17073     N
N      0.57664  0.49641   0.9123     N
N      0.57664  0.99641   0.0877     N
H       0.5789   0.4415   0.4144     H
H       0.5789   0.9415   0.5856     H
N      0.58119   0.0155   0.8745     N
N      0.58119   0.5155   0.1255     N
H       0.5816   0.3845   0.9673     H
H       0.5816   0.4299   0.1878     H
H       0.5816   0.8845   0.0327     H
H       0.5816   0.9299   0.8122     H
C      0.58265  0.49487   0.6957     C
C      0.58265  0.99487   0.3043     C
H        0.584   0.4589   0.0772     H
H        0.584   0.9589   0.9228     H
C        0.585   0.4633   0.4015     C
C        0.585   0.9633   0.5985     C
C      0.59438   0.0985   0.7977     C
C      0.59438   0.5985   0.2023     C
C      0.59472  0.34778   0.0398     C
C      0.59472  0.84778   0.9602     C
C       0.5949   0.0289   0.4147     C
C       0.5949   0.5289   0.5853     C
O      0.59493  0.47921   0.7536     O
O      0.59493  0.97921   0.2464     O
C      0.59553  0.06888   0.8458     C
C      0.59553  0.56888   0.1542     C
C      0.59778  0.15528   0.7102     C
C      0.59778  0.65528   0.2898     C
C      0.59825  0.36891   0.9792     C
C      0.59825  0.86891   0.0208     C
H       0.5991   0.1744   0.6791     H
H       0.5991   0.6744   0.3209     H
C      0.60311   0.0214   0.6513     C
C      0.60311   0.5214   0.3487     C
C      0.60414  0.01503    0.349     C
C      0.60414  0.51503    0.651     C
H       0.6051   0.4472   0.5598     H
H       0.6051   0.9472   0.4402     H
N      0.60604  0.49382  0.95426     N
N      0.60604  0.99382  0.04574     N
H       0.6102   0.0419   0.4422     H
H       0.6102   0.5419   0.5578     H
H       0.6111   0.0413   0.6725     H
H       0.6111   0.5413   0.3275     H
Mn     0.61339  0.02956   0.9738    Mn
Mn     0.61339  0.52956   0.0262    Mn
H       0.6138   0.4197   0.4976     H
H       0.6138   0.9197   0.5024     H
H        0.615   0.3095   0.0973     H
H        0.615   0.8095   0.9027     H
C      0.61515   0.4773   0.4272     C
C      0.61515   0.9773   0.5728     C
O      0.61518  0.44708  0.88573     O
O      0.61518  0.94708  0.11427     O
O      0.61562  0.06744  0.90214     O
O      0.61562  0.56744  0.09786     O
C      0.61707  0.12342   0.8143     C
C      0.61707  0.62342   0.1857     C
H       0.6184   0.0452   0.1528     H
H       0.6184   0.5452   0.8472     H
C      0.61847  0.32458   0.0565     C
C      0.61847  0.82458   0.9435     C
C      0.61891  0.15175   0.7708     C
C      0.61891  0.65175   0.2292     C
C       0.6233    0.437   0.5307     C
C       0.6233    0.937   0.4693     C
H        0.624   0.2318   0.7868     H
H        0.624   0.7318   0.2132     H
C      0.62413   0.0034    0.605     C
C      0.62413   0.5034    0.395     C
C      0.62475  0.46823    0.936     C
C      0.62475  0.96823    0.064     C
H       0.6259   0.0187   0.3311     H
H       0.6259   0.5187   0.6689     H
C      0.62658  0.36707   0.9357     C
C      0.62658  0.86707   0.0643     C
H       0.6276   0.2658   0.7415     H
H       0.6276   0.7658   0.2585     H
H       0.6292   0.3816   0.8935     H
H       0.6292   0.8816   0.1065     H
H       0.6316   0.1208   0.8565     H
H       0.6316   0.6208   0.1435     H
H       0.6341    0.448    0.681     H
H       0.6341    0.948    0.319     H
C      0.63428  0.06045   0.1347     C
C      0.63428  0.56045   0.8653     C
H       0.6345   0.1684   0.7827     H
H       0.6345   0.6684   0.2173     H
C      0.63767   0.4604   0.4856     C
C      0.63767   0.9604   0.5144     C
C       0.6396  0.24732   0.7641     C
C       0.6396  0.74732   0.2359     C
H       0.6414   0.0807   0.2374     H
H       0.6414   0.5807   0.7626     H
N      0.64199  0.06018   0.0594     N
N      0.64199  0.56018   0.9406     N
H       0.6459   0.0111   0.5974     H
H       0.6459   0.5111   0.4026     H
C      0.64695   0.4213   0.5864     C
C      0.64695   0.9213   0.4136     C
H       0.6471   0.4775   0.5193     H
H       0.6471   0.9775   0.4807     H
C      0.64764  0.32297   0.0139     C
C      0.64764  0.82297   0.9861     C
C      0.64793  0.43084   0.6632     C
C      0.64793  0.93084   0.3368     C
C      0.64812  0.08135   0.1854     C
C      0.64812  0.58135   0.8146     C
H       0.6497   0.2744     0.86     H
H       0.6497   0.7744     0.14     H
O      0.65105   0.0094  0.93737     O
O      0.65105   0.5094  0.06263     O
C       0.6515  0.34438   0.9523     C
C       0.6515  0.84438   0.0477     C
H       0.6524   0.2362   0.7243     H
H       0.6524   0.7362   0.2757     H
H       0.6561   0.4501   0.4575     H
H       0.6561   0.9501   0.5425     H
C      0.65662  0.46366   0.9731     C
C      0.65662  0.96366   0.0269     C
H        0.661   0.1912   0.6224     H
H        0.661   0.6912   0.3776     H
C      0.66251  0.25996   0.8255     C
C      0.66251  0.75996   0.1745     C
H        0.665   0.0293   0.7898     H
H        0.665   0.5293   0.2102     H
C      0.66508  0.08066   0.0364     C
C      0.66508  0.58066   0.9636     C
C      0.66776  0.48429   0.0333     C
C      0.66776  0.98429   0.9667     C
C      0.66865  0.39812   0.5646     C
C      0.66865  0.89812   0.4354     C
H       0.6687   0.2956   0.5967     H
H       0.6687   0.7956   0.4033     H
H       0.6688   0.4238   0.9094     H
H       0.6688   0.9238   0.0906     H
H       0.6692   0.4212   0.7661     H
H       0.6692   0.9212   0.2339     H
H       0.6693   0.3914   0.5126     H
H       0.6693   0.8914   0.4874     H
C      0.66934  0.41508   0.7136     C
C      0.66934  0.91508   0.2864     C
O      0.66941  0.30031  0.03507     O
O      0.66941  0.80031  0.96493     O
H       0.6697   0.1362   0.2524     H
H       0.6697   0.6362   0.7476     H
H       0.6712   0.0808   0.9839     H
H       0.6712   0.5808   0.0161     H
C       0.6713  0.10305   0.1636     C
C       0.6713  0.60305   0.8364     C
H       0.6738   0.0812   0.8406     H
H       0.6738   0.5812   0.1594     H
C      0.67665  0.43798   0.9487     C
C      0.67665  0.93798   0.0513     C
H       0.6794   0.2737   0.8005     H
H       0.6794   0.7737   0.1995     H
O      0.67969  0.20422  0.85258     O
O      0.67969  0.70422  0.14742     O
C      0.67979  0.23471   0.8741     C
C      0.67979  0.73471   0.1259     C
H       0.6799   0.1684   0.5622     H
H       0.6799   0.6684   0.4378     H
C      0.68084  0.10207   0.0868     C
C      0.68084  0.60207   0.9132     C
C      0.68112  0.34553   0.9042     C
C      0.68112  0.84553   0.0958     C
C      0.68114   0.1887   0.5923     C
C      0.68114   0.6887   0.4077     C
C      0.68231  0.04278    0.771     C
C      0.68231  0.54278    0.229     C
O      0.68256  0.36562  0.84786     O
O      0.68256  0.86562  0.15214     O
H       0.6836   0.2075   0.5577     H
H       0.6836   0.7075   0.4423     H
H       0.6865   0.2711   0.5381     H
H       0.6865   0.7711   0.4619     H
C        0.687   0.1267   0.2193     C
C        0.687   0.6267   0.7807     C
C      0.68798  0.07335   0.8013     C
C      0.68798  0.57335   0.1987     C
C      0.68955  0.38428   0.6153     C
C      0.68955  0.88428   0.3847     C
C       0.6896   0.2901    0.572     C
C       0.6896   0.7901    0.428     C
N      0.68982  0.39199   0.6906     N
N      0.68982  0.89199   0.3094     N
H       0.6915   0.1711   0.3356     H
H       0.6915   0.6711   0.6644     H
N       0.6941  0.24447   0.9361     N
N       0.6941  0.74447   0.0639     N
O      0.69708  0.13482  0.86427     O
O      0.69708  0.63482  0.13573     O
H       0.6972   0.1449   0.1902     H
H       0.6972   0.6449   0.8098     H
H       0.6973   0.3089   0.5419     H
H       0.6973   0.8089   0.4581     H
H        0.698   0.1159    0.069     H
H        0.698   0.6159    0.931     H
C       0.6987  0.47775   0.0646     C
C       0.6987  0.97775   0.9354     C
H       0.6992   0.0109   0.6889     H
H       0.6992   0.5109   0.3111     H
H       0.7001   0.0939   0.2925     H
H       0.7001   0.5939   0.7075     H
C      0.70276  0.03183   0.7113     C
C      0.70276  0.53183   0.2887     C
Mn     0.70418   0.1758  0.92144    Mn
Mn     0.70418   0.6758  0.07856    Mn
H       0.7048   0.3684   0.5972     H
H       0.7048   0.8684   0.4028     H
O      0.70526  0.32341  0.72736     O
O      0.70526  0.82341  0.27264     O
N       0.7063  0.32583  0.92073     N
N       0.7063  0.82583  0.07927     N
H       0.7064   0.4911   0.1054     H
H       0.7064   0.9911   0.8946     H
C      0.70722  0.43231    0.979     C
C      0.70722  0.93231    0.021     C
H       0.7078    0.205   0.6827     H
H       0.7078    0.705   0.3173     H
H       0.7079   0.2649   0.6749     H
H       0.7079   0.7649   0.3251     H
H       0.7081   0.3602   0.3078     H
H       0.7081   0.8602   0.6922     H
H       0.7087   0.3611   0.0775     H
H       0.7087   0.8611   0.9225     H
H       0.7089    0.166   0.6728     H
H       0.7089    0.666   0.3272     H
C      0.70981  0.18707   0.6446     C
N      0.70981  0.21738   0.9736     N
C      0.70981  0.68707   0.3554     C
N      0.70981  0.71738   0.0264     N
C       0.7104  0.11233   0.2644     C
C       0.7104  0.61233   0.7356     C
Mn     0.71087  0.29088  0.99539    Mn
Mn     0.71087  0.79088  0.00461    Mn
C       0.7133    0.165   0.3485     C
C       0.7133    0.665   0.6515     C
C      0.71366  0.09338   0.7769     C
C      0.71366  0.59338   0.2231     C
H       0.7158   0.3076   0.2584     H
H       0.7158   0.8076   0.7416     H
C      0.71717  0.28092    0.638     C
C      0.71717  0.78092    0.362     C
C      0.71817  0.45276   0.0387     C
C      0.71817  0.95276   0.9613     C
C      0.71823  0.12525    0.814     C
C      0.71823  0.62525    0.186     C
Mn     0.72044  0.36339   0.7762    Mn
Mn     0.72044  0.86339   0.2238    Mn
H       0.7207    0.415   0.9602     H
H       0.7207    0.915   0.0398     H
C       0.7211   0.3449   0.3353     C
C       0.7211   0.8449   0.6647     C
O      0.72249  0.25473  0.06565     O
O      0.72249  0.75473  0.93435     O
C        0.724  0.22527   0.0389     C
C        0.724  0.72527   0.9611     C
C       0.7252   0.3136   0.3062     C
C       0.7252   0.8136   0.6938     C
H       0.7253   0.2062   0.4086     H
H       0.7253   0.7062   0.5914     H
C      0.72625  0.31187   0.6783     C
C      0.72625  0.81187   0.3217     C
C       0.7273  0.13485   0.3228     C
C       0.7273  0.63485   0.6772     C
H       0.7275   0.1029   0.2307     H
H       0.7275   0.6029   0.7693     H
C      0.72775   0.0513   0.6854     C
C      0.72775   0.5513   0.3146     C
C       0.7286  0.35311   0.0987     C
C       0.7286  0.85311   0.9013     C
O      0.72921  0.15507   0.9964     O
O      0.72921  0.65507   0.0036     O
H       0.7313   0.3759   0.4189     H
H       0.7313   0.8759   0.5811     H
C       0.7334  0.18519    0.394     C
C       0.7334  0.68519    0.606     C
C      0.73429  0.08224   0.7167     C
C      0.73429  0.58224   0.2833     C
N       0.7345  0.33119   0.8755     N
N       0.7345  0.83119   0.1245     N
C      0.73497  0.35414    0.401     C
C      0.73497  0.85414    0.599     C
H       0.7368    0.271   0.6139     H
H       0.7368    0.771   0.3861     H
N      0.73709  0.32381   0.0826     N
N      0.73709  0.82381   0.9174     N
H       0.7389   0.3959   0.1526     H
H       0.7389   0.8959   0.8474     H
H       0.7391   0.4492   0.0611     H
H       0.7391   0.9492   0.9389     H
O       0.7406  0.40105  0.81263     O
O       0.7406  0.90105  0.18737     O
H       0.7411   0.0436   0.6446     H
H       0.7411   0.5436   0.3554     H
C      0.74171  0.20015   0.0816     C
C      0.74171  0.70015   0.9184     C
C      0.74278  0.18975   0.6072     C
C      0.74278  0.68975   0.3928     C
C       0.7438  0.29066   0.3497     C
C       0.7438  0.79066   0.6503     C
N      0.74382  0.14396  0.79574     N
N      0.74382  0.64396  0.20426     N
C      0.74487  0.16735   0.0543     C
C      0.74487  0.66735   0.9457     C
H       0.7463   0.2688   0.3315     H
H       0.7463   0.7688   0.6685     H
N      0.74641  0.17336   0.8377     N
N      0.74641  0.67336   0.1623     N
C       0.7466  0.37413    0.145     C
C       0.7466  0.87413    0.855     C
O      0.74693  0.21262  0.55571     O
O      0.74693  0.71262  0.44429     O
O      0.75307  0.28738  0.94429     O
O      0.75307  0.78738  0.05571     O
C       0.7534  0.12587    0.355     C
C       0.7534  0.62587    0.645     C
N      0.75359  0.32664   0.6623     N
N      0.75359  0.82664   0.3377     N
H       0.7537   0.2312   0.1685     H
H       0.7537   0.7312   0.8315     H
C      0.75513  0.33265   0.4457     C
C      0.75513  0.83265   0.5543     C
N      0.75618  0.35604  0.70426     N
N      0.75618  0.85604  0.29574     N
C       0.7562  0.20934   0.1503     C
C       0.7562  0.70934   0.8497     C
C      0.75722  0.31025   0.8928     C
C      0.75722  0.81025   0.1072     C
C      0.75829  0.29985   0.4184     C
C      0.75829  0.79985   0.5816     C
H       0.7589   0.4564   0.8554     H
H       0.7589   0.9564   0.1446     H
O       0.7594  0.09895  0.68737     O
O       0.7594  0.59895  0.31263     O
H       0.7609   0.0508   0.4389     H
H       0.7609   0.5508   0.5611     H
H       0.7611   0.1041   0.3474     H
H       0.7611   0.6041   0.6526     H
N      0.76291  0.17619   0.4174     N
N      0.76291  0.67619   0.5826     N
H       0.7632    0.229   0.8861     H
H       0.7632    0.729   0.1139     H
C      0.76503  0.14586    0.099     C
C      0.76503  0.64586    0.901     C
N       0.7655  0.16881   0.6245     N
N       0.7655  0.66881   0.3755     N
C      0.76571  0.41776   0.7833     C
C      0.76571  0.91776   0.2167     C
C       0.7666  0.31481    0.106     C
C       0.7666  0.81481    0.894     C
H       0.7687   0.1241   0.0811     H
H       0.7687   0.6241   0.9189     H
O      0.77079  0.34493   0.5036     O
O      0.77079  0.84493   0.4964     O
C       0.7714  0.14689   0.4013     C
C       0.7714  0.64689   0.5987     C
C      0.77225   0.4487   0.8146     C
C      0.77225   0.9487   0.1854     C
H       0.7725   0.3971   0.2693     H
H       0.7725   0.8971   0.7307     H
C       0.7727  0.36515   0.1772     C
C       0.7727  0.86515   0.8228     C
C      0.77375  0.18813   0.8217     C
C      0.77375  0.68813   0.1783     C
H       0.7747   0.2938   0.0914     H
H       0.7747   0.7938   0.9086     H
C       0.7748   0.1864   0.1938     C
C       0.7748   0.6864   0.8062     C
C        0.776  0.27473   0.4611     C
C        0.776  0.77473   0.5389     C
O      0.77751  0.24527  0.43435     O
O      0.77751  0.74527  0.56565     O
C       0.7789   0.1551   0.1647     C
C       0.7789   0.6551   0.8353     C
H       0.7793    0.085   0.5398     H
H       0.7793    0.585   0.4602     H
Mn     0.77956  0.13661   0.7238    Mn
Mn     0.77956  0.63661   0.2762    Mn
C      0.78177  0.37475    0.686     C
C      0.78177  0.87475    0.314     C
C      0.78183  0.04724   0.4613     C
C      0.78183  0.54724   0.5387     C
C      0.78283  0.21908    0.862     C
C      0.78283  0.71908    0.138     C
H       0.7842   0.1924   0.2416     H
H       0.7842   0.6924   0.7584     H
C      0.78634  0.40662   0.7231     C
C      0.78634  0.90662   0.2769     C
C       0.7867    0.335   0.1515     C
C       0.7867    0.835   0.8485     C
Mn     0.78913  0.20912  0.50461    Mn
Mn     0.78913  0.70912  0.49539    Mn
C       0.7896  0.38767   0.2356     C
C       0.7896  0.88767   0.7644     C
N      0.79019  0.28262   0.5264     N
C      0.79019  0.31293   0.8554     C
N      0.79019  0.78262   0.4736     N
C      0.79019  0.81293   0.1446     C
H       0.7911    0.334   0.8272     H
H       0.7911    0.834   0.1728     H
H       0.7913   0.1389   0.4225     H
H       0.7913   0.6389   0.5775     H
H       0.7919   0.1398   0.1922     H
H       0.7919   0.6398   0.8078     H
H       0.7921   0.2351   0.8251     H
H       0.7921   0.7351   0.1749     H
H       0.7922    0.295   0.8173     H
H       0.7922    0.795   0.1827     H
C      0.79278  0.06769    0.521     C
C      0.79278  0.56769    0.479     C
H       0.7936   0.0089   0.3946     H
H       0.7936   0.5089   0.6054     H
N       0.7937  0.17417  0.57927     N
N       0.7937  0.67417  0.42073     N
O      0.79474  0.17659  0.77264     O
O      0.79474  0.67659  0.22736     O
H       0.7952   0.1316   0.9028     H
H       0.7952   0.6316   0.0972     H
Mn     0.79582   0.3242  0.57856    Mn
Mn     0.79582   0.8242  0.42144    Mn
C      0.79724  0.46817   0.7887     C
C      0.79724  0.96817   0.2113     C
H       0.7999   0.4061   0.2075     H
H       0.7999   0.9061   0.7925     H
H       0.8008   0.4891   0.8111     H
H       0.8008   0.9891   0.1889     H
C       0.8013  0.02225   0.4354     C
C       0.8013  0.52225   0.5646     C
H        0.802   0.3841    0.431     H
H        0.802   0.8841    0.569     H
H       0.8027   0.1911   0.9581     H
H       0.8027   0.6911   0.0419     H
H       0.8028   0.3551   0.3098     H
H       0.8028   0.8551   0.6902     H
O      0.80292  0.36518  0.63573     O
O      0.80292  0.86518  0.36427     O
N       0.8059  0.25553   0.5639     N
N       0.8059  0.75553   0.4361     N
H       0.8085   0.3289   0.1644     H
H       0.8085   0.8289   0.8356     H
N      0.81018  0.10801   0.8094     N
N      0.81018  0.60801   0.1906     N
C       0.8104   0.2099    0.928     C
C       0.8104   0.7099    0.072     C
C      0.81045  0.11572   0.8847     C
C      0.81045  0.61572   0.1153     C
C      0.81202  0.42665   0.6987     C
C      0.81202  0.92665   0.3013     C
C        0.813   0.3733   0.2807     C
C        0.813   0.8733   0.7193     C
H       0.8135   0.2289   0.9619     H
H       0.8135   0.7289   0.0381     H
H       0.8164   0.2925   0.9423     H
H       0.8164   0.7925   0.0577     H
O      0.81744  0.13438  0.65214     O
O      0.81744  0.63438  0.34786     O
C      0.81769  0.45722    0.729     C
C      0.81769  0.95722    0.271     C
C      0.81886   0.3113   0.9077     C
C      0.81886   0.8113   0.0923     C
C      0.81888  0.15447   0.5958     C
C      0.81888  0.65447   0.4042     C
C      0.81916  0.39793   0.4132     C
C      0.81916  0.89793   0.5868     C
H       0.8201   0.3316   0.9378     H
H       0.8201   0.8316   0.0622     H
C      0.82021  0.26529   0.6259     C
C      0.82021  0.76529   0.3741     C
O      0.82031  0.29578  0.64742     O
O      0.82031  0.79578  0.35258     O
H       0.8206   0.2263   0.6995     H
H       0.8206   0.7263   0.3005     H
C      0.82335  0.06202   0.5513     C
C      0.82335  0.56202   0.4487     C
H       0.8262   0.4188   0.6594     H
H       0.8262   0.9188   0.3406     H
C       0.8287  0.39695   0.3364     C
C       0.8287  0.89695   0.6636     C
H       0.8288   0.4192   0.5161     H
H       0.8288   0.9192   0.4839     H
H       0.8303   0.3638   0.2476     H
H       0.8303   0.8638   0.7524     H
O      0.83059  0.19969  0.46493     O
O      0.83059  0.69969  0.53507     O
C      0.83066  0.08492   0.7864     C
C      0.83066  0.58492   0.2136     C
H       0.8307   0.1086   0.9874     H
H       0.8307   0.6086   0.0126     H
H       0.8308   0.0788   0.7339     H
H       0.8308   0.5788   0.2661     H
H       0.8312   0.0762   0.5906     H
H       0.8312   0.5762   0.4094     H
H       0.8313   0.2044   0.9033     H
H       0.8313   0.7044   0.0967     H
C      0.83135  0.10188   0.9354     C
C      0.83135  0.60188   0.0646     C
C      0.83224  0.01571   0.4667     C
C      0.83224  0.51571   0.5333     C
C      0.83492  0.41934   0.4636     C
C      0.83492  0.91934   0.5364     C
H        0.835   0.4707   0.7102     H
H        0.835   0.9707   0.2898     H
C      0.83749  0.24004   0.6745     C
C      0.83749  0.74004   0.3255     C
H        0.839   0.3088   0.8776     H
H        0.839   0.8088   0.1224     H
C      0.84338  0.03634   0.5269     C
C      0.84338  0.53634   0.4731     C
H       0.8439   0.0499   0.0425     H
H       0.8439   0.5499   0.9575     H
H       0.8476   0.2638   0.7757     H
H       0.8476   0.7638   0.2243     H
C       0.8485  0.15562   0.5477     C
C       0.8485  0.65562   0.4523     C
O      0.84895   0.4906  0.56263     O
O      0.84895   0.9906  0.43737     O
H       0.8503   0.2256     0.64     H
H       0.8503   0.7256     0.36     H
C      0.85188  0.41865   0.3146     C
C      0.85188  0.91865   0.6854     C
C      0.85207  0.06916   0.8368     C
C      0.85207  0.56916   0.1632     C
C      0.85236  0.17703   0.4861     C
C      0.85236  0.67703   0.5139     C
H       0.8529   0.0225   0.9807     H
H       0.8529   0.5225   0.0193     H
C      0.85305   0.0787   0.9136     C
C      0.85305   0.5787   0.0864     C
H       0.8541   0.4889   0.9026     H
H       0.8541   0.9889   0.0974     H
N      0.85801  0.43982   0.4406     N
N      0.85801  0.93982   0.5594     N
H       0.8586   0.4193   0.2626     H
H       0.8586   0.9193   0.7374     H
C       0.8604  0.25268   0.7359     C
C       0.8604  0.75268   0.2641     C
C      0.86233   0.0396   0.0144     C
C      0.86233   0.5396   0.9856     C
H       0.8655   0.3316   0.7173     H
H       0.8655   0.8316   0.2827     H
C      0.86572  0.43955   0.3653     C
C      0.86572  0.93955   0.6347     C
H       0.8659    0.052    0.819     H
H       0.8659    0.552    0.181     H
H       0.8684   0.3792   0.6435     H
H       0.8684   0.8792   0.3565     H
H       0.8708   0.1184   0.6065     H
H       0.8708   0.6184   0.3935     H
H       0.8724   0.2342   0.7585     H
H       0.8724   0.7342   0.2415     H
C      0.87342  0.13293   0.5643     C
C      0.87342  0.63293   0.4357     C
H       0.8741   0.4813   0.1689     H
H       0.8741   0.9813   0.8311     H
C      0.87525  0.03177    0.564     C
C      0.87525  0.53177    0.436     C
C      0.87587   0.4966    0.895     C
C      0.87587   0.9966    0.105     C
H        0.876   0.2682   0.7132     H
H        0.876   0.7682   0.2868     H
C       0.8767    0.063   0.9693     C
C       0.8767    0.563   0.0307     C
C      0.88109  0.34825   0.7292     C
C      0.88109  0.84825   0.2708     C
C      0.88153  0.17542   0.4435     C
C      0.88153  0.67542   0.5565     C
H       0.8816   0.4548   0.3472     H
H       0.8816   0.9548   0.6528     H
C      0.88293  0.37658   0.6857     C
C      0.88293  0.87658   0.3143     C
O      0.88438  0.43256  0.59786     O
O      0.88438  0.93256  0.40214     O
O      0.88482  0.05292  0.61427     O
O      0.88482  0.55292  0.38573     O
C      0.88485   0.0227   0.0728     C
C      0.88485   0.5227   0.9272     C
H        0.885   0.1905   0.4027     H
H        0.885   0.6905   0.5973     H
H       0.8862   0.0803   0.0024     H
H       0.8862   0.5803   0.9976     H
Mn     0.88661  0.47044   0.5262    Mn
Mn     0.88661  0.97044   0.4738    Mn
H       0.8889   0.4587   0.8275     H
H       0.8889   0.9587   0.1725     H
H       0.8898   0.4581   0.0578     H
H       0.8898   0.9581   0.9422     H
N      0.89396  0.00618  0.54574     N
N      0.89396  0.50618  0.45426     N
H       0.8949   0.0528   0.9402     H
H       0.8949   0.5528   0.0598     H
C      0.89586  0.48497    0.151     C
C      0.89586  0.98497    0.849     C
C      0.89689   0.4786   0.8487     C
C      0.89689   0.9786   0.1513     C
H       0.9009   0.3256   0.8209     H
H       0.9009   0.8256   0.1791     H
C      0.90175  0.13109   0.5208     C
C      0.90175  0.63109   0.4792     C
C      0.90222  0.34472   0.7898     C
C      0.90222  0.84472   0.2102     C
C      0.90447  0.43112   0.6542     C
C      0.90447  0.93112   0.3458     C
O      0.90507  0.02079   0.7464     O
O      0.90507  0.52079   0.2536     O
C       0.9051   0.4711   0.0853     C
C       0.9051   0.9711   0.9147     C
C      0.90528  0.15222   0.4602     C
C      0.90528  0.65222   0.5398     C
C      0.90562   0.4015   0.7023     C
C      0.90562   0.9015   0.2977     C
C        0.915   0.0367   0.0985     C
C        0.915   0.5367   0.9015     C
H        0.916   0.0411   0.4228     H
H        0.916   0.5411   0.5772     H
C      0.91735  0.00513   0.8043     C
C      0.91735  0.50513   0.1957     C
H       0.9184   0.0701   0.3122     H
H       0.9184   0.1155   0.5327     H
H       0.9184   0.5701   0.6878     H
H       0.9184   0.6155   0.4673     H
N      0.91881   0.4845   0.6255     N
N      0.91881   0.9845   0.3745     N
H       0.9211   0.0585   0.0856     H
H       0.9211   0.5585   0.9144     H
N      0.92336  0.00359   0.5877     N
N      0.92336  0.50359   0.4123     N
N      0.92417   0.4563  0.67073     N
N      0.92417   0.9563  0.32927     N
H       0.9244   0.1509   0.4291     H
H       0.9244   0.6509   0.5709     H
C      0.92542  0.36847   0.8065     C
C      0.92542  0.86847   0.1935     C
Mn      0.9258  0.04582  0.67144    Mn
Mn      0.9258  0.54582  0.32856    Mn
N      0.92619  0.48709   0.8326     N
N      0.92619  0.98709   0.1674     N
O      0.92659  0.45526  0.47736     O
O      0.92659  0.95526  0.52264     O
C      0.92703  0.39764   0.7639     C
C      0.92703  0.89764   0.2361     C
C      0.93519   0.0166    0.144     C
C      0.93519   0.5166    0.856     C
C       0.9364   0.4752   0.0562     C
C       0.9364   0.9752   0.9438     C
C      0.93707  0.04019   0.3946     C
C      0.93707  0.54019   0.6054     C
C      0.93813  0.47625   0.4283     C
C      0.93813  0.97625   0.5717     C
C       0.9387  0.06886   0.3423     C
C       0.9387  0.56886   0.6577     C
C      0.93975  0.00722   0.3572     C
C      0.93975  0.50722   0.6428     C
H       0.9405    0.365   0.8473     H
H       0.9405    0.865   0.1527     H
H       0.9411   0.4473   0.2919     H
H       0.9411   0.9473   0.7081     H
H       0.9412    0.089   0.3724     H
H       0.9412    0.589   0.6276     H
H       0.9424   0.4658   0.0084     H
H       0.9424   0.9658   0.9916     H
O      0.94969  0.41941  0.78507     O
O      0.94969  0.91941  0.21493     O
C      0.95015  0.00829   0.8316     C
C      0.95015  0.50829   0.1684     C
O      0.95422  0.07031  0.60258     O
O      0.95422  0.57031  0.39742     O
H       0.9544   0.4187   0.3467     H
H       0.9544   0.9187   0.6533     H
H        0.955   0.0422   0.4327     H
H        0.955   0.5422   0.5673     H
H       0.9562   0.0247   0.1586     H
H       0.9562   0.5247   0.8414     H
H       0.9575   0.0664   0.3077     H
H       0.9575   0.5664   0.6923     H
Mn     0.95912  0.46087  0.74539    Mn
Mn     0.95912  0.96087  0.25461    Mn
C      0.95934   0.4938   0.0997     C
C      0.95934   0.9938   0.9003     C
C       0.9599   0.4396    0.322     C
C       0.9599   0.9396    0.678     C
O      0.96262  0.00307  0.30571     O
O      0.96262  0.50307  0.69429     O
N      0.96738  0.04019   0.7236     N
N      0.96738  0.54019   0.2764     N
C      0.96908  0.46717    0.388     C
C      0.96908  0.96717    0.612     C
C      0.97527    0.026   0.7889     C
C      0.97527    0.526   0.2111     C
H       0.9756   0.3997     0.61     H
H       0.9756   0.8997     0.39     H
H       0.9763   0.4294   0.5505     H
H       0.9763   0.9294   0.4495     H
H       0.9789   0.4365   0.2881     H
H       0.9789   0.9365   0.7119     H
H        0.979   0.4868   0.3639     H
H        0.979   0.9868   0.6361     H
H       0.9812   0.4963   0.0815     H
H       0.9812   0.9963   0.9185     H
H       0.9818    0.126   0.5368     H
H       0.9818    0.626   0.4632     H
H       0.9842   0.3776   0.4915     H
H       0.9842   0.8776   0.5085     H
C      0.98471  0.07021   0.6241     C
C      0.98471  0.57021   0.3759     C
H       0.9851   0.4579   0.4249     H
H       0.9851   0.9579   0.5751     H
H       0.9862   0.0976   0.4743     H
H       0.9862   0.5976   0.5257     H
C      0.99004  0.41251   0.5755     C
C      0.99004  0.91251   0.4245     C
N      0.99447   0.0559   0.6861     N
N      0.99447   0.5559   0.3139     N
O      0.99527  0.47249  0.81565     O
O      0.99527  0.97249  0.18435     O
C      0.99732   0.1104   0.5141     C
C      0.99732   0.6104   0.4859     C
