data_I
_chemical_name_common  '/home/zhangsd/repos/MofS-CGCNN/ML/data/SSD/clean_cifs/XALBAO_clean'
_cell_length_a 40.37600
_cell_length_b 40.37600
_cell_length_c 17.56700
_cell_angle_alpha 90.00000
_cell_angle_beta  90.00000
_cell_angle_gamma 90.00000
_space_group_name_H-M_alt      'P 1'


loop_
_space_group_symop_operation_xyz
  'x, y, z' 

loop_
_atom_site_label
_atom_site_fract_x
_atom_site_fract_y
_atom_site_fract_z
_atom_site_type_symbol
C       0.0035   0.1111   0.0155     C
C       0.0035   0.6111   0.9845     C
O      0.00408  0.47431  0.31217     O
O      0.00408  0.97431  0.68783     O
N      0.00552  0.05507  0.18428     N
N      0.00552  0.55507  0.81572     N
C      0.01056  0.41185   0.0772     C
C      0.01056  0.91185   0.9228     C
H       0.0137    0.459   0.9317     H
H       0.0137    0.959   0.0683     H
H       0.0148   0.3786   0.9875     H
H       0.0148   0.8786   0.0125     H
C      0.01542  0.07043   0.1237     C
C      0.01542  0.57043   0.8763     C
H        0.017   0.1284   0.0394     H
H        0.017   0.6284   0.9606     H
H       0.0172   0.0982   0.9802     H
H       0.0172   0.5982   0.0198     H
H       0.0191   0.4845    0.601     H
H       0.0191   0.9845    0.399     H
H       0.0201   0.4867    0.868     H
H       0.0201   0.9867    0.132     H
H       0.0246   0.3986   0.1119     H
H       0.0246   0.8986   0.8881     H
H       0.0249   0.4286   0.0526     H
H       0.0249   0.9286   0.9474     H
C      0.02563  0.02468   0.2836     C
C      0.02563  0.52468   0.7164     C
C      0.02979  0.46712   0.8935     C
C      0.02979  0.96712   0.1065     C
N       0.0331  0.03911   0.2198     N
N       0.0331  0.53911   0.7802     N
O      0.03859  0.00423  0.80509     O
O      0.03859  0.50423  0.19491     O
Mn     0.04078  0.46151  0.24449    Mn
Mn     0.04078  0.96151  0.75551    Mn
H       0.0418   0.0246    0.649     H
H       0.0418   0.5246    0.351     H
C       0.0419   0.4878   0.6124     C
C       0.0419   0.9878   0.3876     C
H       0.0449   0.0457   0.9252     H
H       0.0449   0.5457   0.0748     H
O      0.04569  0.07068  0.10093     O
O      0.04569  0.57068  0.89907     O
H       0.0476   0.0685   0.8016     H
H       0.0476   0.5685   0.1984     H
O      0.04868  0.41935  0.28273     O
O      0.04868  0.91935  0.71727     O
C      0.05173  0.00529   0.3238     C
C      0.05173  0.50529   0.6762     C
H       0.0556   0.3631   0.3403     H
H       0.0556   0.8631   0.6597     H
C      0.06126  0.00811   0.8563     C
C      0.06126  0.50811   0.1437     C
C      0.06199  0.47638    0.932     C
C      0.06199  0.97638    0.068     C
C      0.06372  0.01699   0.6397     C
C      0.06372  0.51699   0.3603     C
C      0.06442  0.04165   0.8926     C
C      0.06442  0.54165   0.1074     C
H       0.0652   0.4727   0.5102     H
H       0.0652   0.9727   0.4898     H
C       0.0671  0.06888   0.8349     C
C       0.0671  0.56888   0.1651     C
C       0.0677   0.4748   0.5638     C
C       0.0677   0.9748   0.4362     C
H       0.0683   0.0903   0.8611     H
H       0.0683   0.5903   0.1389     H
C      0.07074  0.39693   0.2613     C
C      0.07074  0.89693   0.7387     C
C      0.07111  0.36668   0.3004     C
C      0.07111  0.86668   0.6996     C
H       0.0715   0.1571   0.9406     H
H       0.0715   0.6571   0.0594     H
O      0.07348  0.45545  0.98101     O
O      0.07348  0.95545  0.01899     O
N      0.07408  0.48651   0.3314     N
N      0.07408  0.98651   0.6686     N
Mn     0.07469  0.04573  0.16797    Mn
Mn     0.07469  0.54573  0.83203    Mn
N      0.07613  0.45671  0.17132     N
N      0.07613  0.95671  0.82868     N
N      0.07671  0.00394   0.0853     N
N      0.07671  0.50394   0.9147     N
H       0.0799   0.1181   0.0341     H
H       0.0799   0.6181   0.9659     H
H       0.0817   0.0592   0.5877     H
H       0.0817   0.5592   0.4123     H
N      0.08213  0.48522   0.1269     N
N      0.08213  0.98522   0.8731     N
C      0.08376  0.00357   0.2993     C
C      0.08376  0.50357   0.7007     C
H       0.0843   0.0419   0.9255     H
H       0.0843   0.5419   0.0745     H
C       0.0856   0.0364    0.597     C
C       0.0856   0.5364    0.403     C
H       0.0872   0.0657   0.8044     H
H       0.0872   0.5657   0.1956     H
C       0.0919   0.1566   0.9677     C
C       0.0919   0.6566   0.0323     C
H       0.0929   0.3215   0.3094     H
H       0.0929   0.8215   0.6906     H
C      0.09335  0.40114    0.201     C
C      0.09335  0.90114    0.799     C
C       0.0934   0.3419   0.2823     C
C       0.0934   0.8419   0.7177     C
C      0.09539  0.43084   0.1543     C
C      0.09539  0.93084   0.8457     C
O      0.09631  0.02028   0.2416     O
O      0.09631  0.52028   0.7584     O
C      0.09651  0.13412   0.0236     C
C      0.09651  0.63412   0.9764     C
C       0.0966   0.4657   0.6017     C
C       0.0966   0.9657   0.3983     C
C       0.1021   0.4819   0.3444     C
C       0.1021   0.9819   0.6556     C
H        0.104    0.052    0.437     H
H        0.104    0.552    0.563     H
C       0.1063   0.4832   0.6603     C
C       0.1063   0.9832   0.3397     C
N      0.10697  0.00612   0.0427     N
N      0.10697  0.50612   0.9573     N
H       0.1091   0.4471   0.5853     H
H       0.1091   0.9471   0.4147     H
H       0.1117   0.4655   0.3126     H
H       0.1117   0.9655   0.6874     H
H       0.1131   0.1944   0.9097     H
H       0.1131   0.6944   0.0903     H
H       0.1138   0.0787   0.5006     H
H       0.1138   0.5787   0.4994     H
Mn     0.11419  0.47027  0.02818    Mn
Mn     0.11419  0.97027  0.97182    Mn
C      0.11536  0.37534   0.1848     C
C      0.11536  0.87534   0.8152     C
C       0.1155   0.0191   0.5669     C
C       0.1155   0.5191   0.4331     C
C      0.11588  0.34651   0.2264     C
C      0.11588  0.84651   0.7736     C
O      0.11592    0.053  0.11108     O
O      0.11592    0.553  0.88892     O
O      0.11619  0.43229  0.09906     O
O      0.11619  0.93229  0.90094     O
C      0.11668  0.17889   0.9496     C
C      0.11668  0.67889   0.0504     C
H       0.1177   0.4535   0.8507     H
H       0.1177   0.9535   0.1493     H
H       0.1216    0.267   0.2106     H
H       0.1216    0.767   0.7894     H
C      0.12281   0.0617   0.4657     C
C      0.12281   0.5617   0.5343     C
C       0.1243    0.495   0.3955     C
C       0.1243    0.995   0.6045     C
C      0.12523    0.032   0.0615     C
C      0.12523    0.532   0.9385     C
C      0.12534  0.13464   0.0652     C
C      0.12534  0.63464   0.9348     C
H       0.1278   0.1195   0.1062     H
H       0.1278   0.6195   0.8938     H
H       0.1286   0.2352   0.2625     H
H       0.1286   0.7352   0.7375     H
H       0.1287   0.4822   0.6761     H
H       0.1287   0.9822   0.3239     H
H       0.1305   0.3778   0.1438     H
H       0.1305   0.8778   0.8562     H
H       0.1319   0.3299   0.2159     H
H       0.1319   0.8299   0.7841     H
C      0.13389  0.43831   0.8684     C
C      0.13389  0.93831   0.1316     C
H       0.1345   0.0498    0.318     H
H       0.1345   0.5498    0.682     H
C       0.1385   0.0358   0.5104     C
C       0.1385   0.5358   0.4896     C
C       0.1389   0.2535   0.2345     C
C       0.1389   0.7535   0.7655     C
H         0.14    0.418   0.7676     H
H         0.14    0.918   0.2324     H
N      0.14187  0.43864   0.9424     N
N      0.14187  0.93864   0.0576     N
H       0.1458   0.4858   0.4015     H
H       0.1458   0.9858   0.5985     H
C      0.14624  0.07799   0.4106     C
C      0.14624  0.57799   0.5894     C
C      0.14693  0.17926   0.9887     C
C      0.14693  0.67926   0.0113     C
H       0.1474   0.0188   0.4753     H
H       0.1474   0.5188   0.5247     H
C      0.14747  0.41779   0.8188     C
C      0.14747  0.91779   0.1812     C
C      0.14753  0.06779   0.3355     C
C      0.14753  0.56779   0.6645     C
H       0.1486   0.2254   0.1381     H
H       0.1486   0.7254   0.8619     H
C      0.15114  0.15665    0.049     C
C      0.15114  0.65665    0.951     C
H       0.1518   0.2672   0.2698     H
H       0.1518   0.7672   0.7302     H
O      0.15203  0.49032  0.06305     O
O      0.15203  0.99032  0.93695     O
H       0.1574   0.0455   0.5384     H
H       0.1574   0.5455   0.4616     H
C      0.15747  0.03651   0.0247     C
C      0.15747  0.53651   0.9753     C
H       0.1597   0.3183   0.3889     H
H       0.1597   0.8183   0.6111     H
C      0.16185  0.23944   0.1728     C
C      0.16185  0.73944   0.8272     C
H       0.1646   0.4721   0.2112     H
H       0.1646   0.9721   0.7888     H
C      0.16546  0.41827   0.9628     C
C      0.16546  0.91827   0.0372     C
C      0.16779  0.10253   0.4312     C
C      0.16779  0.60253   0.5688     C
H       0.1678   0.0786   0.2349     H
H       0.1678   0.5786   0.7651     H
H        0.168     0.11   0.4824     H
H        0.168     0.61   0.5176     H
C      0.16827  0.08454   0.2872     C
C      0.16827  0.58454   0.7128     C
O      0.16935  0.20132  0.96727     O
O      0.16935  0.70132  0.03273     O
C      0.16936   0.0159   0.9654     C
C      0.16936   0.5159   0.0346     C
H       0.1699    0.077   0.0879     H
H       0.1699    0.577   0.9121     H
H       0.1713   0.3638   0.7494     H
H       0.1713   0.8638   0.2506     H
H       0.1714   0.4178   0.0151     H
H       0.1714   0.9178   0.9849     H
C      0.17201  0.39624   0.8394     C
C      0.17201  0.89624   0.1606     C
H        0.173   0.4199   0.1621     H
H        0.173   0.9199   0.8379     H
C      0.17781  0.06267   0.0491     C
C      0.17781  0.56267   0.9509     C
H       0.1786   0.2251   0.1974     H
H       0.1786   0.7251   0.8026     H
O      0.17932  0.29569  0.14907     O
O      0.17932  0.79569  0.85093     O
C      0.17957  0.26542   0.1263     C
C      0.17957  0.76542   0.8737     C
C      0.18084  0.15461   0.0957     C
C      0.18084  0.65461   0.9043     C
C      0.18112   0.3171   0.4151     C
C      0.18112   0.8171   0.5849     C
H       0.1815   0.2976   0.4484     H
H       0.1815   0.7976   0.5516     H
C      0.18176  0.45848   0.2307     C
C      0.18176  0.95848   0.7693     C
C      0.18221  0.39753   0.9145     C
C      0.18221  0.89753   0.0855     C
O      0.18229  0.13381  0.15094     O
O      0.18229  0.63381  0.84906     O
H       0.1843   0.3372   0.4456     H
H       0.1843   0.8372   0.5544     H
C      0.18733  0.42781   0.2009     C
C      0.18733  0.92781   0.7991     C
C       0.1883  0.37281   0.7843     C
C       0.1883  0.87281   0.2157     C
C      0.18831  0.11611   0.3816     C
C      0.18831  0.61611   0.6184     C
N      0.18864  0.10813   0.3076     N
N      0.18864  0.60813   0.6924     N
H       0.1908   0.3317   0.6623     H
H       0.1908   0.8317   0.3377     H
N      0.19493  0.25552  0.06572     N
N      0.19493  0.75552  0.93428     N
O        0.197  0.36592  0.13892     O
O        0.197  0.86592  0.86108     O
H       0.1971   0.1409   0.6647     H
H       0.1971   0.6409   0.3353     H
H       0.1972   0.4902   0.3124     H
H       0.1972   0.9902   0.6876     H
H        0.198    0.354    0.813     H
H        0.198    0.854    0.187     H
H       0.2002   0.3845    0.932     H
H       0.2002   0.8845    0.068     H
C      0.20047  0.02264    0.934     C
C      0.20047  0.52264    0.066     C
C      0.20152  0.46932   0.2897     C
C      0.20152  0.96932   0.7103     C
H       0.2035   0.1323   0.3993     H
H       0.2035   0.6323   0.6007     H
Mn     0.20427  0.32469  0.08203    Mn
Mn     0.20427  0.82469  0.91797    Mn
H       0.2043   0.2949   0.3248     H
H       0.2043   0.7949   0.6752     H
H       0.2045   0.4074   0.7116     H
H       0.2045   0.9074   0.2884     H
O      0.20545  0.17652  0.26899     O
O      0.20545  0.67652  0.73101     O
N      0.20671  0.17387  0.07868     N
N      0.20671  0.67387  0.92132     N
H       0.2081   0.3343   0.3245     H
H       0.2081   0.8343   0.6755     H
C      0.20835  0.31442   0.3574     C
C      0.20835  0.81442   0.6426     C
C      0.20848  0.06824   0.0193     C
C      0.20848  0.56824   0.9807     C
H       0.2087   0.0091   0.8939     H
H       0.2087   0.5091   0.1061     H
H        0.209   0.2363   0.3183     H
H        0.209   0.7363   0.6817     H
N      0.21089   0.2831   0.0302     N
N      0.21089   0.7831   0.9698     N
Mn     0.21151  0.20922  0.00551    Mn
Mn     0.21151  0.70922  0.99449    Mn
C      0.21349  0.40747   0.2253     C
C      0.21349  0.90747   0.7747     C
C       0.2136   0.3356    0.653     C
C       0.2136   0.8356    0.347     C
C       0.2142   0.3885   0.7396     C
C       0.2142   0.8885   0.2604     C
H       0.2155   0.1383   0.9374     H
H       0.2155   0.6383   0.0626     H
C       0.2157   0.1534   0.6483     C
C       0.2157   0.6534   0.3517     C
C      0.21712  0.22021   0.3565     C
C      0.21712  0.72021   0.6435     C
C        0.218  0.37523   0.1885     C
C        0.218  0.87523   0.8115     C
C      0.21932  0.04848   0.9603     C
C      0.21932  0.54848   0.0397     C
Mn     0.22027  0.13581  0.22182    Mn
Mn     0.22027  0.63581  0.77818    Mn
H       0.2221   0.0854   0.0388     H
H       0.2221   0.5854   0.9612     H
H       0.2227   0.1848   0.7398     H
H       0.2227   0.6848   0.2602     H
O      0.22431  0.24592  0.93783     O
O      0.22431  0.74592  0.06217     O
C       0.2248   0.1823   0.6862     C
C       0.2248   0.6823   0.3138     C
C      0.22532  0.27563   0.9664     C
C      0.22532  0.77563   0.0336     C
H       0.2254   0.2918    0.601     H
H       0.2254   0.7918    0.399     H
C      0.22638  0.18801    0.318     C
C      0.22638  0.68801    0.682     C
C      0.22736  0.45047    0.316     C
C      0.22736  0.95047    0.684     C
O      0.22972  0.34631   0.0084     O
O      0.22972  0.84631   0.9916     O
C       0.2309   0.3655   0.6831     C
C       0.2309   0.8655   0.3169     C
H       0.2312   0.3974   0.7747     H
H       0.2312   0.8974   0.2253     H
C       0.2319   0.1479   0.9056     C
C       0.2319   0.6479   0.0944     C
H       0.2322   0.1213   0.5739     H
H       0.2322   0.6213   0.4261     H
C      0.23301  0.31372   0.6103     C
C      0.23301  0.81372   0.3897     C
C       0.2332   0.1437   0.5897     C
C       0.2332   0.6437   0.4103     C
C       0.2341  0.41936   0.2846     C
C       0.2341  0.91936   0.7154     C
H       0.2345   0.2309    0.649     H
H       0.2345   0.7309    0.351     H
N      0.23522  0.16787   0.1231     N
N      0.23522  0.66787   0.8769     N
H       0.2358   0.1042   0.8485     H
H       0.2358   0.6042   0.1515     H
N      0.23651  0.17592   0.9186     N
N      0.23651  0.67592   0.0814     N
H       0.2367   0.2299    0.382     H
H       0.2367   0.7299    0.618     H
C       0.2378   0.2081   0.6376     C
C       0.2378   0.7081   0.3624     C
H       0.2402   0.0528   0.9376     H
H       0.2402   0.5528   0.0624     H
O      0.24032  0.09797  0.18695     O
O      0.24032  0.59797  0.81305     O
H       0.2409   0.4587   0.3561     H
H       0.2409   0.9587   0.6439     H
C      0.24189  0.31126   0.3937     C
C      0.24189  0.81126   0.6063     C
N      0.24388  0.35697   0.2073     N
N      0.24388  0.85697   0.7927     N
C      0.24471  0.30173   0.9262     C
C      0.24471  0.80173   0.0738     C
C        0.245   0.1257   0.8545     C
C        0.245   0.6257   0.1455     C
O      0.24577  0.28859  0.44491     O
O      0.24577  0.78859  0.55509     O
N      0.24606  0.32671   0.1647     N
N      0.24606  0.82671   0.8353     N
C      0.24643  0.33376   0.9507     C
C      0.24643  0.83376   0.0493     C
C      0.25357  0.16624   0.5493     C
C      0.25357  0.66624   0.4507     C
N      0.25394  0.17329   0.3353     N
N      0.25394  0.67329   0.6647     N
O      0.25423  0.21141  0.05509     O
O      0.25423  0.71141  0.94491     O
C        0.255   0.3743   0.6455     C
C        0.255   0.8743   0.3545     C
C      0.25529  0.19827   0.5738     C
C      0.25529  0.69827   0.4262     C
N      0.25612  0.14303   0.2927     N
N      0.25612  0.64303   0.7073     N
C      0.25811  0.18874   0.1063     C
C      0.25811  0.68874   0.8937     C
H       0.2591   0.0413   0.1439     H
H       0.2591   0.5413   0.8561     H
O      0.25968  0.40203  0.31305     O
O      0.25968  0.90203  0.68695     O
H       0.2598   0.4472   0.5624     H
H       0.2598   0.9472   0.4376     H
C       0.2622   0.2919   0.8624     C
C       0.2622   0.7919   0.1376     C
H       0.2633   0.2701    0.118     H
H       0.2633   0.7701    0.882     H
N      0.26349  0.32408   0.5814     N
N      0.26349  0.82408   0.4186     N
H       0.2642   0.3958   0.6515     H
H       0.2642   0.8958   0.3485     H
N      0.26478  0.33213   0.3769     N
N      0.26478  0.83213   0.6231     N
H       0.2655   0.2691    0.851     H
H       0.2655   0.7691    0.149     H
C       0.2659  0.08064   0.2154     C
C       0.2659  0.58064   0.7846     C
C       0.2668   0.3563   0.9103     C
C       0.2668   0.8563   0.0897     C
C      0.26699  0.18628   0.8897     C
C      0.26699  0.68628   0.1103     C
H       0.2678   0.3787   0.9261     H
H       0.2678   0.8787   0.0739     H
C       0.2681   0.3521   0.5944     C
C       0.2681   0.8521   0.4056     C
H       0.2688   0.1026   0.7253     H
H       0.2688   0.6026   0.2747     H
C       0.2691   0.1345   0.8169     C
C       0.2691   0.6345   0.1831     C
O      0.27028  0.15369   0.4916     O
O      0.27028  0.65369   0.5084     O
C      0.27264  0.04953    0.184     C
C      0.27264  0.54953    0.816     C
C      0.27362  0.31199    0.182     C
C      0.27362  0.81199    0.818     C
H       0.2746   0.2082    0.899     H
H       0.2746   0.7082    0.101     H
C      0.27468  0.22437   0.5336     C
C      0.27468  0.72437   0.4664     C
C       0.2752   0.3177   0.8138     C
C       0.2752   0.8177   0.1862     C
O      0.27569  0.25408  0.56217     O
O      0.27569  0.75408  0.43783     O
H       0.2773   0.3152   0.7602     H
H       0.2773   0.8152   0.2398     H
H       0.2779   0.4146   0.4612     H
H       0.2779   0.9146   0.5388     H
Mn     0.27973  0.36419  0.27818    Mn
Mn     0.27973  0.86419  0.72182    Mn
C      0.28068  0.45152   0.5397     C
C      0.28068  0.95152   0.4603     C
C        0.282  0.12477   0.3115     C
C        0.282  0.62477   0.6885     C
C      0.28288  0.27979   0.1435     C
C      0.28288  0.77979   0.8565     C
C       0.2843   0.3466   0.8517     C
C       0.2843   0.8466   0.1483     C
H       0.2845   0.3617   0.5626     H
H       0.2845   0.8617   0.4374     H
C       0.2858   0.1115   0.7604     C
C       0.2858   0.6115   0.2396     C
C       0.2864   0.1644    0.847     C
C       0.2864   0.6644    0.153     C
C      0.28651  0.09253   0.2747     C
C      0.28651  0.59253   0.7253     C
Mn     0.28849  0.29078  0.49449    Mn
Mn     0.28849  0.79078  0.50551    Mn
N      0.28911   0.2169   0.4698     N
N      0.28911   0.7169   0.5302     N
H        0.291   0.2637   0.1817     H
H        0.291   0.7637   0.8183     H
H       0.2913   0.4909   0.6061     H
H       0.2913   0.9909   0.3939     H
C      0.29152  0.43176   0.4807     C
C      0.29152  0.93176   0.5193     C
C      0.29165  0.18558   0.1426     C
C      0.29165  0.68558   0.8574     C
H       0.2919   0.1657   0.1755     H
H       0.2919   0.6657   0.8245     H
N      0.29329  0.32613  0.42132     N
N      0.29329  0.82613  0.57868     N
O      0.29455  0.32348  0.23101     O
O      0.29455  0.82348  0.76899     O
H       0.2955   0.0926   0.7884     H
H       0.2955   0.5926   0.2116     H
H       0.2957   0.2051   0.1752     H
H       0.2957   0.7051   0.8248     H
Mn     0.29573  0.17531  0.41797    Mn
Mn     0.29573  0.67531  0.58203    Mn
H       0.2965   0.3677   0.1007     H
H       0.2965   0.8677   0.8993     H
C      0.29848  0.03068   0.2103     C
C      0.29848  0.53068   0.7897     C
C      0.29953  0.47736    0.566     C
C      0.29953  0.97736    0.434     C
H       0.2998   0.1155    0.568     H
H       0.2998   0.6155    0.432     H
H        0.302    0.146    0.687     H
H        0.302    0.646    0.313     H
H       0.3028   0.0098   0.1876     H
H       0.3028   0.5098   0.8124     H
H       0.3029   0.3591   0.8353     H
H       0.3029   0.8591   0.1647     H
O        0.303  0.13408  0.36108     O
O        0.303  0.63408  0.63892     O
N      0.30507  0.24448  0.43428     N
N      0.30507  0.74448  0.56572     N
H       0.3092   0.1683   0.8377     H
H       0.3092   0.6683   0.1623     H
N      0.31136  0.39187   0.1924     N
N      0.31136  0.89187   0.8076     N
C      0.31169  0.38389   0.1184     C
C      0.31169  0.88389   0.8816     C
C       0.3117  0.12719   0.7157     C
C       0.3117  0.62719   0.2843     C
C      0.31267  0.07219   0.2991     C
C      0.31267  0.57219   0.7009     C
H       0.3157   0.1628   0.0544     H
H       0.3157   0.6628   0.9456     H
O      0.31771  0.36619  0.34906     O
O      0.31771  0.86619  0.65094     O
C      0.31779  0.10247   0.5855     C
C      0.31779  0.60247   0.4145     C
C      0.31824  0.04152   0.2693     C
C      0.31824  0.54152   0.7307     C
H       0.3185   0.2024   0.0516     H
H       0.3185   0.7024   0.9484     H
C      0.31888   0.1829   0.0849     C
C      0.31888   0.6829   0.9151     C
C      0.31916  0.34539   0.4043     C
C      0.31916  0.84539   0.5957     C
C      0.32043  0.23458   0.3737     C
C      0.32043  0.73458   0.6263     C
O      0.32068  0.20431  0.35093     O
O      0.32068  0.70431  0.64907     O
H       0.3214   0.2749   0.3026     H
H       0.3214   0.7749   0.6974     H
C      0.32219  0.43733   0.4509     C
C      0.32219  0.93733   0.5491     C
H        0.327   0.0801   0.3379     H
H        0.327   0.5801   0.6621     H
C      0.32799  0.10376   0.6606     C
C      0.32799  0.60376   0.3394     C
H       0.3286   0.0822   0.4849     H
H       0.3286   0.5822   0.5151     H
H       0.3287   0.1362   0.7506     H
H       0.3287   0.6362   0.2494     H
H       0.3301    0.423   0.4121     H
H       0.3301    0.923   0.5879     H
C      0.33064   0.4841   0.5346     C
C      0.33064   0.9841   0.4654     C
O      0.33065  0.29868  0.53273     O
O      0.33065  0.79868  0.46727     O
C      0.33173  0.41546   0.2128     C
C      0.33173  0.91546   0.7872     C
H        0.332     0.39   0.0176     H
H        0.332     0.89   0.9824     H
H       0.3322   0.4214   0.2651     H
H       0.3322   0.9214   0.7349     H
C      0.33221  0.39747   0.0688     C
C      0.33221  0.89747   0.9312     C
C      0.33454  0.08173   0.5372     C
C      0.33454  0.58173   0.4628     C
H       0.3354   0.0279   0.2888     H
H       0.3354   0.5279   0.7112     H
C      0.33815  0.26056   0.3272     C
C      0.33815  0.76056   0.6728     C
H       0.3403   0.1817   0.1111     H
H       0.3403   0.6817   0.8889     H
C      0.34253  0.46349   0.4753     C
C      0.34253  0.96349   0.5247     C
H       0.3426   0.4545   0.9616     H
H       0.3426   0.9545   0.0384     H
O      0.34797  0.00968  0.43695     O
O      0.34797  0.50968  0.56305     O
H       0.3482   0.2328   0.2302     H
H       0.3482   0.7328   0.7698     H
C      0.34886  0.34335    0.451     C
C      0.34886  0.84335    0.549     C
H       0.3514   0.2746   0.3619     H
H       0.3514   0.7746   0.6381     H
C      0.35247  0.43221   0.1645     C
C      0.35247  0.93221   0.8355     C
C      0.35253  0.08221   0.6812     C
C      0.35253  0.58221   0.3188     C
H       0.3526   0.4812   0.0247     H
H       0.3526   0.9812   0.9753     H
C      0.35307  0.32074   0.5113     C
C      0.35307  0.82074   0.4887     C
C      0.35376  0.42201   0.0894     C
C      0.35376  0.92201   0.9106     C
H       0.3542   0.0142   0.0985     H
H       0.3542   0.5142   0.9015     H
N      0.35813  0.06136   0.5576     N
N      0.35813  0.56136   0.4424     N
H         0.36    0.082   0.7324     H
H         0.36    0.582   0.2676     H
C       0.3611   0.2465   0.2655     C
C       0.3611   0.7465   0.7345     C
C       0.3615   0.4642   0.9896     C
C       0.3615   0.9642   0.0104     C
H       0.3655   0.4502    0.182     H
H       0.3655   0.9502    0.818     H
C      0.36611  0.06169   0.6316     C
C      0.36611  0.56169   0.3684     C
H       0.3681   0.1701   0.2841     H
H       0.3681   0.6701   0.7159     H
H       0.3695   0.1222   0.3562     H
H       0.3695   0.6222   0.6438     H
H       0.3713   0.0178   0.8239     H
H       0.3713   0.5178   0.1761     H
H       0.3714   0.2648   0.2375     H
H       0.3714   0.7648   0.7625     H
H       0.3722   0.3805   0.3938     H
H       0.3722   0.8805   0.6062     H
C      0.37466  0.36536   0.4348     C
C      0.37466  0.86536   0.5652     C
C      0.37477    0.468   0.4385     C
C      0.37477    0.968   0.5615     C
C       0.3757    0.005   0.1045     C
C       0.3757    0.505   0.8955     C
C      0.37719   0.4383   0.0343     C
C      0.37719   0.9383   0.9657     C
H       0.3784    0.233   0.2894     H
H       0.3784    0.733   0.7106     H
H       0.3823   0.0465   0.6493     H
H       0.3823   0.5465   0.3507     H
C      0.38332  0.32111   0.5504     C
C      0.38332  0.82111   0.4496     C
O      0.38381  0.06771  0.40094     O
O      0.38381  0.56771  0.59906     O
O      0.38408    0.447  0.38892     O
O      0.38408    0.947  0.61108     O
C      0.38412  0.15349   0.2736     C
C      0.38412  0.65349   0.7264     C
C       0.3845   0.4809   0.9331     C
C       0.3845   0.9809   0.0669     C
C      0.38464  0.12466   0.3152     C
C      0.38464  0.62466   0.6848     C
Mn     0.38581  0.02973  0.47182    Mn
Mn     0.38581  0.52973  0.52818    Mn
H       0.3862   0.4213   0.9994     H
H       0.3862   0.9213   0.0006     H
H       0.3869   0.3056   0.5903     H
H       0.3869   0.8056   0.4097     H
H       0.3883   0.0345   0.1874     H
H       0.3883   0.5345   0.8126     H
H       0.3909   0.0529   0.9147     H
H       0.3909   0.5529   0.0853     H
N      0.39303  0.49388   0.4573     N
N      0.39303  0.99388   0.5427     N
C       0.3937   0.0168   0.8397     C
C       0.3937   0.5168   0.1603     C
H        0.396    0.448    0.063     H
H        0.396    0.948    0.937     H
C       0.3979   0.0181   0.1556     C
C       0.3979   0.5181   0.8444     C
C       0.4034   0.0343   0.8983     C
C       0.4034   0.5343   0.1017     C
C      0.40349  0.36588   0.4764     C
C      0.40349  0.86588   0.5236     C
O      0.40369  0.47972   0.2584     O
O      0.40369  0.97972   0.7416     O
C      0.40461  0.06916   0.3457     C
C      0.40461  0.56916   0.6543     C
C       0.4066   0.1581   0.2177     C
C       0.4066   0.6581   0.7823     C
C      0.40665  0.09886    0.299     C
C      0.40665  0.59886    0.701     C
H       0.4071   0.1785   0.1906     H
H       0.4071   0.6785   0.8094     H
C       0.4081   0.3434   0.5323     C
C       0.4081   0.8434   0.4677     C
H       0.4128   0.4343   0.6956     H
H       0.4128   0.9343   0.3044     H
C       0.4144   0.4636    0.903     C
C       0.4144   0.9636    0.097     C
H       0.4157   0.4581   0.5745     H
H       0.4157   0.9581   0.4255     H
C      0.41624  0.49643   0.2007     C
C      0.41624  0.99643   0.7993     C
N      0.41787  0.01478   0.3731     N
N      0.41787  0.51478   0.6269     N
H       0.4183   0.4408   0.9123     H
H       0.4183   0.9408   0.0877     H
H       0.4201   0.3819   0.4659     H
H       0.4201   0.8819   0.5341     H
N      0.42329  0.49606   0.4147     N
N      0.42329  0.99606   0.5853     N
N      0.42387  0.04329  0.32868     N
N      0.42387  0.54329  0.67132     N
Mn     0.42531  0.45427  0.33203    Mn
Mn     0.42531  0.95427  0.66797    Mn
N      0.42592  0.01349   0.1686     N
N      0.42592  0.51349   0.8314     N
O      0.42652  0.04455  0.51899     O
O      0.42652  0.54455  0.48101     O
H       0.4285   0.3429   0.5594     H
H       0.4285   0.8429   0.4406     H
C      0.42889  0.13332   0.1996     C
C      0.42889  0.63332   0.8004     C
C      0.42926  0.10307   0.2387     C
C      0.42926  0.60307   0.7613     C
H       0.4317   0.4097   0.6389     H
H       0.4317   0.9097   0.3611     H
C       0.4323   0.0252   0.9362     C
C       0.4323   0.5252   0.0638     C
C       0.4329  0.43112   0.6651     C
C       0.4329  0.93112   0.3349     C
H       0.4348   0.0273   0.9898     H
H       0.4348   0.5273   0.0102     H
C      0.43558  0.45835   0.6074     C
C      0.43558  0.95835   0.3926     C
C      0.43628  0.48301   0.8603     C
C      0.43628  0.98301   0.1397     C
C      0.43801  0.02362    0.568     C
C      0.43801  0.52362    0.432     C
C      0.43874  0.49189   0.6437     C
C      0.43874  0.99189   0.3563     C
H       0.4444   0.1369   0.1597     H
H       0.4444   0.6369   0.8403     H
C      0.44827  0.49471   0.1762     C
C      0.44827  0.99471   0.8238     C
O      0.45132  0.08065  0.21727     O
O      0.45132  0.58065  0.78273     O
H       0.4524   0.4315   0.6984     H
H       0.4524   0.9315   0.3016     H
O      0.45431  0.42932  0.39907     O
O      0.45431  0.92932  0.60093     O
H       0.4551   0.4543   0.5748     H
H       0.4551   0.9543   0.4252     H
C       0.4581   0.0122   0.8876     C
C       0.4581   0.5122   0.1124     C
H       0.4582   0.4754    0.851     H
H       0.4582   0.9754    0.149     H
Mn     0.45922  0.03849  0.25551    Mn
Mn     0.45922  0.53849  0.74449    Mn
O      0.46141  0.49577  0.69491     O
O      0.46141  0.99577  0.30509     O
N       0.4669  0.46089   0.2802     N
N       0.4669  0.96089   0.7198     N
C      0.47021  0.03288   0.6065     C
C      0.47021  0.53288   0.3935     C
C      0.47437  0.47532   0.2164     C
C      0.47437  0.97532   0.7836     C
H       0.4751   0.0714   0.4474     H
H       0.4751   0.5714   0.5526     H
H       0.4754   0.1014   0.3881     H
H       0.4754   0.6014   0.6119     H
H       0.4799   0.0133    0.632     H
H       0.4799   0.5133    0.368     H
H       0.4809   0.0155    0.899     H
H       0.4809   0.5155    0.101     H
H       0.4828   0.4018   0.5198     H
H       0.4828   0.9018   0.4802     H
H        0.483   0.3716   0.4606     H
H        0.483   0.8716   0.5394     H
C      0.48458  0.42957   0.3763     C
C      0.48458  0.92957   0.6237     C
H       0.4852   0.1214   0.5125     H
H       0.4852   0.6214   0.4875     H
H       0.4863    0.041   0.5683     H
H       0.4863    0.541   0.4317     H
C      0.48944  0.08815   0.4228     C
C      0.48944  0.58815   0.5772     C
N      0.49448  0.44493  0.31572     N
N      0.49448  0.94493  0.68428     N
O      0.49592  0.02569  0.18783     O
O      0.49592  0.52569  0.81217     O
C       0.4965   0.3889   0.4845     C
C       0.4965   0.8889   0.5155     C
C       0.5035   0.1111   0.4845     C
C       0.5035   0.6111   0.5155     C
O      0.50408  0.47431  0.18783     O
O      0.50408  0.97431  0.81217     O
N      0.50552  0.05507  0.31572     N
N      0.50552  0.55507  0.68428     N
C      0.51056  0.41185   0.4228     C
C      0.51056  0.91185   0.5772     C
H       0.5137    0.459   0.5683     H
H       0.5137    0.959   0.4317     H
H       0.5148   0.3786   0.5125     H
H       0.5148   0.8786   0.4875     H
C      0.51542  0.07043   0.3763     C
C      0.51542  0.57043   0.6237     C
H        0.517   0.1284   0.4606     H
H        0.517   0.6284   0.5394     H
H       0.5172   0.0982   0.5198     H
H       0.5172   0.5982   0.4802     H
H       0.5191   0.4845    0.899     H
H       0.5191   0.9845    0.101     H
H       0.5201   0.4867    0.632     H
H       0.5201   0.9867    0.368     H
H       0.5246   0.3986   0.3881     H
H       0.5246   0.8986   0.6119     H
H       0.5249   0.4286   0.4474     H
H       0.5249   0.9286   0.5526     H
C      0.52563  0.02468   0.2164     C
C      0.52563  0.52468   0.7836     C
C      0.52979  0.46712   0.6065     C
C      0.52979  0.96712   0.3935     C
N       0.5331  0.03911   0.2802     N
N       0.5331  0.53911   0.7198     N
O      0.53859  0.00423  0.69491     O
O      0.53859  0.50423  0.30509     O
Mn     0.54078  0.46151  0.25551    Mn
Mn     0.54078  0.96151  0.74449    Mn
H       0.5418   0.0246    0.851     H
H       0.5418   0.5246    0.149     H
C       0.5419   0.4878   0.8876     C
C       0.5419   0.9878   0.1124     C
H       0.5449   0.0457   0.5748     H
H       0.5449   0.5457   0.4252     H
O      0.54569  0.07068  0.39907     O
O      0.54569  0.57068  0.60093     O
H       0.5476   0.0685   0.6984     H
H       0.5476   0.5685   0.3016     H
O      0.54868  0.41935  0.21727     O
O      0.54868  0.91935  0.78273     O
C      0.55173  0.00529   0.1762     C
C      0.55173  0.50529   0.8238     C
H       0.5556   0.3631   0.1597     H
H       0.5556   0.8631   0.8403     H
C      0.56126  0.00811   0.6437     C
C      0.56126  0.50811   0.3563     C
C      0.56199  0.47638    0.568     C
C      0.56199  0.97638    0.432     C
C      0.56372  0.01699   0.8603     C
C      0.56372  0.51699   0.1397     C
C      0.56442  0.04165   0.6074     C
C      0.56442  0.54165   0.3926     C
H       0.5652   0.4727   0.9898     H
H       0.5652   0.9727   0.0102     H
C       0.5671  0.06888   0.6651     C
C       0.5671  0.56888   0.3349     C
C       0.5677   0.4748   0.9362     C
C       0.5677   0.9748   0.0638     C
H       0.5683   0.0903   0.6389     H
H       0.5683   0.5903   0.3611     H
C      0.57074  0.39693   0.2387     C
C      0.57074  0.89693   0.7613     C
C      0.57111  0.36668   0.1996     C
C      0.57111  0.86668   0.8004     C
H       0.5715   0.1571   0.5594     H
H       0.5715   0.6571   0.4406     H
O      0.57348  0.45545  0.51899     O
O      0.57348  0.95545  0.48101     O
N      0.57408  0.48651   0.1686     N
N      0.57408  0.98651   0.8314     N
Mn     0.57469  0.04573  0.33203    Mn
Mn     0.57469  0.54573  0.66797    Mn
N      0.57613  0.45671  0.32868     N
N      0.57613  0.95671  0.67132     N
N      0.57671  0.00394   0.4147     N
N      0.57671  0.50394   0.5853     N
H       0.5799   0.1181   0.4659     H
H       0.5799   0.6181   0.5341     H
H       0.5817   0.0592   0.9123     H
H       0.5817   0.5592   0.0877     H
N      0.58213  0.48522   0.3731     N
N      0.58213  0.98522   0.6269     N
C      0.58376  0.00357   0.2007     C
C      0.58376  0.50357   0.7993     C
H       0.5843   0.0419   0.5745     H
H       0.5843   0.5419   0.4255     H
C       0.5856   0.0364    0.903     C
C       0.5856   0.5364    0.097     C
H       0.5872   0.0657   0.6956     H
H       0.5872   0.5657   0.3044     H
C       0.5919   0.1566   0.5323     C
C       0.5919   0.6566   0.4677     C
H       0.5929   0.3215   0.1906     H
H       0.5929   0.8215   0.8094     H
C      0.59335  0.40114    0.299     C
C      0.59335  0.90114    0.701     C
C       0.5934   0.3419   0.2177     C
C       0.5934   0.8419   0.7823     C
C      0.59539  0.43084   0.3457     C
C      0.59539  0.93084   0.6543     C
O      0.59631  0.02028   0.2584     O
O      0.59631  0.52028   0.7416     O
C      0.59651  0.13412   0.4764     C
C      0.59651  0.63412   0.5236     C
C       0.5966   0.4657   0.8983     C
C       0.5966   0.9657   0.1017     C
C       0.6021   0.4819   0.1556     C
C       0.6021   0.9819   0.8444     C
H        0.604    0.052    0.063     H
H        0.604    0.552    0.937     H
C       0.6063   0.4832   0.8397     C
C       0.6063   0.9832   0.1603     C
N      0.60697  0.00612   0.4573     N
N      0.60697  0.50612   0.5427     N
H       0.6091   0.4471   0.9147     H
H       0.6091   0.9471   0.0853     H
H       0.6117   0.4655   0.1874     H
H       0.6117   0.9655   0.8126     H
H       0.6131   0.1944   0.5903     H
H       0.6131   0.6944   0.4097     H
H       0.6138   0.0787   0.9994     H
H       0.6138   0.5787   0.0006     H
Mn     0.61419  0.47027  0.47182    Mn
Mn     0.61419  0.97027  0.52818    Mn
C      0.61536  0.37534   0.3152     C
C      0.61536  0.87534   0.6848     C
C       0.6155   0.0191   0.9331     C
C       0.6155   0.5191   0.0669     C
C      0.61588  0.34651   0.2736     C
C      0.61588  0.84651   0.7264     C
O      0.61592    0.053  0.38892     O
O      0.61592    0.553  0.61108     O
O      0.61619  0.43229  0.40094     O
O      0.61619  0.93229  0.59906     O
C      0.61668  0.17889   0.5504     C
C      0.61668  0.67889   0.4496     C
H       0.6177   0.4535   0.6493     H
H       0.6177   0.9535   0.3507     H
H       0.6216    0.267   0.2894     H
H       0.6216    0.767   0.7106     H
C      0.62281   0.0617   0.0343     C
C      0.62281   0.5617   0.9657     C
C       0.6243    0.495   0.1045     C
C       0.6243    0.995   0.8955     C
C      0.62523    0.032   0.4385     C
C      0.62523    0.532   0.5615     C
C      0.62534  0.13464   0.4348     C
C      0.62534  0.63464   0.5652     C
H       0.6278   0.1195   0.3938     H
H       0.6278   0.6195   0.6062     H
H       0.6286   0.2352   0.2375     H
H       0.6286   0.7352   0.7625     H
H       0.6287   0.4822   0.8239     H
H       0.6287   0.9822   0.1761     H
H       0.6305   0.3778   0.3562     H
H       0.6305   0.8778   0.6438     H
H       0.6319   0.3299   0.2841     H
H       0.6319   0.8299   0.7159     H
C      0.63389  0.43831   0.6316     C
C      0.63389  0.93831   0.3684     C
H       0.6345   0.0498    0.182     H
H       0.6345   0.5498    0.818     H
C       0.6385   0.0358   0.9896     C
C       0.6385   0.5358   0.0104     C
C       0.6389   0.2535   0.2655     C
C       0.6389   0.7535   0.7345     C
H         0.64    0.418   0.7324     H
H         0.64    0.918   0.2676     H
N      0.64187  0.43864   0.5576     N
N      0.64187  0.93864   0.4424     N
H       0.6458   0.4858   0.0985     H
H       0.6458   0.9858   0.9015     H
C      0.64624  0.07799   0.0894     C
C      0.64624  0.57799   0.9106     C
C      0.64693  0.17926   0.5113     C
C      0.64693  0.67926   0.4887     C
H       0.6474   0.0188   0.0247     H
H       0.6474   0.5188   0.9753     H
C      0.64747  0.41779   0.6812     C
C      0.64747  0.91779   0.3188     C
C      0.64753  0.06779   0.1645     C
C      0.64753  0.56779   0.8355     C
H       0.6486   0.2254   0.3619     H
H       0.6486   0.7254   0.6381     H
C      0.65114  0.15665    0.451     C
C      0.65114  0.65665    0.549     C
H       0.6518   0.2672   0.2302     H
H       0.6518   0.7672   0.7698     H
O      0.65203  0.49032  0.43695     O
O      0.65203  0.99032  0.56305     O
H       0.6574   0.0455   0.9616     H
H       0.6574   0.5455   0.0384     H
C      0.65747  0.03651   0.4753     C
C      0.65747  0.53651   0.5247     C
H       0.6597   0.3183   0.1111     H
H       0.6597   0.8183   0.8889     H
C      0.66185  0.23944   0.3272     C
C      0.66185  0.73944   0.6728     C
H       0.6646   0.4721   0.2888     H
H       0.6646   0.9721   0.7112     H
C      0.66546  0.41827   0.5372     C
C      0.66546  0.91827   0.4628     C
C      0.66779  0.10253   0.0688     C
C      0.66779  0.60253   0.9312     C
H       0.6678   0.0786   0.2651     H
H       0.6678   0.5786   0.7349     H
H        0.668     0.11   0.0176     H
H        0.668     0.61   0.9824     H
C      0.66827  0.08454   0.2128     C
C      0.66827  0.58454   0.7872     C
O      0.66935  0.20132  0.53273     O
O      0.66935  0.70132  0.46727     O
C      0.66936   0.0159   0.5346     C
C      0.66936   0.5159   0.4654     C
H       0.6699    0.077   0.4121     H
H       0.6699    0.577   0.5879     H
H       0.6713   0.3638   0.7506     H
H       0.6713   0.8638   0.2494     H
H       0.6714   0.4178   0.4849     H
H       0.6714   0.9178   0.5151     H
C      0.67201  0.39624   0.6606     C
C      0.67201  0.89624   0.3394     C
H        0.673   0.4199   0.3379     H
H        0.673   0.9199   0.6621     H
C      0.67781  0.06267   0.4509     C
C      0.67781  0.56267   0.5491     C
H       0.6786   0.2251   0.3026     H
H       0.6786   0.7251   0.6974     H
O      0.67932  0.29569  0.35093     O
O      0.67932  0.79569  0.64907     O
C      0.67957  0.26542   0.3737     C
C      0.67957  0.76542   0.6263     C
C      0.68084  0.15461   0.4043     C
C      0.68084  0.65461   0.5957     C
C      0.68112   0.3171   0.0849     C
C      0.68112   0.8171   0.9151     C
H       0.6815   0.2976   0.0516     H
H       0.6815   0.7976   0.9484     H
C      0.68176  0.45848   0.2693     C
C      0.68176  0.95848   0.7307     C
C      0.68221  0.39753   0.5855     C
C      0.68221  0.89753   0.4145     C
O      0.68229  0.13381  0.34906     O
O      0.68229  0.63381  0.65094     O
H       0.6843   0.3372   0.0544     H
H       0.6843   0.8372   0.9456     H
C      0.68733  0.42781   0.2991     C
C      0.68733  0.92781   0.7009     C
C       0.6883  0.37281   0.7157     C
C       0.6883  0.87281   0.2843     C
C      0.68831  0.11611   0.1184     C
C      0.68831  0.61611   0.8816     C
N      0.68864  0.10813   0.1924     N
N      0.68864  0.60813   0.8076     N
H       0.6908   0.3317   0.8377     H
H       0.6908   0.8317   0.1623     H
N      0.69493  0.25552  0.43428     N
N      0.69493  0.75552  0.56572     N
O        0.697  0.36592  0.36108     O
O        0.697  0.86592  0.63892     O
H       0.6971   0.1409   0.8353     H
H       0.6971   0.6409   0.1647     H
H       0.6972   0.4902   0.1876     H
H       0.6972   0.9902   0.8124     H
H        0.698    0.354    0.687     H
H        0.698    0.854    0.313     H
H       0.7002   0.3845    0.568     H
H       0.7002   0.8845    0.432     H
C      0.70047  0.02264    0.566     C
C      0.70047  0.52264    0.434     C
C      0.70152  0.46932   0.2103     C
C      0.70152  0.96932   0.7897     C
H       0.7035   0.1323   0.1007     H
H       0.7035   0.6323   0.8993     H
Mn     0.70427  0.32469  0.41797    Mn
Mn     0.70427  0.82469  0.58203    Mn
H       0.7043   0.2949   0.1752     H
H       0.7043   0.7949   0.8248     H
H       0.7045   0.4074   0.7884     H
H       0.7045   0.9074   0.2116     H
O      0.70545  0.17652  0.23101     O
O      0.70545  0.67652  0.76899     O
N      0.70671  0.17387  0.42132     N
N      0.70671  0.67387  0.57868     N
H       0.7081   0.3343   0.1755     H
H       0.7081   0.8343   0.8245     H
C      0.70835  0.31442   0.1426     C
C      0.70835  0.81442   0.8574     C
C      0.70848  0.06824   0.4807     C
C      0.70848  0.56824   0.5193     C
H       0.7087   0.0091   0.6061     H
H       0.7087   0.5091   0.3939     H
H        0.709   0.2363   0.1817     H
H        0.709   0.7363   0.8183     H
N      0.71089   0.2831   0.4698     N
N      0.71089   0.7831   0.5302     N
Mn     0.71151  0.20922  0.49449    Mn
Mn     0.71151  0.70922  0.50551    Mn
C      0.71349  0.40747   0.2747     C
C      0.71349  0.90747   0.7253     C
C       0.7136   0.3356    0.847     C
C       0.7136   0.8356    0.153     C
C       0.7142   0.3885   0.7604     C
C       0.7142   0.8885   0.2396     C
H       0.7155   0.1383   0.5626     H
H       0.7155   0.6383   0.4374     H
C       0.7157   0.1534   0.8517     C
C       0.7157   0.6534   0.1483     C
C      0.71712  0.22021   0.1435     C
C      0.71712  0.72021   0.8565     C
C        0.718  0.37523   0.3115     C
C        0.718  0.87523   0.6885     C
C      0.71932  0.04848   0.5397     C
C      0.71932  0.54848   0.4603     C
Mn     0.72027  0.13581  0.27818    Mn
Mn     0.72027  0.63581  0.72182    Mn
H       0.7221   0.0854   0.4612     H
H       0.7221   0.5854   0.5388     H
H       0.7227   0.1848   0.7602     H
H       0.7227   0.6848   0.2398     H
O      0.72431  0.24592  0.56217     O
O      0.72431  0.74592  0.43783     O
C       0.7248   0.1823   0.8138     C
C       0.7248   0.6823   0.1862     C
C      0.72532  0.27563   0.5336     C
C      0.72532  0.77563   0.4664     C
H       0.7254   0.2918    0.899     H
H       0.7254   0.7918    0.101     H
C      0.72638  0.18801    0.182     C
C      0.72638  0.68801    0.818     C
C      0.72736  0.45047    0.184     C
C      0.72736  0.95047    0.816     C
O      0.72972  0.34631   0.4916     O
O      0.72972  0.84631   0.5084     O
C       0.7309   0.3655   0.8169     C
C       0.7309   0.8655   0.1831     C
H       0.7312   0.3974   0.7253     H
H       0.7312   0.8974   0.2747     H
C       0.7319   0.1479   0.5944     C
C       0.7319   0.6479   0.4056     C
H       0.7322   0.1213   0.9261     H
H       0.7322   0.6213   0.0739     H
C      0.73301  0.31372   0.8897     C
C      0.73301  0.81372   0.1103     C
C       0.7332   0.1437   0.9103     C
C       0.7332   0.6437   0.0897     C
C       0.7341  0.41936   0.2154     C
C       0.7341  0.91936   0.7846     C
H       0.7345   0.2309    0.851     H
H       0.7345   0.7309    0.149     H
N      0.73522  0.16787   0.3769     N
N      0.73522  0.66787   0.6231     N
H       0.7358   0.1042   0.6515     H
H       0.7358   0.6042   0.3485     H
N      0.73651  0.17592   0.5814     N
N      0.73651  0.67592   0.4186     N
H       0.7367   0.2299    0.118     H
H       0.7367   0.7299    0.882     H
C       0.7378   0.2081   0.8624     C
C       0.7378   0.7081   0.1376     C
H       0.7402   0.0528   0.5624     H
H       0.7402   0.5528   0.4376     H
O      0.74032  0.09797  0.31305     O
O      0.74032  0.59797  0.68695     O
H       0.7409   0.4587   0.1439     H
H       0.7409   0.9587   0.8561     H
C      0.74189  0.31126   0.1063     C
C      0.74189  0.81126   0.8937     C
N      0.74388  0.35697   0.2927     N
N      0.74388  0.85697   0.7073     N
C      0.74471  0.30173   0.5738     C
C      0.74471  0.80173   0.4262     C
C        0.745   0.1257   0.6455     C
C        0.745   0.6257   0.3545     C
O      0.74577  0.28859  0.05509     O
O      0.74577  0.78859  0.94491     O
N      0.74606  0.32671   0.3353     N
N      0.74606  0.82671   0.6647     N
C      0.74643  0.33376   0.5493     C
C      0.74643  0.83376   0.4507     C
C      0.75357  0.16624   0.9507     C
C      0.75357  0.66624   0.0493     C
N      0.75394  0.17329   0.1647     N
N      0.75394  0.67329   0.8353     N
O      0.75423  0.21141  0.44491     O
O      0.75423  0.71141  0.55509     O
C        0.755   0.3743   0.8545     C
C        0.755   0.8743   0.1455     C
C      0.75529  0.19827   0.9262     C
C      0.75529  0.69827   0.0738     C
N      0.75612  0.14303   0.2073     N
N      0.75612  0.64303   0.7927     N
C      0.75811  0.18874   0.3937     C
C      0.75811  0.68874   0.6063     C
H       0.7591   0.0413   0.3561     H
H       0.7591   0.5413   0.6439     H
O      0.75968  0.40203  0.18695     O
O      0.75968  0.90203  0.81305     O
H       0.7598   0.4472   0.9376     H
H       0.7598   0.9472   0.0624     H
C       0.7622   0.2919   0.6376     C
C       0.7622   0.7919   0.3624     C
H       0.7633   0.2701    0.382     H
H       0.7633   0.7701    0.618     H
N      0.76349  0.32408   0.9186     N
N      0.76349  0.82408   0.0814     N
H       0.7642   0.3958   0.8485     H
H       0.7642   0.8958   0.1515     H
N      0.76478  0.33213   0.1231     N
N      0.76478  0.83213   0.8769     N
H       0.7655   0.2691    0.649     H
H       0.7655   0.7691    0.351     H
C       0.7659  0.08064   0.2846     C
C       0.7659  0.58064   0.7154     C
C       0.7668   0.3563   0.5897     C
C       0.7668   0.8563   0.4103     C
C      0.76699  0.18628   0.6103     C
C      0.76699  0.68628   0.3897     C
H       0.7678   0.3787   0.5739     H
H       0.7678   0.8787   0.4261     H
C       0.7681   0.3521   0.9056     C
C       0.7681   0.8521   0.0944     C
H       0.7688   0.1026   0.7747     H
H       0.7688   0.6026   0.2253     H
C       0.7691   0.1345   0.6831     C
C       0.7691   0.6345   0.3169     C
O      0.77028  0.15369   0.0084     O
O      0.77028  0.65369   0.9916     O
C      0.77264  0.04953    0.316     C
C      0.77264  0.54953    0.684     C
C      0.77362  0.31199    0.318     C
C      0.77362  0.81199    0.682     C
H       0.7746   0.2082    0.601     H
H       0.7746   0.7082    0.399     H
C      0.77468  0.22437   0.9664     C
C      0.77468  0.72437   0.0336     C
C       0.7752   0.3177   0.6862     C
C       0.7752   0.8177   0.3138     C
O      0.77569  0.25408  0.93783     O
O      0.77569  0.75408  0.06217     O
H       0.7773   0.3152   0.7398     H
H       0.7773   0.8152   0.2602     H
H       0.7779   0.4146   0.0388     H
H       0.7779   0.9146   0.9612     H
Mn     0.77973  0.36419  0.22182    Mn
Mn     0.77973  0.86419  0.77818    Mn
C      0.78068  0.45152   0.9603     C
C      0.78068  0.95152   0.0397     C
C        0.782  0.12477   0.1885     C
C        0.782  0.62477   0.8115     C
C      0.78288  0.27979   0.3565     C
C      0.78288  0.77979   0.6435     C
C       0.7843   0.3466   0.6483     C
C       0.7843   0.8466   0.3517     C
H       0.7845   0.3617   0.9374     H
H       0.7845   0.8617   0.0626     H
C       0.7858   0.1115   0.7396     C
C       0.7858   0.6115   0.2604     C
C       0.7864   0.1644    0.653     C
C       0.7864   0.6644    0.347     C
C      0.78651  0.09253   0.2253     C
C      0.78651  0.59253   0.7747     C
Mn     0.78849  0.29078  0.00551    Mn
Mn     0.78849  0.79078  0.99449    Mn
N      0.78911   0.2169   0.0302     N
N      0.78911   0.7169   0.9698     N
H        0.791   0.2637   0.3183     H
H        0.791   0.7637   0.6817     H
H       0.7913   0.4909   0.8939     H
H       0.7913   0.9909   0.1061     H
C      0.79152  0.43176   0.0193     C
C      0.79152  0.93176   0.9807     C
C      0.79165  0.18558   0.3574     C
C      0.79165  0.68558   0.6426     C
H       0.7919   0.1657   0.3245     H
H       0.7919   0.6657   0.6755     H
N      0.79329  0.32613  0.07868     N
N      0.79329  0.82613  0.92132     N
O      0.79455  0.32348  0.26899     O
O      0.79455  0.82348  0.73101     O
H       0.7955   0.0926   0.7116     H
H       0.7955   0.5926   0.2884     H
H       0.7957   0.2051   0.3248     H
H       0.7957   0.7051   0.6752     H
Mn     0.79573  0.17531  0.08203    Mn
Mn     0.79573  0.67531  0.91797    Mn
H       0.7965   0.3677   0.3993     H
H       0.7965   0.8677   0.6007     H
C      0.79848  0.03068   0.2897     C
C      0.79848  0.53068   0.7103     C
C      0.79953  0.47736    0.934     C
C      0.79953  0.97736    0.066     C
H       0.7998   0.1155    0.932     H
H       0.7998   0.6155    0.068     H
H        0.802    0.146    0.813     H
H        0.802    0.646    0.187     H
H       0.8028   0.0098   0.3124     H
H       0.8028   0.5098   0.6876     H
H       0.8029   0.3591   0.6647     H
H       0.8029   0.8591   0.3353     H
O        0.803  0.13408  0.13892     O
O        0.803  0.63408  0.86108     O
N      0.80507  0.24448  0.06572     N
N      0.80507  0.74448  0.93428     N
H       0.8092   0.1683   0.6623     H
H       0.8092   0.6683   0.3377     H
N      0.81136  0.39187   0.3076     N
N      0.81136  0.89187   0.6924     N
C      0.81169  0.38389   0.3816     C
C      0.81169  0.88389   0.6184     C
C       0.8117  0.12719   0.7843     C
C       0.8117  0.62719   0.2157     C
C      0.81267  0.07219   0.2009     C
C      0.81267  0.57219   0.7991     C
H       0.8157   0.1628   0.4456     H
H       0.8157   0.6628   0.5544     H
O      0.81771  0.36619  0.15094     O
O      0.81771  0.86619  0.84906     O
C      0.81779  0.10247   0.9145     C
C      0.81779  0.60247   0.0855     C
C      0.81824  0.04152   0.2307     C
C      0.81824  0.54152   0.7693     C
H       0.8185   0.2024   0.4484     H
H       0.8185   0.7024   0.5516     H
C      0.81888   0.1829   0.4151     C
C      0.81888   0.6829   0.5849     C
C      0.81916  0.34539   0.0957     C
C      0.81916  0.84539   0.9043     C
C      0.82043  0.23458   0.1263     C
C      0.82043  0.73458   0.8737     C
O      0.82068  0.20431  0.14907     O
O      0.82068  0.70431  0.85093     O
H       0.8214   0.2749   0.1974     H
H       0.8214   0.7749   0.8026     H
C      0.82219  0.43733   0.0491     C
C      0.82219  0.93733   0.9509     C
H        0.827   0.0801   0.1621     H
H        0.827   0.5801   0.8379     H
C      0.82799  0.10376   0.8394     C
C      0.82799  0.60376   0.1606     C
H       0.8286   0.0822   0.0151     H
H       0.8286   0.5822   0.9849     H
H       0.8287   0.1362   0.7494     H
H       0.8287   0.6362   0.2506     H
H       0.8301    0.423   0.0879     H
H       0.8301    0.923   0.9121     H
C      0.83064   0.4841   0.9654     C
C      0.83064   0.9841   0.0346     C
O      0.83065  0.29868  0.96727     O
O      0.83065  0.79868  0.03273     O
C      0.83173  0.41546   0.2872     C
C      0.83173  0.91546   0.7128     C
H        0.832     0.39   0.4824     H
H        0.832     0.89   0.5176     H
H       0.8322   0.4214   0.2349     H
H       0.8322   0.9214   0.7651     H
C      0.83221  0.39747   0.4312     C
C      0.83221  0.89747   0.5688     C
C      0.83454  0.08173   0.9628     C
C      0.83454  0.58173   0.0372     C
H       0.8354   0.0279   0.2112     H
H       0.8354   0.5279   0.7888     H
C      0.83815  0.26056   0.1728     C
C      0.83815  0.76056   0.8272     C
H       0.8403   0.1817   0.3889     H
H       0.8403   0.6817   0.6111     H
C      0.84253  0.46349   0.0247     C
C      0.84253  0.96349   0.9753     C
H       0.8426   0.4545   0.5384     H
H       0.8426   0.9545   0.4616     H
O      0.84797  0.00968  0.06305     O
O      0.84797  0.50968  0.93695     O
H       0.8482   0.2328   0.2698     H
H       0.8482   0.7328   0.7302     H
C      0.84886  0.34335    0.049     C
C      0.84886  0.84335    0.951     C
H       0.8514   0.2746   0.1381     H
H       0.8514   0.7746   0.8619     H
C      0.85247  0.43221   0.3355     C
C      0.85247  0.93221   0.6645     C
C      0.85253  0.08221   0.8188     C
C      0.85253  0.58221   0.1812     C
H       0.8526   0.4812   0.4753     H
H       0.8526   0.9812   0.5247     H
C      0.85307  0.32074   0.9887     C
C      0.85307  0.82074   0.0113     C
C      0.85376  0.42201   0.4106     C
C      0.85376  0.92201   0.5894     C
H       0.8542   0.0142   0.4015     H
H       0.8542   0.5142   0.5985     H
N      0.85813  0.06136   0.9424     N
N      0.85813  0.56136   0.0576     N
H         0.86    0.082   0.7676     H
H         0.86    0.582   0.2324     H
C       0.8611   0.2465   0.2345     C
C       0.8611   0.7465   0.7655     C
C       0.8615   0.4642   0.5104     C
C       0.8615   0.9642   0.4896     C
H       0.8655   0.4502    0.318     H
H       0.8655   0.9502    0.682     H
C      0.86611  0.06169   0.8684     C
C      0.86611  0.56169   0.1316     C
H       0.8681   0.1701   0.2159     H
H       0.8681   0.6701   0.7841     H
H       0.8695   0.1222   0.1438     H
H       0.8695   0.6222   0.8562     H
H       0.8713   0.0178   0.6761     H
H       0.8713   0.5178   0.3239     H
H       0.8714   0.2648   0.2625     H
H       0.8714   0.7648   0.7375     H
H       0.8722   0.3805   0.1062     H
H       0.8722   0.8805   0.8938     H
C      0.87466  0.36536   0.0652     C
C      0.87466  0.86536   0.9348     C
C      0.87477    0.468   0.0615     C
C      0.87477    0.968   0.9385     C
C       0.8757    0.005   0.3955     C
C       0.8757    0.505   0.6045     C
C      0.87719   0.4383   0.4657     C
C      0.87719   0.9383   0.5343     C
H       0.8784    0.233   0.2106     H
H       0.8784    0.733   0.7894     H
H       0.8823   0.0465   0.8507     H
H       0.8823   0.5465   0.1493     H
C      0.88332  0.32111   0.9496     C
C      0.88332  0.82111   0.0504     C
O      0.88381  0.06771  0.09906     O
O      0.88381  0.56771  0.90094     O
O      0.88408    0.447  0.11108     O
O      0.88408    0.947  0.88892     O
C      0.88412  0.15349   0.2264     C
C      0.88412  0.65349   0.7736     C
C       0.8845   0.4809   0.5669     C
C       0.8845   0.9809   0.4331     C
C      0.88464  0.12466   0.1848     C
C      0.88464  0.62466   0.8152     C
Mn     0.88581  0.02973  0.02818    Mn
Mn     0.88581  0.52973  0.97182    Mn
H       0.8862   0.4213   0.5006     H
H       0.8862   0.9213   0.4994     H
H       0.8869   0.3056   0.9097     H
H       0.8869   0.8056   0.0903     H
H       0.8883   0.0345   0.3126     H
H       0.8883   0.5345   0.6874     H
H       0.8909   0.0529   0.5853     H
H       0.8909   0.5529   0.4147     H
N      0.89303  0.49388   0.0427     N
N      0.89303  0.99388   0.9573     N
C       0.8937   0.0168   0.6603     C
C       0.8937   0.5168   0.3397     C
H        0.896    0.448    0.437     H
H        0.896    0.948    0.563     H
C       0.8979   0.0181   0.3444     C
C       0.8979   0.5181   0.6556     C
C       0.9034   0.0343   0.6017     C
C       0.9034   0.5343   0.3983     C
C      0.90349  0.36588   0.0236     C
C      0.90349  0.86588   0.9764     C
O      0.90369  0.47972   0.2416     O
O      0.90369  0.97972   0.7584     O
C      0.90461  0.06916   0.1543     C
C      0.90461  0.56916   0.8457     C
C       0.9066   0.1581   0.2823     C
C       0.9066   0.6581   0.7177     C
C      0.90665  0.09886    0.201     C
C      0.90665  0.59886    0.799     C
H       0.9071   0.1785   0.3094     H
H       0.9071   0.6785   0.6906     H
C       0.9081   0.3434   0.9677     C
C       0.9081   0.8434   0.0323     C
H       0.9128   0.4343   0.8044     H
H       0.9128   0.9343   0.1956     H
C       0.9144   0.4636    0.597     C
C       0.9144   0.9636    0.403     C
H       0.9157   0.4581   0.9255     H
H       0.9157   0.9581   0.0745     H
C      0.91624  0.49643   0.2993     C
C      0.91624  0.99643   0.7007     C
N      0.91787  0.01478   0.1269     N
N      0.91787  0.51478   0.8731     N
H       0.9183   0.4408   0.5877     H
H       0.9183   0.9408   0.4123     H
H       0.9201   0.3819   0.0341     H
H       0.9201   0.8819   0.9659     H
N      0.92329  0.49606   0.0853     N
N      0.92329  0.99606   0.9147     N
N      0.92387  0.04329  0.17132     N
N      0.92387  0.54329  0.82868     N
Mn     0.92531  0.45427  0.16797    Mn
Mn     0.92531  0.95427  0.83203    Mn
N      0.92592  0.01349   0.3314     N
N      0.92592  0.51349   0.6686     N
O      0.92652  0.04455  0.98101     O
O      0.92652  0.54455  0.01899     O
H       0.9285   0.3429   0.9406     H
H       0.9285   0.8429   0.0594     H
C      0.92889  0.13332   0.3004     C
C      0.92889  0.63332   0.6996     C
C      0.92926  0.10307   0.2613     C
C      0.92926  0.60307   0.7387     C
H       0.9317   0.4097   0.8611     H
H       0.9317   0.9097   0.1389     H
C       0.9323   0.0252   0.5638     C
C       0.9323   0.5252   0.4362     C
C       0.9329  0.43112   0.8349     C
C       0.9329  0.93112   0.1651     C
H       0.9348   0.0273   0.5102     H
H       0.9348   0.5273   0.4898     H
C      0.93558  0.45835   0.8926     C
C      0.93558  0.95835   0.1074     C
C      0.93628  0.48301   0.6397     C
C      0.93628  0.98301   0.3603     C
C      0.93801  0.02362    0.932     C
C      0.93801  0.52362    0.068     C
C      0.93874  0.49189   0.8563     C
C      0.93874  0.99189   0.1437     C
H       0.9444   0.1369   0.3403     H
H       0.9444   0.6369   0.6597     H
C      0.94827  0.49471   0.3238     C
C      0.94827  0.99471   0.6762     C
O      0.95132  0.08065  0.28273     O
O      0.95132  0.58065  0.71727     O
H       0.9524   0.4315   0.8016     H
H       0.9524   0.9315   0.1984     H
O      0.95431  0.42932  0.10093     O
O      0.95431  0.92932  0.89907     O
H       0.9551   0.4543   0.9252     H
H       0.9551   0.9543   0.0748     H
C       0.9581   0.0122   0.6124     C
C       0.9581   0.5122   0.3876     C
H       0.9582   0.4754    0.649     H
H       0.9582   0.9754    0.351     H
Mn     0.95922  0.03849  0.24449    Mn
Mn     0.95922  0.53849  0.75551    Mn
O      0.96141  0.49577  0.80509     O
O      0.96141  0.99577  0.19491     O
N       0.9669  0.46089   0.2198     N
N       0.9669  0.96089   0.7802     N
C      0.97021  0.03288   0.8935     C
C      0.97021  0.53288   0.1065     C
C      0.97437  0.47532   0.2836     C
C      0.97437  0.97532   0.7164     C
H       0.9751   0.0714   0.0526     H
H       0.9751   0.5714   0.9474     H
H       0.9754   0.1014   0.1119     H
H       0.9754   0.6014   0.8881     H
H       0.9799   0.0133    0.868     H
H       0.9799   0.5133    0.132     H
H       0.9809   0.0155    0.601     H
H       0.9809   0.5155    0.399     H
H       0.9828   0.4018   0.9802     H
H       0.9828   0.9018   0.0198     H
H        0.983   0.3716   0.0394     H
H        0.983   0.8716   0.9606     H
C      0.98458  0.42957   0.1237     C
C      0.98458  0.92957   0.8763     C
H       0.9852   0.1214   0.9875     H
H       0.9852   0.6214   0.0125     H
H       0.9863    0.041   0.9317     H
H       0.9863    0.541   0.0683     H
C      0.98944  0.08815   0.0772     C
C      0.98944  0.58815   0.9228     C
N      0.99448  0.44493  0.18428     N
N      0.99448  0.94493  0.81572     N
O      0.99592  0.02569  0.31217     O
O      0.99592  0.52569  0.68783     O
C       0.9965   0.3889   0.0155     C
C       0.9965   0.8889   0.9845     C
