data_I
_chemical_name_common  '/home/zhangsd/repos/MofS-CGCNN/ML/data/SSD/clean_cifs/XALCIX_clean'
_cell_length_a 40.90600
_cell_length_b 40.90600
_cell_length_c 17.29500
_cell_angle_alpha 90.00000
_cell_angle_beta  90.00000
_cell_angle_gamma 90.00000
_space_group_name_H-M_alt      'P 1'


loop_
_space_group_symop_operation_xyz
  'x, y, z' 

loop_
_atom_site_label
_atom_site_fract_x
_atom_site_fract_y
_atom_site_fract_z
_atom_site_type_symbol
C      0.00033  0.36152   0.6435     C
C      0.00033  0.86152   0.3565     C
C       0.0008    0.307   0.7094     C
C       0.0008    0.807   0.2906     C
H       0.0025   0.4259   0.5232     H
H       0.0025   0.9259   0.4768     H
H       0.0028   0.0878   0.2918     H
H       0.0028   0.5878   0.7082     H
C      0.00341  0.41558    0.575     C
C      0.00341  0.91558    0.425     C
O       0.0045   0.4744  0.82103     O
O       0.0045   0.9744  0.17897     O
C      0.00493  0.12024   0.5675     C
C      0.00493  0.62024   0.4325     C
C        0.005    0.175   0.6358     C
H        0.005   0.4425    0.236     H
C        0.005    0.675   0.3642     C
H        0.005   0.9425    0.764     H
H       0.0053    0.179   0.7532     H
H       0.0053    0.679   0.2468     H
N       0.0082  0.05219   0.6894     N
N       0.0082  0.55219   0.3106     N
H       0.0086   0.1106   0.1139     H
H       0.0086   0.6106   0.8861     H
H       0.0089   0.3698   0.5269     H
H       0.0089   0.8698   0.4731     H
H       0.0099   0.3164   0.5956     H
H       0.0099   0.8164   0.4044     H
C       0.0113   0.1018   0.1662     C
C       0.0113   0.6018   0.8338     C
H       0.0125   0.2129   0.7101     H
H       0.0125   0.7129   0.2899     H
C       0.0146   0.4229    0.261     C
C       0.0146   0.9229    0.739     C
H       0.0149   0.1297   0.6828     H
H       0.0149   0.6297   0.3172     H
H       0.0166   0.4959   0.0709     H
H       0.0166   0.9959   0.9291     H
H       0.0178   0.4542   0.4123     H
H       0.0178   0.9542   0.5877     H
C      0.01948  0.06693   0.6283     C
C      0.01948  0.56693   0.3717     C
H       0.0223   0.0806   0.1635     H
H       0.0223   0.5806   0.8365     H
H       0.0229   0.3655   0.6619     H
H       0.0229   0.8655   0.3381     H
H        0.024   0.3012   0.7133     H
H        0.024   0.8012   0.2867     H
H       0.0246   0.1169    0.197     H
H       0.0246   0.6169    0.803     H
C      0.02482  0.02348    0.796     C
C      0.02482  0.52348    0.204     C
C       0.0252   0.4026   0.2076     C
C       0.0252   0.9026   0.7924     C
H       0.0259    0.481   0.3475     H
H       0.0259    0.981   0.6525     H
H        0.026   0.4178   0.5947     H
H        0.026   0.9178   0.4053     H
H       0.0277    0.179   0.6185     H
H       0.0277    0.679   0.3815     H
H        0.028   0.1225   0.5515     H
H        0.028   0.6225   0.4485     H
H       0.0338   0.3819   0.2294     H
H       0.0338   0.8819   0.7706     H
N      0.03403  0.03665     0.73     N
N      0.03403  0.53665     0.27     N
C      0.03491  0.46221   0.3765     C
C      0.03491  0.96221   0.6235     C
O      0.03661  0.00367  0.30571     O
O      0.03661  0.50367  0.69429     O
H       0.0371   0.2625   0.5399     H
H       0.0371   0.7625   0.4601     H
C      0.03839  0.49192   0.0878     C
C      0.03839  0.99192   0.9122     C
H       0.0389   0.0472   0.4147     H
H       0.0389   0.5472   0.5853     H
Mn      0.0394  0.46193   0.7467    Mn
Mn      0.0394  0.96193   0.2533    Mn
H       0.0416   0.4126   0.1727     H
H       0.0416   0.9126   0.8273     H
H       0.0432   0.0246    0.154     H
H       0.0432   0.5246    0.846     H
C       0.0444   0.4339   0.3177     C
C       0.0444   0.9339   0.6823     C
O      0.04772  0.42055   0.7867     O
O      0.04772  0.92055   0.2133     O
C      0.04877  0.00544   0.8425     C
C      0.04877  0.50544   0.1575     C
O      0.05058  0.06736  0.61152     O
O      0.05058  0.56736  0.38848     O
H       0.0512    0.226   0.5367     H
H       0.0512    0.726   0.4633     H
H       0.0514   0.4639   0.9947     H
H       0.0514   0.9639   0.0053     H
H       0.0518   0.4146   0.3474     H
H       0.0518   0.9146   0.6526     H
C        0.057   0.2492   0.5406     C
C        0.057   0.7492   0.4594     C
C      0.05808  0.00712   0.3596     C
C      0.05808  0.50712   0.6404     C
H       0.0582   0.3678   0.8558     H
H       0.0582   0.8678   0.1442     H
C      0.05885  0.47284   0.0422     C
C      0.05885  0.97284   0.9578     C
C       0.0609  0.03985    0.398     C
C       0.0609  0.53985    0.602     C
H        0.063   0.4413   0.2855     H
H        0.063   0.9413   0.7145     H
H       0.0634   0.0654   0.2945     H
H       0.0634   0.5654   0.7055     H
C      0.06397  0.47314   0.4222     C
C      0.06397  0.97314   0.5778     C
C      0.06485  0.01728   0.1439     C
C      0.06485  0.51728   0.8561     C
H       0.0664   0.2401   0.6544     H
H       0.0664   0.7401   0.3456     H
H        0.071   0.2553   0.4968     H
H        0.071   0.2777   0.6315     H
H        0.071   0.7553   0.5032     H
H        0.071   0.7777   0.3685     H
C      0.07156  0.39977   0.7697     C
C      0.07156  0.89977   0.2303     C
H       0.0735   0.0873   0.3674     H
N       0.0735  0.48827   0.8312     N
H       0.0735   0.5873   0.6326     H
N       0.0735  0.98827   0.1688     N
N      0.07373  0.45636   0.6706     N
N      0.07373  0.95636   0.3294     N
C      0.07374   0.3714   0.8158     C
C      0.07374   0.8714   0.1842     C
H       0.0748   0.0378   0.4447     H
H       0.0748   0.5378   0.5553     H
O      0.07497  0.45326  0.47398     O
O      0.07497  0.95326  0.52602     O
C        0.075    0.255   0.6142     C
C        0.075    0.755   0.3858     C
C      0.07574  0.06536   0.3437     C
C      0.07574  0.56536   0.6563     C
Mn     0.07646  0.04115  0.68184    Mn
Mn     0.07646  0.54115  0.31816    Mn
N      0.07813  0.00065   0.5946     N
N      0.07813  0.50065   0.4054     N
H       0.0784   0.0584   0.0861     H
H       0.0784   0.5584   0.9139     H
N      0.07847  0.48389   0.6218     N
N      0.07847  0.98389   0.3782     N
H       0.0799   0.1502   0.4149     H
H       0.0799   0.6502   0.5851     H
C      0.08182  0.00088   0.8195     C
C      0.08182  0.50088   0.1805     C
C       0.0857   0.0376   0.1035     C
C       0.0857   0.5376   0.8965     C
H       0.0876    0.112    0.513     H
H       0.0876    0.612    0.487     H
C      0.09013  0.46732   0.0677     C
C      0.09013  0.96732   0.9323     C
C      0.09398  0.40368   0.7089     C
C      0.09398  0.90368   0.2911     C
C      0.09433  0.43228   0.6562     C
C      0.09433  0.93228   0.3438     C
O      0.09498    0.014   0.7567     O
O      0.09498    0.514   0.2433     O
C      0.09845  0.34871   0.8031     C
C      0.09845  0.84871   0.1969     C
C      0.09871  0.15155   0.4469     C
C      0.09871  0.65155   0.5531     C
H       0.0998   0.3299   0.8351     H
H       0.0998   0.8299   0.1649     H
C      0.10176  0.48022   0.1351     C
C      0.10176  0.98022   0.8649     C
C      0.10306  0.12898    0.505     C
C      0.10306  0.62898    0.495     C
C        0.104  0.47781   0.8459     C
C        0.104  0.97781   0.1541     C
H       0.1042    0.454   0.0374     H
H       0.1042    0.954   0.9626     H
N      0.10622  0.00505   0.5483     N
N      0.10622  0.50505   0.4517     N
H       0.1103    0.058   0.9608     H
H       0.1103    0.558   0.0392     H
H       0.1108   0.4569    0.828     H
H       0.1108   0.9569    0.172     H
C      0.11152  0.24967   0.6065     C
C      0.11152  0.74967   0.3935     C
C      0.11165  0.05881   0.3266     C
C      0.11165  0.55881   0.6734     C
Mn      0.1129  0.47013  0.52725    Mn
Mn      0.1129  0.97013  0.47275    Mn
H       0.1138    0.037   0.3024     H
H       0.1138    0.537   0.6976     H
O      0.11474  0.43302  0.60026     O
O      0.11474  0.93302  0.39974     O
H       0.1149   0.0847   0.2229     H
H       0.1149   0.5847   0.7771     H
H       0.1155   0.2271   0.5881     H
H       0.1155   0.7271   0.4119     H
C      0.11758   0.0272   0.0885     C
C      0.11758   0.5272   0.9115     C
O      0.11759  0.04845  0.62546     O
O      0.11759  0.54845  0.37454     O
H       0.1178   0.1918   0.3942     H
H       0.1178   0.6918   0.6058     H
C      0.11842  0.37995    0.699     C
C      0.11842  0.87995    0.301     C
H       0.1198   0.2411   0.7231     H
H       0.1198   0.7411   0.2769     H
H       0.1203   0.2649   0.5672     H
H       0.1203   0.7649   0.4328     H
C      0.12102  0.35306    0.745     C
C      0.12102  0.85306    0.255     C
C       0.1214  0.17626   0.4342     C
C       0.1214  0.67626   0.5658     C
H       0.1232   0.4584   0.3484     H
H       0.1232   0.9584   0.6516     H
H       0.1234   0.4753   0.1515     H
H       0.1234   0.9753   0.8485     H
H        0.124   0.0585   0.3758     H
H        0.124   0.5585   0.6242     H
H       0.1247   0.1065   0.2965     H
H       0.1247   0.6065   0.7035     H
C      0.12521  0.02962   0.5681     C
C      0.12521  0.52962   0.4319     C
C      0.12539  0.49705   0.8866     C
C      0.12539  0.99705   0.1134     C
C       0.1269  0.08455   0.2727     C
C       0.1269  0.58455   0.7273     C
H       0.1275    0.278   0.6985     H
H       0.1275    0.778   0.3015     H
C      0.12976  0.25493   0.6825     C
C      0.12976  0.75493   0.3175     C
C      0.12995  0.13158    0.551     C
C      0.12995  0.63158    0.449     C
H       0.1319   0.2162   0.0206     H
H       0.1319   0.7162   0.9794     H
H       0.1328   0.1162   0.5915     H
H       0.1328   0.6162   0.4085     H
H       0.1329   0.0269    0.947     H
H       0.1329   0.5269    0.053     H
C        0.133   0.0497   0.9658     C
C        0.133   0.5497   0.0342     C
H       0.1331   0.2746    0.053     H
H       0.1331   0.7746    0.947     H
H       0.1338   0.3828   0.6585     H
H       0.1338   0.8828   0.3415     H
H        0.138   0.3376    0.737     H
H        0.138   0.8376    0.263     H
H       0.1384   0.0476   0.8126     H
H       0.1384   0.5476   0.1874     H
H       0.1391   0.0714   0.0632     H
H       0.1391   0.5714   0.9368     H
H       0.1394   0.2586   0.1361     H
H       0.1394   0.7586   0.8639     H
C      0.13941  0.44359   0.3667     C
C      0.13941  0.94359   0.6333     C
C      0.14021   0.0489   0.0423     C
C      0.14021   0.5489   0.9577     C
H       0.1435   0.3747   0.9535     H
H       0.1435   0.8747   0.0465     H
N      0.14432  0.44141   0.4431     N
N      0.14432  0.94141   0.5569     N
H       0.1466   0.4887   0.8976     H
H       0.1466   0.9887   0.1024     H
C       0.1482   0.2613   0.0838     C
C       0.1482   0.7613   0.9162     C
O      0.14919  0.49169  0.56712     O
O      0.14919  0.99169  0.43288     O
C      0.14977  0.17844   0.4803     C
C      0.14977  0.67844   0.5197     C
H       0.1521   0.4279   0.2598     H
H       0.1521   0.9279   0.7402     H
C      0.15251  0.06399   0.8327     C
C      0.15251  0.56399   0.1673     C
C       0.1526   0.2248   0.0424     C
C       0.1526   0.7248   0.9576     C
C      0.15368  0.15602   0.5411     C
C      0.15368  0.65602   0.4589     C
C      0.15407  0.06939   0.9109     C
C      0.15407  0.56939   0.0891     C
C      0.15617  0.03505   0.5272     C
C      0.15617  0.53505   0.4728     C
C      0.15655  0.42564   0.3134     C
C      0.15655  0.92564   0.6866     C
H       0.1604   0.4206    0.037     H
H       0.1604   0.9206    0.963     H
H       0.1622   0.2528   0.9582     H
H       0.1622   0.7528   0.0418     H
H       0.1626   0.2084   0.0773     H
H       0.1626   0.7084   0.9227     H
H       0.1627   0.3235   0.8826     H
H       0.1627   0.8235   0.1174     H
H       0.1629    0.041   0.0488     H
H       0.1629    0.541   0.9512     H
C       0.1631   0.0772   0.2579     C
C       0.1631   0.5772   0.7421     C
H       0.1646   0.1982   0.9026     H
H       0.1646   0.6982   0.0974     H
H       0.1653   0.3649   0.0271     H
H       0.1653   0.8649   0.9729     H
C      0.16545   0.3769   0.9773     C
C      0.16545   0.8769   0.0227     C
C      0.16558  0.24659    0.675     C
C      0.16558  0.74659    0.325     C
H       0.1658   0.0537   0.2479     H
H       0.1658   0.5537   0.7521     H
C      0.16588  0.01595   0.4633     C
C      0.16588  0.51595   0.5367     C
H       0.1661   0.4693   0.7131     H
H       0.1661   0.9693   0.2869     H
H       0.1666   0.4259   0.9466     H
H       0.1666   0.9259   0.0534     H
C      0.16773  0.42138   0.4664     C
C      0.16773  0.92138   0.5336     C
H       0.1678    0.224   0.6553     H
H       0.1678    0.724   0.3447     H
H       0.1694   0.2723   0.0865     H
H       0.1694   0.7723   0.9135     H
H       0.1697   0.0737   0.5947     H
H       0.1697   0.5737   0.4053     H
H         0.17   0.0779   0.7297     H
H         0.17   0.5779   0.2703     H
O      0.17055  0.20228   0.4633     O
O      0.17055  0.70228   0.5367     O
H       0.1706   0.0896    0.213     H
H       0.1706   0.5896    0.787     H
C      0.17138  0.08227   0.7836     C
C      0.17138  0.58227   0.2164     C
H       0.1721     0.42   0.5203     H
H       0.1721     0.92   0.4797     H
C       0.1728   0.4131   0.9921     C
C       0.1728   0.9131   0.0079     C
C       0.1729   0.2354    0.989     C
C       0.1729   0.7354    0.011     C
C      0.17564  0.09345   0.9366     C
C      0.17564  0.59345   0.0634     C
H       0.1759   0.0834   0.3034     H
H       0.1759   0.2475   0.7268     H
H       0.1759   0.5834   0.6966     H
H       0.1759   0.7475   0.2732     H
H       0.1763   0.4197   0.6553     H
H       0.1763   0.9197   0.3447     H
C      0.17654  0.06044   0.5526     C
C      0.17654  0.56044   0.4474     C
H       0.1779   0.0979   0.9902     H
H       0.1779   0.5979   0.0098     H
H       0.1786   0.3891   0.1868     H
H       0.1786   0.8891   0.8132     H
C      0.18061  0.40407   0.3391     C
C      0.18061  0.90407   0.6609     C
C      0.18228  0.15567   0.5938     C
C      0.18228  0.65567   0.4062     C
O      0.18264  0.30058  0.63848     O
O      0.18264  0.80058  0.36152     O
O      0.18302  0.13526  0.64974     O
O      0.18302  0.63526  0.35026     O
C      0.18307  0.26948   0.6217     C
C      0.18307  0.76948   0.3783     C
C      0.18334   0.4559   0.7315     C
C      0.18334   0.9559   0.2685     C
C       0.1839   0.2056   0.9323     C
C       0.1839   0.7056   0.0677     C
H       0.1846   0.3134   0.9555     H
H       0.1846   0.8134   0.0445     H
C      0.18464  0.32574   0.9063     C
C      0.18464  0.82574   0.0937     C
C      0.18601  0.40251   0.4173     C
C      0.18601  0.90251   0.5827     C
C      0.18956  0.42654   0.6974     C
C      0.18956  0.92654   0.3026     C
C      0.19119  0.36165   0.9234     C
C      0.19119  0.86165   0.0766     C
H       0.1913    0.187   0.9645     H
H       0.1913    0.687   0.0355     H
N      0.19141  0.10568   0.8069     N
N      0.19141  0.60568   0.1931     N
H       0.1915    0.374   0.8742     H
H       0.1915    0.874   0.1258     H
H       0.1916   0.3284   0.1639     H
H       0.1916   0.8284   0.8361     H
H        0.192   0.3603   0.2892     H
H        0.192   0.8603   0.7108     H
H       0.1925    0.245    0.014     H
H       0.1925    0.745    0.986     H
C      0.19359  0.11059   0.8833     C
C      0.19359  0.61059   0.1167     C
H       0.1963   0.4158   0.0021     H
H       0.1963   0.9158   0.9979     H
C      0.19637  0.02292   0.4289     C
C      0.19637  0.52292   0.5711     C
N      0.19781   0.2582   0.5606     N
N      0.19781   0.7582   0.4394     N
H       0.1983   0.4866   0.8164     H
H       0.1983   0.9866   0.1836     H
C       0.2003    0.383   0.2842     C
C       0.2003    0.883   0.7158     C
C       0.2011  0.39021   0.2077     C
C       0.2011  0.89021   0.7923     C
O      0.20155  0.36759  0.62454     O
O      0.20155  0.86759  0.37546     O
C      0.20235  0.46598   0.7931     C
C      0.20235  0.96598   0.2069     C
H       0.2024   0.3884   0.4374     H
H       0.2024   0.8884   0.5626     H
H       0.2028   0.2889   0.8353     H
H       0.2028   0.7889   0.1647     H
O      0.20326  0.17503  0.77602     O
O      0.20326  0.67503  0.22398     O
H       0.2035   0.0104   0.3859     H
H       0.2035   0.5104   0.6141     H
H        0.204   0.1458   0.2126     H
H        0.204   0.6458   0.7874     H
H       0.2042   0.2322   0.8377     H
H       0.2042   0.7322   0.1623     H
C       0.2059  0.06666   0.5185     C
C       0.2059  0.56666   0.4815     C
N      0.20636  0.17627   0.5794     N
N      0.20636  0.67627   0.4206     N
H       0.2069   0.1392    0.422     H
H       0.2069   0.6392    0.578     H
H       0.2084   0.1268   0.9016     H
H       0.2084   0.6268   0.0984     H
Mn     0.20885  0.32646  0.56816    Mn
Mn     0.20885  0.82646  0.43184    Mn
H        0.209   0.4129   0.2012     H
H        0.209   0.9129   0.7988     H
C      0.21015   0.3109    0.852     C
C      0.21015   0.8109    0.148     C
Mn     0.21193   0.2106   0.5033    Mn
Mn     0.21193   0.7106   0.4967    Mn
H       0.2122   0.3248   0.8053     H
H       0.2122   0.8248   0.1947     H
C      0.21221  0.21509   0.8735     C
C      0.21221  0.71509   0.1265     C
C       0.2124   0.3357   0.1465     C
C       0.2124   0.8357   0.8535     C
H        0.213   0.3638   0.9476     H
H        0.213   0.8638   0.0524     H
N      0.21335  0.28403     0.52     N
N      0.21335  0.78403     0.48     N
H       0.2139   0.1986   0.2553     H
H       0.2139   0.6986   0.7447     H
C      0.21495  0.40617   0.7228     C
C      0.21495  0.90617   0.2772     C
C      0.21598  0.04765   0.4569     C
C      0.21598  0.54765   0.5431     C
C      0.21732  0.15987   0.1823     C
C      0.21732  0.65987   0.8177     C
H       0.2193   0.0839   0.5369     H
H       0.2193   0.5839   0.4631     H
Mn     0.22013   0.1371  0.72275    Mn
Mn     0.22013   0.6371  0.27725    Mn
C      0.22038  0.37521   0.6819     C
C      0.22038  0.87521   0.3181     C
C       0.2228  0.36758   0.1615     C
C       0.2228  0.86758   0.8385     C
C      0.22284  0.19115   0.2078     C
C      0.22284  0.69115   0.7922     C
H       0.2231   0.3829    0.303     H
H       0.2231   0.8829    0.697     H
C      0.22314  0.18603   0.8278     C
C      0.22314  0.68603   0.1722     C
O       0.2244   0.2455  0.42897     O
O       0.2244   0.7455  0.57103     O
H       0.2253   0.1266   0.0985     H
H       0.2253   0.6266   0.9015     H
H       0.2254   0.2932    0.096     H
H       0.2254   0.7932    0.904     H
C      0.22652  0.27482    0.454     C
C      0.22652  0.77482    0.546     C
C      0.22708  0.44637   0.8211     C
C      0.22708  0.94637   0.1789     C
C      0.22781    0.146   0.4041     C
C      0.22781    0.646   0.5959     C
C      0.23022  0.14824   0.1149     C
C      0.23022  0.64824   0.8851     C
H        0.231   0.2241   0.9025     H
H        0.231   0.7241   0.0975     H
C      0.23272  0.31485   0.1061     C
C      0.23272  0.81485   0.8939     C
N      0.23389  0.17153   0.6282     N
N      0.23389  0.67153   0.3718     N
C      0.23405  0.41588   0.7867     C
C      0.23405  0.91588   0.2133     C
O        0.236  0.34498   0.4933     O
O        0.236  0.84498   0.5067     O
H       0.2366   0.0517   0.4336     H
H       0.2366   0.5517   0.5664     H
N      0.23827   0.1765   0.4188     N
N      0.23827   0.6765   0.5812     N
H       0.2387   0.1034   0.3524     H
H       0.2387   0.6034   0.6476     H
H       0.2396   0.4535   0.8641     H
H       0.2396   0.9535   0.1359     H
O      0.24169  0.10081  0.68288     O
O      0.24169  0.60081  0.31712     O
C      0.24192  0.21161   0.1622     C
C      0.24192  0.71161   0.8378     C
C      0.24288  0.30808   0.8904     C
C      0.24288  0.80808   0.1096     C
C      0.24456  0.29877   0.4075     C
C      0.24456  0.79877   0.5925     C
N      0.24495  0.35622   0.7017     N
N      0.24495  0.85622   0.2983     N
H       0.2459   0.2334   0.1791     H
H       0.2459   0.7334   0.8209     H
O      0.24633  0.28661  0.94429     O
O      0.24633  0.78661  0.05571     O
C      0.24705  0.12461   0.3634     C
C      0.24705  0.62461   0.6366     C
C      0.24912  0.33182   0.4305     C
C      0.24912  0.83182   0.5695     C
N      0.24935  0.32813   0.6554     N
N      0.24935  0.82813   0.3446     N
N      0.25065  0.17187   0.8446     N
N      0.25065  0.67187   0.1554     N
C      0.25088  0.16818   0.0695     C
C      0.25088  0.66818   0.9305     C
C      0.25295  0.37539   0.1366     C
C      0.25295  0.87539   0.8634     C
O      0.25367  0.21339  0.55571     O
O      0.25367  0.71339  0.44429     O
H       0.2541   0.2666   0.3209     H
H       0.2541   0.7666   0.6791     H
N      0.25505  0.14378   0.7983     N
N      0.25505  0.64378   0.2017     N
C      0.25544  0.20123   0.0925     C
C      0.25544  0.70123   0.9075     C
C      0.25712  0.19192   0.6096     C
C      0.25712  0.69192   0.3904     C
C      0.25808  0.28839   0.3378     C
C      0.25808  0.78839   0.6622     C
O      0.25831  0.39919  0.81712     O
O      0.25831  0.89919  0.18288     O
H       0.2604   0.0465   0.6359     H
H       0.2604   0.5465   0.3641     H
H       0.2613   0.3966   0.1476     H
H       0.2613   0.8966   0.8524     H
N      0.26173   0.3235   0.0812     N
N      0.26173   0.8235   0.9188     N
H       0.2634   0.4483   0.0664     H
H       0.2634   0.9483   0.9336     H
O        0.264  0.15502   0.0067     O
O        0.264  0.65502   0.9933     O
C      0.26595  0.08412   0.7133     C
C      0.26595  0.58412   0.2867     C
N      0.26611  0.32847   0.8718     N
N      0.26611  0.82847   0.1282     N
C      0.26728  0.18515   0.3939     C
C      0.26728  0.68515   0.6061     C
H        0.269   0.2759   0.5975     H
H        0.269   0.7759   0.4025     H
C      0.26978  0.35176   0.3851     C
C      0.26978  0.85176   0.6149     C
C      0.27219    0.354   0.0959     C
C      0.27219    0.854   0.9041     C
C      0.27292  0.05363   0.6789     C
C      0.27292  0.55363   0.3211     C
C      0.27348  0.22518    0.046     C
C      0.27348  0.72518    0.954     C
H       0.2746   0.2068    0.404     H
H       0.2746   0.7068    0.596     H
H       0.2747   0.3734   0.4015     H
H       0.2747   0.8734   0.5985     H
O       0.2756   0.2545  0.07103     O
O       0.2756   0.7545  0.92897     O
C      0.27686  0.31397   0.6722     C
C      0.27686  0.81397   0.3278     C
H       0.2769   0.1171    0.197     H
H       0.2769   0.6171    0.803     H
C      0.27716  0.30885   0.2922     C
C      0.27716  0.80885   0.7078     C
C       0.2772  0.13242   0.3385     C
C       0.2772  0.63242   0.6615     C
C      0.27962  0.12479   0.8181     C
C      0.27962  0.62479   0.1819     C
Mn     0.27987   0.3629  0.77725    Mn
Mn     0.27987   0.8629  0.22275    Mn
H       0.2807   0.4161   0.9631     H
H       0.2807   0.9161   0.0369     H
C      0.28268  0.34013   0.3177     C
C      0.28268  0.84013   0.6823     C
C      0.28402  0.45235   0.0431     C
C      0.28402  0.95235   0.9569     C
C      0.28505  0.09383   0.7772     C
C      0.28505  0.59383   0.2228     C
H       0.2861   0.3014   0.2447     H
H       0.2861   0.8014   0.7553     H
N      0.28665  0.21597     0.98     N
N      0.28665  0.71597     0.02     N
H        0.287   0.1362   0.5524     H
H        0.287   0.6362   0.4476     H
C       0.2876   0.1643   0.3535     C
C       0.2876   0.6643   0.6465     C
C      0.28779  0.28491   0.6265     C
C      0.28779  0.78491   0.3735     C
H       0.2878   0.1752   0.6947     H
H       0.2878   0.6752   0.3053     H
Mn     0.28807   0.2894   0.9967    Mn
Mn     0.28807   0.7894   0.0033    Mn
C      0.28985   0.1891    0.648     C
C      0.28985   0.6891    0.352     C
H        0.291   0.0871   0.2988     H
H        0.291   0.5871   0.7012     H
Mn     0.29115  0.17354  0.93184    Mn
Mn     0.29115  0.67354  0.06816    Mn
H       0.2916   0.3732   0.5984     H
H       0.2916   0.8732   0.4016     H
H       0.2931   0.3608    0.078     H
H       0.2931   0.8608    0.922     H
N      0.29364  0.32373   0.9206     N
N      0.29364  0.82373   0.0794     N
C       0.2941  0.43334   0.9815     C
C       0.2941  0.93334   0.0185     C
H       0.2958   0.2678   0.6623     H
H       0.2958   0.7678   0.3377     H
H        0.296   0.3542   0.2874     H
H        0.296   0.8542   0.7126     H
H       0.2965   0.4896   0.1141     H
H       0.2965   0.9896   0.8859     H
O      0.29674  0.32497  0.72398     O
O      0.29674  0.82497  0.27602     O
H       0.2972   0.2111   0.6647     H
H       0.2972   0.7111   0.3353     H
H       0.2976   0.1116   0.0626     H
H       0.2976   0.6116   0.9374     H
C      0.29765  0.03402   0.7069     C
C      0.29765  0.53402   0.2931     C
O      0.29845  0.13241  0.87546     O
O      0.29845  0.63241  0.12454     O
C       0.2989  0.10979   0.2923     C
C       0.2989  0.60979   0.7077     C
C       0.2997    0.117   0.2158     C
C       0.2997    0.617   0.7842     C
H       0.3017   0.0134   0.6836     H
H       0.3017   0.5134   0.3164     H
N      0.30219   0.2418   0.9394     N
N      0.30219   0.7418   0.0606     N
C      0.30363  0.47708   0.0711     C
C      0.30363  0.97708   0.9289     C
H       0.3037   0.0842   0.4979     H
H       0.3037   0.5842   0.5021     H
C      0.30641  0.38941   0.6167     C
C      0.30641  0.88941   0.3833     C
H       0.3075    0.255    0.486     H
H       0.3075    0.755    0.514     H
H        0.308   0.1397   0.2108     H
H        0.308   0.6397   0.7892     H
H       0.3084   0.1716   0.3361     H
H       0.3084   0.6716   0.6639     H
H       0.3085    0.126   0.6258     H
H       0.3085    0.626   0.3742     H
N      0.30859  0.39432   0.6931     N
N      0.30859  0.89432   0.3069     N
H       0.3087    0.313   0.5355     H
H       0.3087    0.813   0.4645     H
C      0.30881  0.13835   0.5766     C
C      0.30881  0.63835   0.4234     C
C      0.31044  0.07346   0.8026     C
C      0.31044  0.57346   0.1974     C
C      0.31399  0.09749   0.0827     C
C      0.31399  0.59749   0.9173     C
C      0.31536  0.17426   0.5937     C
C      0.31536  0.67426   0.4063     C
H       0.3154   0.1866   0.5445     H
H       0.3154   0.6866   0.4555     H
C       0.3161   0.2944   0.5677     C
C       0.3161   0.7944   0.4323     C
C      0.31666   0.0441   0.7685     C
C      0.31666   0.5441   0.2315     C
C      0.31693  0.23052   0.8783     C
C      0.31693  0.73052   0.1217     C
O      0.31698  0.36474  0.85026     O
O      0.31698  0.86474  0.14974     O
O      0.31736  0.19942  0.86152     O
O      0.31736  0.69942  0.13848     O
C      0.31772  0.34433   0.9062     C
C      0.31772  0.84433   0.0938     C
C      0.31939  0.09593   0.1609     C
C      0.31939  0.59593   0.8391     C
H       0.3214   0.1109   0.3132     H
H       0.3214   0.6109   0.6868     H
H       0.3221   0.4021   0.5098     H
H       0.3221   0.9021   0.4902     H
C      0.32346  0.43956   0.9474     C
C      0.32346  0.93956   0.0526     C
H       0.3237   0.0803   0.8447     H
H       0.3237   0.5803   0.1553     H
H       0.3241   0.2525   0.7732     H
H       0.3241   0.4166   0.1966     H
H       0.3241   0.7525   0.2268     H
H       0.3241   0.9166   0.8034     H
C      0.32436  0.40655   0.5634     C
C      0.32436  0.90655   0.4366     C
C       0.3271   0.2646    0.511     C
C       0.3271   0.7646    0.489     C
C       0.3272   0.0869   0.5079     C
C       0.3272   0.5869   0.4921     C
H       0.3279     0.08   0.9797     H
H       0.3279     0.58   0.0203     H
C      0.32862  0.41773   0.7164     C
C      0.32862  0.91773   0.2836     C
H       0.3294   0.4104    0.287     H
H       0.3294   0.9104    0.713     H
O      0.32945  0.29772   0.0367     O
O      0.32945  0.79772   0.9633     O
H         0.33   0.4221   0.7703     H
H         0.33   0.9221   0.2297     H
H       0.3303   0.4263   0.9053     H
H       0.3303   0.9263   0.0947     H
H       0.3306   0.2277   0.4135     H
H       0.3306   0.7277   0.5865     H
H       0.3322    0.276   0.8447     H
H       0.3322    0.776   0.1553     H
C      0.33227  0.07862   0.0336     C
C      0.33227  0.57862   0.9664     C
H       0.3334   0.0741   0.5534     H
H       0.3334   0.5741   0.4466     H
H       0.3339   0.0307   0.7869     H
H       0.3339   0.5307   0.2131     H
C      0.33412  0.48405   0.0367     C
C      0.33412  0.98405   0.9633     C
H       0.3342   0.4463   0.2521     H
H       0.3342   0.9463   0.7479     H
C      0.33442  0.25341    0.825     C
C      0.33442  0.75341    0.175     C
C      0.33455   0.1231   0.5227     C
C      0.33455   0.6231   0.4773     C
H       0.3347   0.1351   0.4729     H
H       0.3347   0.6351   0.5271     H
H       0.3354   0.3018   0.5974     H
H       0.3354   0.8018   0.4026     H
C       0.3369   0.4228   0.2421     C
C       0.3369   0.9228   0.7579     C
H       0.3371    0.459   0.4512     H
H       0.3371    0.959   0.5488     H
H       0.3373   0.1765   0.6174     H
H       0.3373   0.6765   0.3826     H
H       0.3374   0.2916   0.4227     H
H       0.3374   0.7916   0.5773     H
H       0.3378   0.2472   0.5418     H
H       0.3378   0.7472   0.4582     H
H       0.3396   0.0794    0.463     H
H       0.3396   0.5794    0.537     H
C      0.34345  0.07436   0.1866     C
C      0.34345  0.57436   0.8134     C
C      0.34383  0.46495   0.9728     C
C      0.34383  0.96495   0.0272     C
C      0.34593  0.43061   0.5891     C
C      0.34593  0.93061   0.4109     C
C      0.34632  0.34398   0.9589     C
C      0.34632  0.84398   0.0411     C
C       0.3474   0.2752   0.4576     C
C       0.3474   0.7752   0.5424     C
C      0.34749  0.43601   0.6673     C
C      0.34749  0.93601   0.3327     C
H       0.3479   0.0721   0.2402     H
H       0.3479   0.5721   0.7598     H
C      0.35023  0.32156   0.0197     C
C      0.35023  0.82156   0.9803     C
O      0.35081  0.00831  0.93288     O
O      0.35081  0.50831  0.06712     O
C       0.3518   0.2387   0.4162     C
C       0.3518   0.7387   0.5838     C
H       0.3534   0.0113   0.6024     H
H       0.3534   0.5113   0.3976     H
N      0.35568  0.05859   0.0569     N
N      0.35568  0.55859   0.9431     N
H       0.3565   0.1253   0.5465     H
H       0.3565   0.6253   0.4535     H
C      0.35979   0.4511   0.4577     C
C      0.35979   0.9511   0.5423     C
C      0.36059  0.05641   0.1333     C
C      0.36059  0.55641   0.8667     C
H       0.3606   0.2414   0.3639     H
H       0.3606   0.7414   0.6361     H
H       0.3609   0.4286   0.4368     H
H       0.3609   0.9286   0.5632     H
H       0.3616   0.4524   0.6874     H
H       0.3616   0.9524   0.3126     H
H        0.362   0.1624    0.763     H
H        0.362   0.6624    0.237     H
H       0.3662   0.1172   0.8415     H
H       0.3662   0.6172   0.1585     H
H       0.3669   0.2254    0.447     H
H       0.3669   0.7254    0.553     H
C        0.367   0.4503   0.5342     C
C        0.367   0.9503   0.4658     C
H       0.3671   0.4731    0.553     H
H       0.3671   0.9731    0.447     H
H       0.3672   0.3838   0.9085     H
H       0.3672   0.8838   0.0915     H
H       0.3681   0.2838   0.4794     H
H       0.3681   0.7838   0.5206     H
C      0.37005  0.36842    0.949     C
C      0.37005  0.86842    0.051     C
C      0.37024  0.24507   0.8175     C
C      0.37024  0.74507   0.1825     C
H       0.3725    0.222   0.8015     H
H       0.3725    0.722   0.1985     H
C       0.3731  0.41545   0.2273     C
C       0.3731  0.91545   0.7727     C
C      0.37461  0.00295   0.6134     C
C      0.37461  0.50295   0.3866     C
C      0.37479  0.47038   0.9319     C
C      0.37479  0.97038   0.0681     C
H       0.3753   0.3935   0.2035     H
H       0.3753   0.8935   0.7965     H
H        0.376   0.4415   0.1242     H
H        0.376   0.9415   0.8758     H
H       0.3766   0.0247   0.3485     H
H       0.3766   0.5247   0.6515     H
H       0.3768   0.0416   0.1516     H
H       0.3768   0.5416   0.8484     H
C       0.3786  0.32374   0.0658     C
C       0.3786  0.82374   0.9342     C
C      0.37898  0.14694    0.755     C
C      0.37898  0.64694    0.245     C
H       0.3797   0.2351   0.9328     H
H       0.3797   0.7351   0.0672     H
H       0.3802   0.2589   0.7769     H
H       0.3802   0.7589   0.2231     H
C      0.38158  0.12005    0.801     C
C      0.38158  0.62005    0.199     C
H       0.3822   0.3082   0.1058     H
H       0.3822   0.8082   0.8942     H
O      0.38241  0.45155  0.87454     O
O      0.38241  0.95155  0.12546     O
C      0.38242   0.4728   0.4115     C
C      0.38242   0.9728   0.5885     C
H       0.3845   0.2729   0.9119     H
H       0.3845   0.7729   0.0881     H
H       0.3851   0.4153   0.2771     H
H       0.3851   0.9153   0.7229     H
O      0.38526  0.06698  0.89974     O
O      0.38526  0.56698  0.10026     O
H       0.3862    0.463   0.1976     H
H       0.3862    0.963   0.8024     H
Mn      0.3871  0.02987  0.97275    Mn
Mn      0.3871  0.52987  0.02725    Mn
C      0.38835  0.44119   0.1734     C
C      0.38835  0.94119   0.8266     C
C      0.38848  0.25033   0.8935     C
C      0.38848  0.75033   0.1065     C
H       0.3892   0.0431    0.672     H
H       0.3892   0.5431    0.328     H
H       0.3897    0.442   0.5392     H
H       0.3897    0.942   0.4608     H
N      0.39378  0.49495   0.9517     N
N      0.39378  0.99495   0.0483     N
H       0.3958    0.046   0.4626     H
H       0.3958    0.546   0.5374     H
C        0.396  0.02219   0.6541     C
C        0.396  0.52219   0.3459     C
C      0.39694  0.37102    0.995     C
C      0.39694  0.87102    0.005     C
C      0.39824  0.01978   0.3649     C
C      0.39824  0.51978   0.6351     C
H       0.4002   0.1701   0.6649     H
H       0.4002   0.6701   0.3351     H
C      0.40129  0.34845   0.0531     C
C      0.40129  0.84845   0.9469     C
C      0.40155  0.15129   0.6969     C
C      0.40155  0.65129   0.3031     C
O      0.40502    0.486   0.7433     O
O      0.40502    0.986   0.2567     O
C      0.40567  0.06772   0.8438     C
C      0.40567  0.56772   0.1562     C
C      0.40602  0.09632   0.7911     C
C      0.40602  0.59632   0.2089     C
C      0.40987  0.03268   0.4323     C
C      0.40987  0.53268   0.5677     C
H       0.4124    0.388    0.987     H
H       0.4124    0.888    0.013     H
C       0.4143   0.4624   0.3965     C
C       0.4143   0.9624   0.6035     C
C      0.41818  0.49912   0.6805     C
C      0.41818  0.99912   0.3195     C
H       0.4201   0.3498   0.0851     H
H       0.4201   0.8498   0.9149     H
N      0.42153  0.01611   0.8782     N
N      0.42153  0.51611   0.1218     N
H       0.4216   0.4416   0.4139     H
H       0.4216   0.9416   0.5861     H
N      0.42187  0.49935   0.9054     N
N      0.42187  0.99935   0.0946     N
Mn     0.42354  0.45885  0.81816    Mn
Mn     0.42354  0.95885  0.18184    Mn
C      0.42426  0.43464   0.1563     C
C      0.42426  0.93464   0.8437     C
C        0.425    0.245   0.8858     C
C        0.425    0.745   0.1142     C
O      0.42503  0.04674  0.02602     O
O      0.42503  0.54674  0.97398     O
H       0.4252   0.4622   0.0553     H
H       0.4252   0.9622   0.9447     H
C      0.42626   0.1286   0.6842     C
C      0.42626   0.6286   0.3158     C
N      0.42627  0.04364   0.8294     N
N      0.42627  0.54364   0.1706     N
N       0.4265  0.01173   0.6688     N
H       0.4265   0.4127   0.1326     H
N       0.4265  0.51173   0.3312     N
H       0.4265   0.9127   0.8674     H
C      0.42844  0.10023   0.7303     C
C      0.42844  0.60023   0.2697     C
H        0.429   0.2223   0.8685     H
H        0.429   0.2447   0.0032     H
H        0.429   0.7223   0.1315     H
H        0.429   0.7447   0.9968     H
H       0.4336   0.2599   0.8456     H
H       0.4336   0.7599   0.1544     H
C      0.43515  0.48272   0.3561     C
C      0.43515  0.98272   0.6439     C
C      0.43603  0.02686   0.0778     C
C      0.43603  0.52686   0.9222     C
H       0.4366   0.4346   0.2055     H
H       0.4366   0.9346   0.7945     H
H        0.437   0.0587   0.2145     H
H        0.437   0.5587   0.7855     H
C       0.4391  0.46015    0.102     C
C       0.4391  0.96015    0.898     C
C      0.44115  0.02716   0.4578     C
C      0.44115  0.52716   0.5422     C
H       0.4418   0.1322   0.6442     H
H       0.4418   0.6322   0.3558     H
C      0.44192  0.49288   0.1404     C
C      0.44192  0.99288   0.8596     C
C        0.443   0.2508   0.9594     C
C        0.443   0.7508   0.0406     C
H       0.4482   0.0854   0.1526     H
H       0.4482   0.5854   0.8474     H
H       0.4486   0.0361   0.5053     H
H       0.4486   0.5361   0.4947     H
H       0.4488    0.274   0.9633     H
H       0.4488    0.774   0.0367     H
O      0.44942  0.43264  0.88848     O
O      0.44942  0.93264  0.11152     O
C      0.45123  0.49456   0.6575     C
C      0.45123  0.99456   0.3425     C
O      0.45228  0.07945   0.7133     O
O      0.45228  0.57945   0.2867     O
C       0.4556   0.0661   0.1823     C
C       0.4556   0.5661   0.8177     C
H       0.4568   0.4754    0.346     H
H       0.4568   0.9754    0.654     H
H       0.4584   0.0874   0.3273     H
H       0.4584   0.5874   0.6727     H
Mn      0.4606  0.03807   0.7533    Mn
Mn      0.4606  0.53807   0.2467    Mn
H       0.4611   0.4528   0.0853     H
H       0.4611   0.9528   0.9147     H
C      0.46161  0.00808   0.4122     C
C      0.46161  0.50808   0.5878     C
H       0.4629   0.2375   0.9601     H
H       0.4629   0.7375   0.0399     H
O      0.46339  0.49633  0.19429     O
O      0.46339  0.99633  0.80571     O
C      0.46509  0.03779   0.1235     C
C      0.46509  0.53779   0.8765     C
N      0.46597  0.46335     0.77     N
N      0.46597  0.96335     0.23     N
H       0.4662   0.1181   0.2706     H
H       0.4662   0.6181   0.7294     H
H        0.472   0.3775   0.9485     H
H        0.472   0.8775   0.0515     H
H       0.4723    0.321   0.8815     H
H       0.4723    0.821   0.1185     H
H        0.474   0.0822   0.9053     H
H        0.474   0.5822   0.0947     H
H       0.4741    0.019   0.1525     H
H       0.4741    0.519   0.8475     H
C       0.4748   0.0974   0.2924     C
C       0.4748   0.5974   0.7076     C
C      0.47518  0.47652    0.704     C
C      0.47518  0.97652    0.296     C
H       0.4754   0.3831    0.303     H
H       0.4754   0.8831    0.697     H
H        0.476   0.1988   0.7867     H
H        0.476   0.6988   0.2133     H
H       0.4771   0.1345   0.8381     H
H       0.4771   0.6345   0.1619     H
H       0.4777   0.4194   0.3365     H
H       0.4777   0.9194   0.6635     H
C      0.48052  0.43307   0.8717     C
C      0.48052  0.93307   0.1283     C
H       0.4822   0.0458   0.0877     H
H       0.4822   0.5458   0.9123     H
H       0.4834   0.0041   0.4291     H
H       0.4834   0.5041   0.5709     H
H       0.4851   0.3703   0.8172     H
H       0.4851   0.8703   0.1828     H
C       0.4854   0.0771    0.239     C
C       0.4854   0.5771    0.761     C
H       0.4875   0.2871   0.7899     H
H       0.4875   0.7871   0.2101     H
C       0.4887   0.3982   0.3338     C
C       0.4887   0.8982   0.6662     C
H       0.4901   0.1836   0.9044     H
H       0.4901   0.6836   0.0956     H
H       0.4911   0.1302   0.9731     H
H       0.4911   0.6302   0.0269     H
H       0.4914   0.3894   0.3861     H
H       0.4914   0.8894   0.6139     H
N       0.4918  0.44781   0.8106     N
N       0.4918  0.94781   0.1894     N
H       0.4947    0.321   0.7468     H
H       0.4947    0.821   0.2532     H
H        0.495   0.0575    0.264     H
C        0.495    0.325   0.8642     C
H        0.495   0.5575    0.736     H
C        0.495    0.825   0.1358     C
C      0.49507  0.37976   0.9325     C
C      0.49507  0.87976   0.0675     C
O       0.4955   0.0256  0.67897     O
O       0.4955   0.5256  0.32103     O
C      0.49659  0.08442    0.925     C
C      0.49659  0.58442    0.075     C
H       0.4972   0.4122   0.2082     H
H       0.4972   0.9122   0.7918     H
H       0.4975   0.0741   0.9768     H
H       0.4975   0.5741   0.0232     H
C       0.4992    0.193   0.7906     C
C       0.4992    0.693   0.2094     C
C      0.49967  0.13848   0.8565     C
C      0.49967  0.63848   0.1435     C
C      0.50033  0.36152   0.8565     C
C      0.50033  0.86152   0.1435     C
C       0.5008    0.307   0.7906     C
C       0.5008    0.807   0.2094     C
H       0.5025   0.4259   0.9768     H
H       0.5025   0.9259   0.0232     H
H       0.5028   0.0878   0.2082     H
H       0.5028   0.5878   0.7918     H
C      0.50341  0.41558    0.925     C
C      0.50341  0.91558    0.075     C
O       0.5045   0.4744  0.67897     O
O       0.5045   0.9744  0.32103     O
C      0.50493  0.12024   0.9325     C
C      0.50493  0.62024   0.0675     C
C        0.505    0.175   0.8642     C
H        0.505   0.4425    0.264     H
C        0.505    0.675   0.1358     C
H        0.505   0.9425    0.736     H
H       0.5053    0.179   0.7468     H
H       0.5053    0.679   0.2532     H
N       0.5082  0.05219   0.8106     N
N       0.5082  0.55219   0.1894     N
H       0.5086   0.1106   0.3861     H
H       0.5086   0.6106   0.6139     H
H       0.5089   0.3698   0.9731     H
H       0.5089   0.8698   0.0269     H
H       0.5099   0.3164   0.9044     H
H       0.5099   0.8164   0.0956     H
C       0.5113   0.1018   0.3338     C
C       0.5113   0.6018   0.6662     C
H       0.5125   0.2129   0.7899     H
H       0.5125   0.7129   0.2101     H
C       0.5146   0.4229    0.239     C
C       0.5146   0.9229    0.761     C
H       0.5149   0.1297   0.8172     H
H       0.5149   0.6297   0.1828     H
H       0.5166   0.4959   0.4291     H
H       0.5166   0.9959   0.5709     H
H       0.5178   0.4542   0.0877     H
H       0.5178   0.9542   0.9123     H
C      0.51948  0.06693   0.8717     C
C      0.51948  0.56693   0.1283     C
H       0.5223   0.0806   0.3365     H
H       0.5223   0.5806   0.6635     H
H       0.5229   0.3655   0.8381     H
H       0.5229   0.8655   0.1619     H
H        0.524   0.3012   0.7867     H
H        0.524   0.8012   0.2133     H
H       0.5246   0.1169    0.303     H
H       0.5246   0.6169    0.697     H
C      0.52482  0.02348    0.704     C
C      0.52482  0.52348    0.296     C
C       0.5252   0.4026   0.2924     C
C       0.5252   0.9026   0.7076     C
H       0.5259    0.481   0.1525     H
H       0.5259    0.981   0.8475     H
H        0.526   0.4178   0.9053     H
H        0.526   0.9178   0.0947     H
H       0.5277    0.179   0.8815     H
H       0.5277    0.679   0.1185     H
H        0.528   0.1225   0.9485     H
H        0.528   0.6225   0.0515     H
H       0.5338   0.3819   0.2706     H
H       0.5338   0.8819   0.7294     H
N      0.53403  0.03665     0.77     N
N      0.53403  0.53665     0.23     N
C      0.53491  0.46221   0.1235     C
C      0.53491  0.96221   0.8765     C
O      0.53661  0.00367  0.19429     O
O      0.53661  0.50367  0.80571     O
H       0.5371   0.2625   0.9601     H
H       0.5371   0.7625   0.0399     H
C      0.53839  0.49192   0.4122     C
C      0.53839  0.99192   0.5878     C
H       0.5389   0.0472   0.0853     H
H       0.5389   0.5472   0.9147     H
Mn      0.5394  0.46193   0.7533    Mn
Mn      0.5394  0.96193   0.2467    Mn
H       0.5416   0.4126   0.3273     H
H       0.5416   0.9126   0.6727     H
H       0.5432   0.0246    0.346     H
H       0.5432   0.5246    0.654     H
C       0.5444   0.4339   0.1823     C
C       0.5444   0.9339   0.8177     C
O      0.54772  0.42055   0.7133     O
O      0.54772  0.92055   0.2867     O
C      0.54877  0.00544   0.6575     C
C      0.54877  0.50544   0.3425     C
O      0.55058  0.06736  0.88848     O
O      0.55058  0.56736  0.11152     O
H       0.5512    0.226   0.9633     H
H       0.5512    0.726   0.0367     H
H       0.5514   0.4639   0.5053     H
H       0.5514   0.9639   0.4947     H
H       0.5518   0.4146   0.1526     H
H       0.5518   0.9146   0.8474     H
C        0.557   0.2492   0.9594     C
C        0.557   0.7492   0.0406     C
C      0.55808  0.00712   0.1404     C
C      0.55808  0.50712   0.8596     C
H       0.5582   0.3678   0.6442     H
H       0.5582   0.8678   0.3558     H
C      0.55885  0.47284   0.4578     C
C      0.55885  0.97284   0.5422     C
C       0.5609  0.03985    0.102     C
C       0.5609  0.53985    0.898     C
H        0.563   0.4413   0.2145     H
H        0.563   0.9413   0.7855     H
H       0.5634   0.0654   0.2055     H
H       0.5634   0.5654   0.7945     H
C      0.56397  0.47314   0.0778     C
C      0.56397  0.97314   0.9222     C
C      0.56485  0.01728   0.3561     C
C      0.56485  0.51728   0.6439     C
H       0.5664   0.2401   0.8456     H
H       0.5664   0.7401   0.1544     H
H        0.571   0.2553   0.0032     H
H        0.571   0.2777   0.8685     H
H        0.571   0.7553   0.9968     H
H        0.571   0.7777   0.1315     H
C      0.57156  0.39977   0.7303     C
C      0.57156  0.89977   0.2697     C
H       0.5735   0.0873   0.1326     H
N       0.5735  0.48827   0.6688     N
H       0.5735   0.5873   0.8674     H
N       0.5735  0.98827   0.3312     N
N      0.57373  0.45636   0.8294     N
N      0.57373  0.95636   0.1706     N
C      0.57374   0.3714   0.6842     C
C      0.57374   0.8714   0.3158     C
H       0.5748   0.0378   0.0553     H
H       0.5748   0.5378   0.9447     H
O      0.57497  0.45326  0.02602     O
O      0.57497  0.95326  0.97398     O
C        0.575    0.255   0.8858     C
C        0.575    0.755   0.1142     C
C      0.57574  0.06536   0.1563     C
C      0.57574  0.56536   0.8437     C
Mn     0.57646  0.04115  0.81816    Mn
Mn     0.57646  0.54115  0.18184    Mn
N      0.57813  0.00065   0.9054     N
N      0.57813  0.50065   0.0946     N
H       0.5784   0.0584   0.4139     H
H       0.5784   0.5584   0.5861     H
N      0.57847  0.48389   0.8782     N
N      0.57847  0.98389   0.1218     N
H       0.5799   0.1502   0.0851     H
H       0.5799   0.6502   0.9149     H
C      0.58182  0.00088   0.6805     C
C      0.58182  0.50088   0.3195     C
C       0.5857   0.0376   0.3965     C
C       0.5857   0.5376   0.6035     C
H       0.5876    0.112    0.987     H
H       0.5876    0.612    0.013     H
C      0.59013  0.46732   0.4323     C
C      0.59013  0.96732   0.5677     C
C      0.59398  0.40368   0.7911     C
C      0.59398  0.90368   0.2089     C
C      0.59433  0.43228   0.8438     C
C      0.59433  0.93228   0.1562     C
O      0.59498    0.014   0.7433     O
O      0.59498    0.514   0.2567     O
C      0.59845  0.34871   0.6969     C
C      0.59845  0.84871   0.3031     C
C      0.59871  0.15155   0.0531     C
C      0.59871  0.65155   0.9469     C
H       0.5998   0.3299   0.6649     H
H       0.5998   0.8299   0.3351     H
C      0.60176  0.48022   0.3649     C
C      0.60176  0.98022   0.6351     C
C      0.60306  0.12898    0.995     C
C      0.60306  0.62898    0.005     C
C        0.604  0.47781   0.6541     C
C        0.604  0.97781   0.3459     C
H       0.6042    0.454   0.4626     H
H       0.6042    0.954   0.5374     H
N      0.60622  0.00505   0.9517     N
N      0.60622  0.50505   0.0483     N
H       0.6103    0.058   0.5392     H
H       0.6103    0.558   0.4608     H
H       0.6108   0.4569    0.672     H
H       0.6108   0.9569    0.328     H
C      0.61152  0.24967   0.8935     C
C      0.61152  0.74967   0.1065     C
C      0.61165  0.05881   0.1734     C
C      0.61165  0.55881   0.8266     C
Mn      0.6129  0.47013  0.97275    Mn
Mn      0.6129  0.97013  0.02725    Mn
H       0.6138    0.037   0.1976     H
H       0.6138    0.537   0.8024     H
O      0.61474  0.43302  0.89974     O
O      0.61474  0.93302  0.10026     O
H       0.6149   0.0847   0.2771     H
H       0.6149   0.5847   0.7229     H
H       0.6155   0.2271   0.9119     H
H       0.6155   0.7271   0.0881     H
C      0.61758   0.0272   0.4115     C
C      0.61758   0.5272   0.5885     C
O      0.61759  0.04845  0.87454     O
O      0.61759  0.54845  0.12546     O
H       0.6178   0.1918   0.1058     H
H       0.6178   0.6918   0.8942     H
C      0.61842  0.37995    0.801     C
C      0.61842  0.87995    0.199     C
H       0.6198   0.2411   0.7769     H
H       0.6198   0.7411   0.2231     H
H       0.6203   0.2649   0.9328     H
H       0.6203   0.7649   0.0672     H
C      0.62102  0.35306    0.755     C
C      0.62102  0.85306    0.245     C
C       0.6214  0.17626   0.0658     C
C       0.6214  0.67626   0.9342     C
H       0.6232   0.4584   0.1516     H
H       0.6232   0.9584   0.8484     H
H       0.6234   0.4753   0.3485     H
H       0.6234   0.9753   0.6515     H
H        0.624   0.0585   0.1242     H
H        0.624   0.5585   0.8758     H
H       0.6247   0.1065   0.2035     H
H       0.6247   0.6065   0.7965     H
C      0.62521  0.02962   0.9319     C
C      0.62521  0.52962   0.0681     C
C      0.62539  0.49705   0.6134     C
C      0.62539  0.99705   0.3866     C
C       0.6269  0.08455   0.2273     C
C       0.6269  0.58455   0.7727     C
H       0.6275    0.278   0.8015     H
H       0.6275    0.778   0.1985     H
C      0.62976  0.25493   0.8175     C
C      0.62976  0.75493   0.1825     C
C      0.62995  0.13158    0.949     C
C      0.62995  0.63158    0.051     C
H       0.6319   0.2162   0.4794     H
H       0.6319   0.7162   0.5206     H
H       0.6328   0.1162   0.9085     H
H       0.6328   0.6162   0.0915     H
H       0.6329   0.0269    0.553     H
H       0.6329   0.5269    0.447     H
C        0.633   0.0497   0.5342     C
C        0.633   0.5497   0.4658     C
H       0.6331   0.2746    0.447     H
H       0.6331   0.7746    0.553     H
H       0.6338   0.3828   0.8415     H
H       0.6338   0.8828   0.1585     H
H        0.638   0.3376    0.763     H
H        0.638   0.8376    0.237     H
H       0.6384   0.0476   0.6874     H
H       0.6384   0.5476   0.3126     H
H       0.6391   0.0714   0.4368     H
H       0.6391   0.5714   0.5632     H
H       0.6394   0.2586   0.3639     H
H       0.6394   0.7586   0.6361     H
C      0.63941  0.44359   0.1333     C
C      0.63941  0.94359   0.8667     C
C      0.64021   0.0489   0.4577     C
C      0.64021   0.5489   0.5423     C
H       0.6435   0.3747   0.5465     H
H       0.6435   0.8747   0.4535     H
N      0.64432  0.44141   0.0569     N
N      0.64432  0.94141   0.9431     N
H       0.6466   0.4887   0.6024     H
H       0.6466   0.9887   0.3976     H
C       0.6482   0.2613   0.4162     C
C       0.6482   0.7613   0.5838     C
O      0.64919  0.49169  0.93288     O
O      0.64919  0.99169  0.06712     O
C      0.64977  0.17844   0.0197     C
C      0.64977  0.67844   0.9803     C
H       0.6521   0.4279   0.2402     H
H       0.6521   0.9279   0.7598     H
C      0.65251  0.06399   0.6673     C
C      0.65251  0.56399   0.3327     C
C       0.6526   0.2248   0.4576     C
C       0.6526   0.7248   0.5424     C
C      0.65368  0.15602   0.9589     C
C      0.65368  0.65602   0.0411     C
C      0.65407  0.06939   0.5891     C
C      0.65407  0.56939   0.4109     C
C      0.65617  0.03505   0.9728     C
C      0.65617  0.53505   0.0272     C
C      0.65655  0.42564   0.1866     C
C      0.65655  0.92564   0.8134     C
H       0.6604   0.4206    0.463     H
H       0.6604   0.9206    0.537     H
H       0.6622   0.2528   0.5418     H
H       0.6622   0.7528   0.4582     H
H       0.6626   0.2084   0.4227     H
H       0.6626   0.7084   0.5773     H
H       0.6627   0.3235   0.6174     H
H       0.6627   0.8235   0.3826     H
H       0.6629    0.041   0.4512     H
H       0.6629    0.541   0.5488     H
C       0.6631   0.0772   0.2421     C
C       0.6631   0.5772   0.7579     C
H       0.6646   0.1982   0.5974     H
H       0.6646   0.6982   0.4026     H
H       0.6653   0.3649   0.4729     H
H       0.6653   0.8649   0.5271     H
C      0.66545   0.3769   0.5227     C
C      0.66545   0.8769   0.4773     C
C      0.66558  0.24659    0.825     C
C      0.66558  0.74659    0.175     C
H       0.6658   0.0537   0.2521     H
H       0.6658   0.5537   0.7479     H
C      0.66588  0.01595   0.0367     C
C      0.66588  0.51595   0.9633     C
H       0.6661   0.4693   0.7869     H
H       0.6661   0.9693   0.2131     H
H       0.6666   0.4259   0.5534     H
H       0.6666   0.9259   0.4466     H
C      0.66773  0.42138   0.0336     C
C      0.66773  0.92138   0.9664     C
H       0.6678    0.224   0.8447     H
H       0.6678    0.724   0.1553     H
H       0.6694   0.2723   0.4135     H
H       0.6694   0.7723   0.5865     H
H       0.6697   0.0737   0.9053     H
H       0.6697   0.5737   0.0947     H
H         0.67   0.0779   0.7703     H
H         0.67   0.5779   0.2297     H
O      0.67055  0.20228   0.0367     O
O      0.67055  0.70228   0.9633     O
H       0.6706   0.0896    0.287     H
H       0.6706   0.5896    0.713     H
C      0.67138  0.08227   0.7164     C
C      0.67138  0.58227   0.2836     C
H       0.6721     0.42   0.9797     H
H       0.6721     0.92   0.0203     H
C       0.6728   0.4131   0.5079     C
C       0.6728   0.9131   0.4921     C
C       0.6729   0.2354    0.511     C
C       0.6729   0.7354    0.489     C
C      0.67564  0.09345   0.5634     C
C      0.67564  0.59345   0.4366     C
H       0.6759   0.0834   0.1966     H
H       0.6759   0.2475   0.7732     H
H       0.6759   0.5834   0.8034     H
H       0.6759   0.7475   0.2268     H
H       0.6763   0.4197   0.8447     H
H       0.6763   0.9197   0.1553     H
C      0.67654  0.06044   0.9474     C
C      0.67654  0.56044   0.0526     C
H       0.6779   0.0979   0.5098     H
H       0.6779   0.5979   0.4902     H
H       0.6786   0.3891   0.3132     H
H       0.6786   0.8891   0.6868     H
C      0.68061  0.40407   0.1609     C
C      0.68061  0.90407   0.8391     C
C      0.68228  0.15567   0.9062     C
C      0.68228  0.65567   0.0938     C
O      0.68264  0.30058  0.86152     O
O      0.68264  0.80058  0.13848     O
O      0.68302  0.13526  0.85026     O
O      0.68302  0.63526  0.14974     O
C      0.68307  0.26948   0.8783     C
C      0.68307  0.76948   0.1217     C
C      0.68334   0.4559   0.7685     C
C      0.68334   0.9559   0.2315     C
C       0.6839   0.2056   0.5677     C
C       0.6839   0.7056   0.4323     C
H       0.6846   0.3134   0.5445     H
H       0.6846   0.8134   0.4555     H
C      0.68464  0.32574   0.5937     C
C      0.68464  0.82574   0.4063     C
C      0.68601  0.40251   0.0827     C
C      0.68601  0.90251   0.9173     C
C      0.68956  0.42654   0.8026     C
C      0.68956  0.92654   0.1974     C
C      0.69119  0.36165   0.5766     C
C      0.69119  0.86165   0.4234     C
H       0.6913    0.187   0.5355     H
H       0.6913    0.687   0.4645     H
N      0.69141  0.10568   0.6931     N
N      0.69141  0.60568   0.3069     N
H       0.6915    0.374   0.6258     H
H       0.6915    0.874   0.3742     H
H       0.6916   0.3284   0.3361     H
H       0.6916   0.8284   0.6639     H
H        0.692   0.3603   0.2108     H
H        0.692   0.8603   0.7892     H
H       0.6925    0.245    0.486     H
H       0.6925    0.745    0.514     H
C      0.69359  0.11059   0.6167     C
C      0.69359  0.61059   0.3833     C
H       0.6963   0.4158   0.4979     H
H       0.6963   0.9158   0.5021     H
C      0.69637  0.02292   0.0711     C
C      0.69637  0.52292   0.9289     C
N      0.69781   0.2582   0.9394     N
N      0.69781   0.7582   0.0606     N
H       0.6983   0.4866   0.6836     H
H       0.6983   0.9866   0.3164     H
C       0.7003    0.383   0.2158     C
C       0.7003    0.883   0.7842     C
C       0.7011  0.39021   0.2923     C
C       0.7011  0.89021   0.7077     C
O      0.70155  0.36759  0.87546     O
O      0.70155  0.86759  0.12454     O
C      0.70235  0.46598   0.7069     C
C      0.70235  0.96598   0.2931     C
H       0.7024   0.3884   0.0626     H
H       0.7024   0.8884   0.9374     H
H       0.7028   0.2889   0.6647     H
H       0.7028   0.7889   0.3353     H
O      0.70326  0.17503  0.72398     O
O      0.70326  0.67503  0.27602     O
H       0.7035   0.0104   0.1141     H
H       0.7035   0.5104   0.8859     H
H        0.704   0.1458   0.2874     H
H        0.704   0.6458   0.7126     H
H       0.7042   0.2322   0.6623     H
H       0.7042   0.7322   0.3377     H
C       0.7059  0.06666   0.9815     C
C       0.7059  0.56666   0.0185     C
N      0.70636  0.17627   0.9206     N
N      0.70636  0.67627   0.0794     N
H       0.7069   0.1392    0.078     H
H       0.7069   0.6392    0.922     H
H       0.7084   0.1268   0.5984     H
H       0.7084   0.6268   0.4016     H
Mn     0.70885  0.32646  0.93184    Mn
Mn     0.70885  0.82646  0.06816    Mn
H        0.709   0.4129   0.2988     H
H        0.709   0.9129   0.7012     H
C      0.71015   0.3109    0.648     C
C      0.71015   0.8109    0.352     C
Mn     0.71193   0.2106   0.9967    Mn
Mn     0.71193   0.7106   0.0033    Mn
H       0.7122   0.3248   0.6947     H
H       0.7122   0.8248   0.3053     H
C      0.71221  0.21509   0.6265     C
C      0.71221  0.71509   0.3735     C
C       0.7124   0.3357   0.3535     C
C       0.7124   0.8357   0.6465     C
H        0.713   0.3638   0.5524     H
H        0.713   0.8638   0.4476     H
N      0.71335  0.28403     0.98     N
N      0.71335  0.78403     0.02     N
H       0.7139   0.1986   0.2447     H
H       0.7139   0.6986   0.7553     H
C      0.71495  0.40617   0.7772     C
C      0.71495  0.90617   0.2228     C
C      0.71598  0.04765   0.0431     C
C      0.71598  0.54765   0.9569     C
C      0.71732  0.15987   0.3177     C
C      0.71732  0.65987   0.6823     C
H       0.7193   0.0839   0.9631     H
H       0.7193   0.5839   0.0369     H
Mn     0.72013   0.1371  0.77725    Mn
Mn     0.72013   0.6371  0.22275    Mn
C      0.72038  0.37521   0.8181     C
C      0.72038  0.87521   0.1819     C
C       0.7228  0.36758   0.3385     C
C       0.7228  0.86758   0.6615     C
C      0.72284  0.19115   0.2922     C
C      0.72284  0.69115   0.7078     C
H       0.7231   0.3829    0.197     H
H       0.7231   0.8829    0.803     H
C      0.72314  0.18603   0.6722     C
C      0.72314  0.68603   0.3278     C
O       0.7244   0.2455  0.07103     O
O       0.7244   0.7455  0.92897     O
H       0.7253   0.1266   0.4015     H
H       0.7253   0.6266   0.5985     H
H       0.7254   0.2932    0.404     H
H       0.7254   0.7932    0.596     H
C      0.72652  0.27482    0.046     C
C      0.72652  0.77482    0.954     C
C      0.72708  0.44637   0.6789     C
C      0.72708  0.94637   0.3211     C
C      0.72781    0.146   0.0959     C
C      0.72781    0.646   0.9041     C
C      0.73022  0.14824   0.3851     C
C      0.73022  0.64824   0.6149     C
H        0.731   0.2241   0.5975     H
H        0.731   0.7241   0.4025     H
C      0.73272  0.31485   0.3939     C
C      0.73272  0.81485   0.6061     C
N      0.73389  0.17153   0.8718     N
N      0.73389  0.67153   0.1282     N
C      0.73405  0.41588   0.7133     C
C      0.73405  0.91588   0.2867     C
O        0.736  0.34498   0.0067     O
O        0.736  0.84498   0.9933     O
H       0.7366   0.0517   0.0664     H
H       0.7366   0.5517   0.9336     H
N      0.73827   0.1765   0.0812     N
N      0.73827   0.6765   0.9188     N
H       0.7387   0.1034   0.1476     H
H       0.7387   0.6034   0.8524     H
H       0.7396   0.4535   0.6359     H
H       0.7396   0.9535   0.3641     H
O      0.74169  0.10081  0.81712     O
O      0.74169  0.60081  0.18288     O
C      0.74192  0.21161   0.3378     C
C      0.74192  0.71161   0.6622     C
C      0.74288  0.30808   0.6096     C
C      0.74288  0.80808   0.3904     C
C      0.74456  0.29877   0.0925     C
C      0.74456  0.79877   0.9075     C
N      0.74495  0.35622   0.7983     N
N      0.74495  0.85622   0.2017     N
H       0.7459   0.2334   0.3209     H
H       0.7459   0.7334   0.6791     H
O      0.74633  0.28661  0.55571     O
O      0.74633  0.78661  0.44429     O
C      0.74705  0.12461   0.1366     C
C      0.74705  0.62461   0.8634     C
C      0.74912  0.33182   0.0695     C
C      0.74912  0.83182   0.9305     C
N      0.74935  0.32813   0.8446     N
N      0.74935  0.82813   0.1554     N
N      0.75065  0.17187   0.6554     N
N      0.75065  0.67187   0.3446     N
C      0.75088  0.16818   0.4305     C
C      0.75088  0.66818   0.5695     C
C      0.75295  0.37539   0.3634     C
C      0.75295  0.87539   0.6366     C
O      0.75367  0.21339  0.94429     O
O      0.75367  0.71339  0.05571     O
H       0.7541   0.2666   0.1791     H
H       0.7541   0.7666   0.8209     H
N      0.75505  0.14378   0.7017     N
N      0.75505  0.64378   0.2983     N
C      0.75544  0.20123   0.4075     C
C      0.75544  0.70123   0.5925     C
C      0.75712  0.19192   0.8904     C
C      0.75712  0.69192   0.1096     C
C      0.75808  0.28839   0.1622     C
C      0.75808  0.78839   0.8378     C
O      0.75831  0.39919  0.68288     O
O      0.75831  0.89919  0.31712     O
H       0.7604   0.0465   0.8641     H
H       0.7604   0.5465   0.1359     H
H       0.7613   0.3966   0.3524     H
H       0.7613   0.8966   0.6476     H
N      0.76173   0.3235   0.4188     N
N      0.76173   0.8235   0.5812     N
H       0.7634   0.4483   0.4336     H
H       0.7634   0.9483   0.5664     H
O        0.764  0.15502   0.4933     O
O        0.764  0.65502   0.5067     O
C      0.76595  0.08412   0.7867     C
C      0.76595  0.58412   0.2133     C
N      0.76611  0.32847   0.6282     N
N      0.76611  0.82847   0.3718     N
C      0.76728  0.18515   0.1061     C
C      0.76728  0.68515   0.8939     C
H        0.769   0.2759   0.9025     H
H        0.769   0.7759   0.0975     H
C      0.76978  0.35176   0.1149     C
C      0.76978  0.85176   0.8851     C
C      0.77219    0.354   0.4041     C
C      0.77219    0.854   0.5959     C
C      0.77292  0.05363   0.8211     C
C      0.77292  0.55363   0.1789     C
C      0.77348  0.22518    0.454     C
C      0.77348  0.72518    0.546     C
H       0.7746   0.2068    0.096     H
H       0.7746   0.7068    0.904     H
H       0.7747   0.3734   0.0985     H
H       0.7747   0.8734   0.9015     H
O       0.7756   0.2545  0.42897     O
O       0.7756   0.7545  0.57103     O
C      0.77686  0.31397   0.8278     C
C      0.77686  0.81397   0.1722     C
H       0.7769   0.1171    0.303     H
H       0.7769   0.6171    0.697     H
C      0.77716  0.30885   0.2078     C
C      0.77716  0.80885   0.7922     C
C       0.7772  0.13242   0.1615     C
C       0.7772  0.63242   0.8385     C
C      0.77962  0.12479   0.6819     C
C      0.77962  0.62479   0.3181     C
Mn     0.77987   0.3629  0.72275    Mn
Mn     0.77987   0.8629  0.27725    Mn
H       0.7807   0.4161   0.5369     H
H       0.7807   0.9161   0.4631     H
C      0.78268  0.34013   0.1823     C
C      0.78268  0.84013   0.8177     C
C      0.78402  0.45235   0.4569     C
C      0.78402  0.95235   0.5431     C
C      0.78505  0.09383   0.7228     C
C      0.78505  0.59383   0.2772     C
H       0.7861   0.3014   0.2553     H
H       0.7861   0.8014   0.7447     H
N      0.78665  0.21597     0.52     N
N      0.78665  0.71597     0.48     N
H        0.787   0.1362   0.9476     H
H        0.787   0.6362   0.0524     H
C       0.7876   0.1643   0.1465     C
C       0.7876   0.6643   0.8535     C
C      0.78779  0.28491   0.8735     C
C      0.78779  0.78491   0.1265     C
H       0.7878   0.1752   0.8053     H
H       0.7878   0.6752   0.1947     H
Mn     0.78807   0.2894   0.5033    Mn
Mn     0.78807   0.7894   0.4967    Mn
C      0.78985   0.1891    0.852     C
C      0.78985   0.6891    0.148     C
H        0.791   0.0871   0.2012     H
H        0.791   0.5871   0.7988     H
Mn     0.79115  0.17354  0.56816    Mn
Mn     0.79115  0.67354  0.43184    Mn
H       0.7916   0.3732   0.9016     H
H       0.7916   0.8732   0.0984     H
H       0.7931   0.3608    0.422     H
H       0.7931   0.8608    0.578     H
N      0.79364  0.32373   0.5794     N
N      0.79364  0.82373   0.4206     N
C       0.7941  0.43334   0.5185     C
C       0.7941  0.93334   0.4815     C
H       0.7958   0.2678   0.8377     H
H       0.7958   0.7678   0.1623     H
H        0.796   0.3542   0.2126     H
H        0.796   0.8542   0.7874     H
H       0.7965   0.4896   0.3859     H
H       0.7965   0.9896   0.6141     H
O      0.79674  0.32497  0.77602     O
O      0.79674  0.82497  0.22398     O
H       0.7972   0.2111   0.8353     H
H       0.7972   0.7111   0.1647     H
H       0.7976   0.1116   0.4374     H
H       0.7976   0.6116   0.5626     H
C      0.79765  0.03402   0.7931     C
C      0.79765  0.53402   0.2069     C
O      0.79845  0.13241  0.62454     O
O      0.79845  0.63241  0.37546     O
C       0.7989  0.10979   0.2077     C
C       0.7989  0.60979   0.7923     C
C       0.7997    0.117   0.2842     C
C       0.7997    0.617   0.7158     C
H       0.8017   0.0134   0.8164     H
H       0.8017   0.5134   0.1836     H
N      0.80219   0.2418   0.5606     N
N      0.80219   0.7418   0.4394     N
C      0.80363  0.47708   0.4289     C
C      0.80363  0.97708   0.5711     C
H       0.8037   0.0842   0.0021     H
H       0.8037   0.5842   0.9979     H
C      0.80641  0.38941   0.8833     C
C      0.80641  0.88941   0.1167     C
H       0.8075    0.255    0.014     H
H       0.8075    0.755    0.986     H
H        0.808   0.1397   0.2892     H
H        0.808   0.6397   0.7108     H
H       0.8084   0.1716   0.1639     H
H       0.8084   0.6716   0.8361     H
H       0.8085    0.126   0.8742     H
H       0.8085    0.626   0.1258     H
N      0.80859  0.39432   0.8069     N
N      0.80859  0.89432   0.1931     N
H       0.8087    0.313   0.9645     H
H       0.8087    0.813   0.0355     H
C      0.80881  0.13835   0.9234     C
C      0.80881  0.63835   0.0766     C
C      0.81044  0.07346   0.6974     C
C      0.81044  0.57346   0.3026     C
C      0.81399  0.09749   0.4173     C
C      0.81399  0.59749   0.5827     C
C      0.81536  0.17426   0.9063     C
C      0.81536  0.67426   0.0937     C
H       0.8154   0.1866   0.9555     H
H       0.8154   0.6866   0.0445     H
C       0.8161   0.2944   0.9323     C
C       0.8161   0.7944   0.0677     C
C      0.81666   0.0441   0.7315     C
C      0.81666   0.5441   0.2685     C
C      0.81693  0.23052   0.6217     C
C      0.81693  0.73052   0.3783     C
O      0.81698  0.36474  0.64974     O
O      0.81698  0.86474  0.35026     O
O      0.81736  0.19942  0.63848     O
O      0.81736  0.69942  0.36152     O
C      0.81772  0.34433   0.5938     C
C      0.81772  0.84433   0.4062     C
C      0.81939  0.09593   0.3391     C
C      0.81939  0.59593   0.6609     C
H       0.8214   0.1109   0.1868     H
H       0.8214   0.6109   0.8132     H
H       0.8221   0.4021   0.9902     H
H       0.8221   0.9021   0.0098     H
C      0.82346  0.43956   0.5526     C
C      0.82346  0.93956   0.4474     C
H       0.8237   0.0803   0.6553     H
H       0.8237   0.5803   0.3447     H
H       0.8241   0.2525   0.7268     H
H       0.8241   0.4166   0.3034     H
H       0.8241   0.7525   0.2732     H
H       0.8241   0.9166   0.6966     H
C      0.82436  0.40655   0.9366     C
C      0.82436  0.90655   0.0634     C
C       0.8271   0.2646    0.989     C
C       0.8271   0.7646    0.011     C
C       0.8272   0.0869   0.9921     C
C       0.8272   0.5869   0.0079     C
H       0.8279     0.08   0.5203     H
H       0.8279     0.58   0.4797     H
C      0.82862  0.41773   0.7836     C
C      0.82862  0.91773   0.2164     C
H       0.8294   0.4104    0.213     H
H       0.8294   0.9104    0.787     H
O      0.82945  0.29772   0.4633     O
O      0.82945  0.79772   0.5367     O
H         0.83   0.4221   0.7297     H
H         0.83   0.9221   0.2703     H
H       0.8303   0.4263   0.5947     H
H       0.8303   0.9263   0.4053     H
H       0.8306   0.2277   0.0865     H
H       0.8306   0.7277   0.9135     H
H       0.8322    0.276   0.6553     H
H       0.8322    0.776   0.3447     H
C      0.83227  0.07862   0.4664     C
C      0.83227  0.57862   0.5336     C
H       0.8334   0.0741   0.9466     H
H       0.8334   0.5741   0.0534     H
H       0.8339   0.0307   0.7131     H
H       0.8339   0.5307   0.2869     H
C      0.83412  0.48405   0.4633     C
C      0.83412  0.98405   0.5367     C
H       0.8342   0.4463   0.2479     H
H       0.8342   0.9463   0.7521     H
C      0.83442  0.25341    0.675     C
C      0.83442  0.75341    0.325     C
C      0.83455   0.1231   0.9773     C
C      0.83455   0.6231   0.0227     C
H       0.8347   0.1351   0.0271     H
H       0.8347   0.6351   0.9729     H
H       0.8354   0.3018   0.9026     H
H       0.8354   0.8018   0.0974     H
C       0.8369   0.4228   0.2579     C
C       0.8369   0.9228   0.7421     C
H       0.8371    0.459   0.0488     H
H       0.8371    0.959   0.9512     H
H       0.8373   0.1765   0.8826     H
H       0.8373   0.6765   0.1174     H
H       0.8374   0.2916   0.0773     H
H       0.8374   0.7916   0.9227     H
H       0.8378   0.2472   0.9582     H
H       0.8378   0.7472   0.0418     H
H       0.8396   0.0794    0.037     H
H       0.8396   0.5794    0.963     H
C      0.84345  0.07436   0.3134     C
C      0.84345  0.57436   0.6866     C
C      0.84383  0.46495   0.5272     C
C      0.84383  0.96495   0.4728     C
C      0.84593  0.43061   0.9109     C
C      0.84593  0.93061   0.0891     C
C      0.84632  0.34398   0.5411     C
C      0.84632  0.84398   0.4589     C
C       0.8474   0.2752   0.0424     C
C       0.8474   0.7752   0.9576     C
C      0.84749  0.43601   0.8327     C
C      0.84749  0.93601   0.1673     C
H       0.8479   0.0721   0.2598     H
H       0.8479   0.5721   0.7402     H
C      0.85023  0.32156   0.4803     C
C      0.85023  0.82156   0.5197     C
O      0.85081  0.00831  0.56712     O
O      0.85081  0.50831  0.43288     O
C       0.8518   0.2387   0.0838     C
C       0.8518   0.7387   0.9162     C
H       0.8534   0.0113   0.8976     H
H       0.8534   0.5113   0.1024     H
N      0.85568  0.05859   0.4431     N
N      0.85568  0.55859   0.5569     N
H       0.8565   0.1253   0.9535     H
H       0.8565   0.6253   0.0465     H
C      0.85979   0.4511   0.0423     C
C      0.85979   0.9511   0.9577     C
C      0.86059  0.05641   0.3667     C
C      0.86059  0.55641   0.6333     C
H       0.8606   0.2414   0.1361     H
H       0.8606   0.7414   0.8639     H
H       0.8609   0.4286   0.0632     H
H       0.8609   0.9286   0.9368     H
H       0.8616   0.4524   0.8126     H
H       0.8616   0.9524   0.1874     H
H        0.862   0.1624    0.737     H
H        0.862   0.6624    0.263     H
H       0.8662   0.1172   0.6585     H
H       0.8662   0.6172   0.3415     H
H       0.8669   0.2254    0.053     H
H       0.8669   0.7254    0.947     H
C        0.867   0.4503   0.9658     C
C        0.867   0.9503   0.0342     C
H       0.8671   0.4731    0.947     H
H       0.8671   0.9731    0.053     H
H       0.8672   0.3838   0.5915     H
H       0.8672   0.8838   0.4085     H
H       0.8681   0.2838   0.0206     H
H       0.8681   0.7838   0.9794     H
C      0.87005  0.36842    0.551     C
C      0.87005  0.86842    0.449     C
C      0.87024  0.24507   0.6825     C
C      0.87024  0.74507   0.3175     C
H       0.8725    0.222   0.6985     H
H       0.8725    0.722   0.3015     H
C       0.8731  0.41545   0.2727     C
C       0.8731  0.91545   0.7273     C
C      0.87461  0.00295   0.8866     C
C      0.87461  0.50295   0.1134     C
C      0.87479  0.47038   0.5681     C
C      0.87479  0.97038   0.4319     C
H       0.8753   0.3935   0.2965     H
H       0.8753   0.8935   0.7035     H
H        0.876   0.4415   0.3758     H
H        0.876   0.9415   0.6242     H
H       0.8766   0.0247   0.1515     H
H       0.8766   0.5247   0.8485     H
H       0.8768   0.0416   0.3484     H
H       0.8768   0.5416   0.6516     H
C       0.8786  0.32374   0.4342     C
C       0.8786  0.82374   0.5658     C
C      0.87898  0.14694    0.745     C
C      0.87898  0.64694    0.255     C
H       0.8797   0.2351   0.5672     H
H       0.8797   0.7351   0.4328     H
H       0.8802   0.2589   0.7231     H
H       0.8802   0.7589   0.2769     H
C      0.88158  0.12005    0.699     C
C      0.88158  0.62005    0.301     C
H       0.8822   0.3082   0.3942     H
H       0.8822   0.8082   0.6058     H
O      0.88241  0.45155  0.62546     O
O      0.88241  0.95155  0.37454     O
C      0.88242   0.4728   0.0885     C
C      0.88242   0.9728   0.9115     C
H       0.8845   0.2729   0.5881     H
H       0.8845   0.7729   0.4119     H
H       0.8851   0.4153   0.2229     H
H       0.8851   0.9153   0.7771     H
O      0.88526  0.06698  0.60026     O
O      0.88526  0.56698  0.39974     O
H       0.8862    0.463   0.3024     H
H       0.8862    0.963   0.6976     H
Mn      0.8871  0.02987  0.52725    Mn
Mn      0.8871  0.52987  0.47275    Mn
C      0.88835  0.44119   0.3266     C
C      0.88835  0.94119   0.6734     C
C      0.88848  0.25033   0.6065     C
C      0.88848  0.75033   0.3935     C
H       0.8892   0.0431    0.828     H
H       0.8892   0.5431    0.172     H
H       0.8897    0.442   0.9608     H
H       0.8897    0.942   0.0392     H
N      0.89378  0.49495   0.5483     N
N      0.89378  0.99495   0.4517     N
H       0.8958    0.046   0.0374     H
H       0.8958    0.546   0.9626     H
C        0.896  0.02219   0.8459     C
C        0.896  0.52219   0.1541     C
C      0.89694  0.37102    0.505     C
C      0.89694  0.87102    0.495     C
C      0.89824  0.01978   0.1351     C
C      0.89824  0.51978   0.8649     C
H       0.9002   0.1701   0.8351     H
H       0.9002   0.6701   0.1649     H
C      0.90129  0.34845   0.4469     C
C      0.90129  0.84845   0.5531     C
C      0.90155  0.15129   0.8031     C
C      0.90155  0.65129   0.1969     C
O      0.90502    0.486   0.7567     O
O      0.90502    0.986   0.2433     O
C      0.90567  0.06772   0.6562     C
C      0.90567  0.56772   0.3438     C
C      0.90602  0.09632   0.7089     C
C      0.90602  0.59632   0.2911     C
C      0.90987  0.03268   0.0677     C
C      0.90987  0.53268   0.9323     C
H       0.9124    0.388    0.513     H
H       0.9124    0.888    0.487     H
C       0.9143   0.4624   0.1035     C
C       0.9143   0.9624   0.8965     C
C      0.91818  0.49912   0.8195     C
C      0.91818  0.99912   0.1805     C
H       0.9201   0.3498   0.4149     H
H       0.9201   0.8498   0.5851     H
N      0.92153  0.01611   0.6218     N
N      0.92153  0.51611   0.3782     N
H       0.9216   0.4416   0.0861     H
H       0.9216   0.9416   0.9139     H
N      0.92187  0.49935   0.5946     N
N      0.92187  0.99935   0.4054     N
Mn     0.92354  0.45885  0.68184    Mn
Mn     0.92354  0.95885  0.31816    Mn
C      0.92426  0.43464   0.3437     C
C      0.92426  0.93464   0.6563     C
C        0.925    0.245   0.6142     C
C        0.925    0.745   0.3858     C
O      0.92503  0.04674  0.47398     O
O      0.92503  0.54674  0.52602     O
H       0.9252   0.4622   0.4447     H
H       0.9252   0.9622   0.5553     H
C      0.92626   0.1286   0.8158     C
C      0.92626   0.6286   0.1842     C
N      0.92627  0.04364   0.6706     N
N      0.92627  0.54364   0.3294     N
N       0.9265  0.01173   0.8312     N
H       0.9265   0.4127   0.3674     H
N       0.9265  0.51173   0.1688     N
H       0.9265   0.9127   0.6326     H
C      0.92844  0.10023   0.7697     C
C      0.92844  0.60023   0.2303     C
H        0.929   0.2223   0.6315     H
H        0.929   0.2447   0.4968     H
H        0.929   0.7223   0.3685     H
H        0.929   0.7447   0.5032     H
H       0.9336   0.2599   0.6544     H
H       0.9336   0.7599   0.3456     H
C      0.93515  0.48272   0.1439     C
C      0.93515  0.98272   0.8561     C
C      0.93603  0.02686   0.4222     C
C      0.93603  0.52686   0.5778     C
H       0.9366   0.4346   0.2945     H
H       0.9366   0.9346   0.7055     H
H        0.937   0.0587   0.2855     H
H        0.937   0.5587   0.7145     H
C       0.9391  0.46015    0.398     C
C       0.9391  0.96015    0.602     C
C      0.94115  0.02716   0.0422     C
C      0.94115  0.52716   0.9578     C
H       0.9418   0.1322   0.8558     H
H       0.9418   0.6322   0.1442     H
C      0.94192  0.49288   0.3596     C
C      0.94192  0.99288   0.6404     C
C        0.943   0.2508   0.5406     C
C        0.943   0.7508   0.4594     C
H       0.9482   0.0854   0.3474     H
H       0.9482   0.5854   0.6526     H
H       0.9486   0.0361   0.9947     H
H       0.9486   0.5361   0.0053     H
H       0.9488    0.274   0.5367     H
H       0.9488    0.774   0.4633     H
O      0.94942  0.43264  0.61152     O
O      0.94942  0.93264  0.38848     O
C      0.95123  0.49456   0.8425     C
C      0.95123  0.99456   0.1575     C
O      0.95228  0.07945   0.7867     O
O      0.95228  0.57945   0.2133     O
C       0.9556   0.0661   0.3177     C
C       0.9556   0.5661   0.6823     C
H       0.9568   0.4754    0.154     H
H       0.9568   0.9754    0.846     H
H       0.9584   0.0874   0.1727     H
H       0.9584   0.5874   0.8273     H
Mn      0.9606  0.03807   0.7467    Mn
Mn      0.9606  0.53807   0.2533    Mn
H       0.9611   0.4528   0.4147     H
H       0.9611   0.9528   0.5853     H
C      0.96161  0.00808   0.0878     C
C      0.96161  0.50808   0.9122     C
H       0.9629   0.2375   0.5399     H
H       0.9629   0.7375   0.4601     H
O      0.96339  0.49633  0.30571     O
O      0.96339  0.99633  0.69429     O
C      0.96509  0.03779   0.3765     C
C      0.96509  0.53779   0.6235     C
N      0.96597  0.46335     0.73     N
N      0.96597  0.96335     0.27     N
H       0.9662   0.1181   0.2294     H
H       0.9662   0.6181   0.7706     H
H        0.972   0.3775   0.5515     H
H        0.972   0.8775   0.4485     H
H       0.9723    0.321   0.6185     H
H       0.9723    0.821   0.3815     H
H        0.974   0.0822   0.5947     H
H        0.974   0.5822   0.4053     H
H       0.9741    0.019   0.3475     H
H       0.9741    0.519   0.6525     H
C       0.9748   0.0974   0.2076     C
C       0.9748   0.5974   0.7924     C
C      0.97518  0.47652    0.796     C
C      0.97518  0.97652    0.204     C
H       0.9754   0.3831    0.197     H
H       0.9754   0.8831    0.803     H
H        0.976   0.1988   0.7133     H
H        0.976   0.6988   0.2867     H
H       0.9771   0.1345   0.6619     H
H       0.9771   0.6345   0.3381     H
H       0.9777   0.4194   0.1635     H
H       0.9777   0.9194   0.8365     H
C      0.98052  0.43307   0.6283     C
C      0.98052  0.93307   0.3717     C
H       0.9822   0.0458   0.4123     H
H       0.9822   0.5458   0.5877     H
H       0.9834   0.0041   0.0709     H
H       0.9834   0.5041   0.9291     H
H       0.9851   0.3703   0.6828     H
H       0.9851   0.8703   0.3172     H
C       0.9854   0.0771    0.261     C
C       0.9854   0.5771    0.739     C
H       0.9875   0.2871   0.7101     H
H       0.9875   0.7871   0.2899     H
C       0.9887   0.3982   0.1662     C
C       0.9887   0.8982   0.8338     C
H       0.9901   0.1836   0.5956     H
H       0.9901   0.6836   0.4044     H
H       0.9911   0.1302   0.5269     H
H       0.9911   0.6302   0.4731     H
H       0.9914   0.3894   0.1139     H
H       0.9914   0.8894   0.8861     H
N       0.9918  0.44781   0.6894     N
N       0.9918  0.94781   0.3106     N
H       0.9947    0.321   0.7532     H
H       0.9947    0.821   0.2468     H
H        0.995   0.0575    0.236     H
C        0.995    0.325   0.6358     C
H        0.995   0.5575    0.764     H
C        0.995    0.825   0.3642     C
C      0.99507  0.37976   0.5675     C
C      0.99507  0.87976   0.4325     C
O       0.9955   0.0256  0.82103     O
O       0.9955   0.5256  0.17897     O
C      0.99659  0.08442    0.575     C
C      0.99659  0.58442    0.425     C
H       0.9972   0.4122   0.2918     H
H       0.9972   0.9122   0.7082     H
H       0.9975   0.0741   0.5232     H
H       0.9975   0.5741   0.4768     H
C       0.9992    0.193   0.7094     C
C       0.9992    0.693   0.2906     C
C      0.99967  0.13848   0.6435     C
C      0.99967  0.63848   0.3565     C
