data_I
_chemical_name_common  '/home/zhangsd/repos/MofS-CGCNN/ML/data/SSD/clean_cifs/XALDIY_clean'
_cell_length_a 17.35100
_cell_length_b 30.03740
_cell_length_c 30.03740
_cell_angle_alpha 85.21490
_cell_angle_beta  73.21250
_cell_angle_gamma 73.21250
_space_group_name_H-M_alt      'P 1'


loop_
_space_group_symop_operation_xyz
  'x, y, z' 

loop_
_atom_site_label
_atom_site_fract_x
_atom_site_fract_y
_atom_site_fract_z
_atom_site_type_symbol
C      0.00098  0.14014   0.1403     C
H       0.0015   0.3391   0.5681     H
H       0.0017   0.4286   0.2294     H
Mn     0.00446  0.08409  0.85634    Mn
H       0.0063   0.4379   0.8181     H
C      0.00668  0.76103  0.11821     C
C      0.00684  0.80703  0.12249     C
C      0.00696  0.80359  0.41129     C
O      0.00812  0.07032  0.66782     O
H       0.0099   0.0577   0.1073     H
C      0.01095  0.91673  0.91297     C
H       0.0128    0.774   0.7922     H
C       0.0135   0.3183   0.5941     C
C      0.01458  0.19532  0.19332     C
H       0.0159   0.5736   0.6916     H
C      0.01661  0.09262  0.53836     C
H       0.0169   0.5882   0.2624     H
N      0.01692  0.07813  0.58007     N
O      0.01711  0.31724  0.95168     O
H       0.0176   0.6391   0.8769     H
H       0.0184   0.6643   0.3767     H
H       0.0201   0.7525   0.0173     H
H       0.0213   0.1135   0.1597     H
C      0.02146  0.72328   0.4062     C
H       0.0225    0.905   0.6532     H
H       0.0226    0.575   0.9254     H
H       0.0228   0.4655   0.8899     H
H        0.023    0.925   0.5746     H
H       0.0235   0.2454   0.9012     H
H        0.027   0.1722   0.2172     H
H       0.0275   0.1652   0.5864     H
C      0.02776  0.23122  0.59046     C
O      0.03121  0.95168  0.18276     O
H       0.0321   0.5132   0.4138     H
H       0.0336   0.8609   0.6231     H
H       0.0374   0.9827   0.2525     H
C      0.03809  0.51972   0.0987     C
N      0.03991  0.59472  0.06172     N
C      0.04092  0.15649  0.90327     C
C      0.04266  0.81755  0.82933     C
N      0.04413  0.11234  0.89784     N
O      0.04506  0.12045  0.01601     O
H       0.0464   0.4903   0.0831     H
H       0.0464   0.6943   0.1373     H
O      0.04655  0.87575  0.47091     O
C        0.048  0.72513  0.14067     C
C      0.04901  0.55343  0.75055     C
H       0.0504   0.1458   0.1168     H
H        0.052   0.9254    0.925     H
C      0.05324  0.81647  0.15025     C
C       0.0546  0.87265  0.88435     C
H       0.0553   0.4844    0.159     H
C      0.05532  0.55028  0.17008     C
C      0.05581  0.90327  0.34351     C
N      0.05803  0.89784  0.38766     N
C      0.05907  0.66295  0.02671     C
O      0.05916  0.85831  0.15725     O
C      0.05951  0.55475  0.70363     C
C      0.06105  0.88435  0.62735     C
O      0.06107  0.98399  0.62045     O
C      0.06134  0.08851  0.04681     C
H       0.0634   0.0949   0.7455     H
H       0.0647   0.7911   0.8483     H
H       0.0667   0.1962   0.1698     H
H       0.0673   0.6962   0.6698     H
H       0.0676   0.6073   0.9423     H
H       0.0702   0.0254   0.3018     H
C      0.07059  0.52981  0.41481     C
H       0.0708   0.5166   0.2316     H
H       0.0719   0.0668   0.4726     H
C      0.07232  0.58703  0.91673     C
H       0.0725   0.8468    0.905     H
C      0.07275  0.61565  0.87265     C
C      0.07324  0.58296  0.24096     C
C      0.07455  0.00125  0.23985     C
H       0.0753   0.9012   0.2546     H
H       0.0758   0.5751   0.1509     H
H       0.0758   0.6102   0.2208     H
C       0.0758  0.73985  0.99875     C
C      0.07588  0.50929  0.13995     C
C      0.07608  0.91297  0.58327     C
H       0.0776   0.5107   0.4801     H
O       0.0777  0.02909  0.87575     O
C      0.07816  0.55125  0.06443     C
O      0.07844  0.16782  0.92968     O
H        0.079    0.726   0.7078     H
H       0.0807    0.595   0.8468     H
O      0.08253  0.34275  0.85831     O
H       0.0836   0.6722   0.7172     H
H       0.0853   0.2243   0.5893     H
H       0.0854   0.3674   0.6588     H
H       0.0856   0.6951   0.8235     H
C      0.08578  0.97329  0.16295     C
H       0.0864   0.5555   0.3489     H
H        0.087   0.8483   0.7089     H
H       0.0873   0.8899   0.0345     H
N      0.08778  0.79575  0.40995     N
H       0.0884   0.3077   0.7845     H
Mn     0.08855  0.35634  0.91592    Mn
C      0.09066  0.07478   0.4983     C
H       0.0909   0.8235   0.8049     H
C      0.09251  0.73441  0.16857     C
C      0.09256  0.54076  0.21172     C
N      0.09298  0.61801  0.02983     N
C      0.09337  0.30999  0.59067     C
C      0.09369  0.02649  0.26913     C
N      0.09505  0.08007  0.92187     N
H       0.0956   0.8018   0.9746     H
C       0.0957  0.77902  0.17318     C
C      0.09678  0.69532  0.69332     C
C      0.09708  0.52903  0.45421     C
N      0.10163  0.93828  0.09472     N
H       0.1018   0.1412   0.4742     H
C      0.10198  0.55567  0.37677     C
H       0.1026   0.5254   0.8018     H
H       0.1042   0.8049   0.6765     H
C      0.10424  0.71533  0.40319     C
H       0.1055   0.8769   0.8609     H
Mn     0.10601  0.03608  0.61898    Mn
H       0.1066   0.2908   0.6174     H
O      0.10679  0.37575  0.97091     O
C      0.10792   0.3791  0.62906     C
C      0.10815  0.95319  0.58851     C
C      0.10904  0.00232   0.1914     C
C      0.10923  0.03836  0.90738     C
C      0.11069  0.52649  0.76913     C
H       0.1113   0.4332   0.0274     H
C      0.11136   0.6914  0.99768     C
H       0.1142    0.578   0.2588     H
C      0.11439  0.09399  0.75183     C
C      0.11626  0.35569  0.58999     C
N      0.11647  0.09005  0.79575     N
H       0.1172   0.8927   0.5577     H
H       0.1198   0.0097   0.4169     H
C      0.12018  0.76913  0.97351     C
H       0.1213   0.7097   0.1847     H
H       0.1218   0.9655   0.3899     H
N      0.12281  0.97017  0.11801     N
C      0.12489  0.88179  0.26103     C
C      0.12528  0.32682  0.77902     C
H        0.127   0.2924   0.5618     H
H       0.1271   0.7845   0.1923     H
H       0.1272   0.4337   0.6535     H
H       0.1279   0.0462   0.5076     H
C      0.12801  0.82933  0.68245     C
C      0.12933  0.87751  0.30703     C
H       0.1295   0.9169   0.9903     H
C      0.13029  0.34975  0.81647     C
C      0.13173  0.41901  0.62573     C
C      0.13275  0.52892  0.67318     C
C      0.13378  0.75183  0.40601     C
H       0.1348   0.6597   0.8865     H
N      0.13605  0.06162  0.04362     N
C      0.13679   0.9013  0.01972     C
O      0.13703   0.5321  0.62796     O
H       0.1376   0.4974    0.128     H
H       0.1387   0.9726   0.9332     H
Mn     0.13919  0.85634  0.41592    Mn
C      0.13979  0.67067  0.81755     C
C      0.14016  0.11178   0.4811     C
H       0.1407   0.6846   0.3992     H
C      0.14112   0.6403  0.85986     C
C      0.14128   0.8597  0.64014     C
Mn     0.14209  0.11898  0.96392    Mn
C      0.14259  0.93557  0.05125     C
H       0.1442   0.6517   0.7911     H
C      0.14478  0.37636  0.54828     C
C      0.14701  0.05343  0.25055     C
C      0.14759  0.40738  0.96164     C
H       0.1494   0.3625   0.5199     H
C      0.14985  0.54681  0.91149     C
C      0.15141  0.55421  0.45717     C
H       0.1542   0.5282      0.2     H
C      0.15438  0.58118  0.37846     C
O      0.15507  0.53301  0.03935     O
O      0.15573  0.52075  0.53031     O
N      0.15647  0.39784  0.88766     N
C      0.15651  0.98028   0.4013     C
H       0.1583   0.2455   0.9051     H
H       0.1597   0.0714   0.2706     H
N      0.16064  0.43816  0.58556     N
O       0.1628  0.08168  0.60904     O
H       0.1628   0.1179   0.5059     H
C      0.16374  0.42522   0.0017     C
C      0.16515  0.02892  0.17318     C
C      0.16544   0.9983  0.92522     C
O      0.16551  0.51601  0.87955     O
C      0.16658   0.4167  0.54734     C
H       0.1672   0.8832   0.6458     H
H        0.169   0.3153   0.7097     H
C      0.17308  0.33143  0.73441     C
H       0.1741   0.0076   0.9538     H
H       0.1743   0.5986    0.352     H
H       0.1747   0.1008   0.6846     H
N      0.17512  0.42187  0.91993     N
H       0.1756   0.8181   0.0621     H
C       0.1793  0.58217  0.41883     C
N      0.17967  0.95638  0.56162     N
C      0.18043  0.09681  0.71533     C
C      0.18056  0.54882  0.49866     C
H        0.181   0.8403   0.6135     H
H       0.1817   0.4538   0.9924     H
C      0.18211  0.05475  0.20363     C
H       0.1837   0.8627   0.1943     H
C      0.18435  0.50125  0.73985     C
C      0.18613  0.37751  0.80703     C
H       0.1869   0.0955   0.4117     H
H       0.1869     0.43    0.518     H
H        0.187   0.6458   0.6168     H
C      0.18867  0.85933  0.22513     C
C      0.18945  0.08871  0.80359     C
C      0.18954  0.68245  0.67067     C
H       0.1911   0.7455   0.4051     H
H       0.1927   0.0864   0.8348     H
N      0.19333  0.07158  0.00266     N
C      0.19384  0.94875  0.43557     C
C      0.19407  0.67318  0.97108     C
H       0.1941   0.4045   0.0883     H
O      0.19442  0.96065  0.03301     O
H        0.195   0.7922    0.726     H
N      0.19599  0.99734  0.57158     N
H       0.1962   0.6168   0.8542     H
N      0.19635  0.90528  0.43828     N
C      0.19724  0.50232   0.6914     C
C      0.19741  0.40327  0.84351     C
N      0.19767  0.54362  0.93838     N
H       0.1987   0.0156    0.341     H
H       0.1992   0.7172   0.8278     H
C      0.20044  0.75055  0.94657     C
O      0.20291   0.0321  0.12796     O
C      0.20349  0.84975  0.31647     C
H       0.2041   0.7089   0.6517     H
Mn     0.20412  0.57793  0.00101    Mn
Mn     0.20513  0.99899  0.07793    Mn
H       0.2055   0.6135   0.6597     H
N      0.20652  0.29575  0.90995     N
C       0.2079  0.80668  0.69532     C
C      0.20838  0.25183  0.90601     C
C       0.2099  0.69332  0.80468     C
C      0.21174  0.09486  0.43766     C
H       0.2132   0.7078    0.774     H
O      0.21397  0.81724  0.45168     O
H       0.2143    0.841   0.9844     H
C      0.21583  0.86005  0.00929     C
O      0.21641  0.84275  0.35831     O
H       0.2172   0.3588   0.0258     H
Mn     0.21795  0.49899  0.57793    Mn
C      0.21858  0.64014   0.6403     C
H       0.2189   0.0736   0.1916     H
H       0.2193   0.6535   0.0663     H
H       0.2193   0.6765   0.6951     H
C      0.22512  0.99071  0.36005     C
C       0.2254  0.82992  0.05028     C
H       0.2267   0.8491   0.0751     H
C      0.22687  0.35933  0.72513     C
H       0.2271    0.148   0.5986     H
H       0.2274   0.4827   0.7525     H
O      0.22743  0.96699  0.46065     O
O      0.22816  0.60904  0.41832     O
H       0.2311   0.7706   0.9286     H
C      0.23229  0.38179  0.76103     C
N      0.23243  0.57158  0.50266     N
C      0.23304  0.38822   0.0189     C
O      0.23501  0.62796   0.9679     O
H       0.2365   0.8302   0.6962     H
C      0.23686  0.70363  0.94525     C
H       0.2377   0.9379   0.3181     H
C      0.23853  0.08117  0.58217     C
H       0.2397   0.0619   0.4427     H
H       0.2402   0.1481   0.4173     H
N      0.24082  0.88199  0.47017     N
C      0.24254  0.62573  0.08099     C
H       0.2428   0.3723   0.3909     H
H        0.243   0.9742   0.8588     H
H       0.2442   0.7828   0.6722     H
C      0.24426  0.40514  0.06234     C
H       0.2443   0.4381   0.0573     H
O      0.24448  0.10904  0.91832     O
O      0.24626  0.42968  0.83218     O
H       0.2469   0.3858   0.4404     H
C      0.24873  0.83705  0.47329     C
C      0.25194   0.9811  0.88822     C
N       0.2538  0.58556  0.06184     N
C      0.25526   0.0938  0.72328     C
H       0.2558   0.6588   0.1326     H
H       0.2586   0.4507   0.3839     H
N      0.25871  0.56162  0.54362     N
C      0.25898  0.09046  0.76878     C
H       0.2593   0.3627   0.6943     H
Mn     0.26107  0.46392  0.88102    Mn
C      0.26108  0.83143  0.23441     C
H       0.2629   0.6698   0.8038     H
H        0.263   0.0026    0.372     H
C      0.26302  0.62906   0.1209     C
C      0.26444  0.12154  0.58118     C
N      0.26491  0.50266  0.92842     N
H       0.2656    0.872   0.9974     H
H       0.2663   0.4059   0.1473     H
C       0.2665   0.1155   0.4247     C
C      0.26888  0.82682  0.27902     C
H       0.2689   0.4012   0.7546     H
C      0.27062  0.00134  0.54882     C
C      0.27196  0.04882  0.99866     C
Mn     0.27501  0.61898  0.46392    Mn
H       0.2755   0.1846   0.8992     H
C      0.27568  0.94972  0.32992     C
H        0.276   0.6174   0.2092     H
C      0.27724  0.21533  0.90319     C
C      0.27798  0.47329  0.66295     C
C      0.27816  0.30359  0.91129     C
C       0.2786   0.3793   0.4077     C
H       0.2791   0.3348   0.9136     H
H       0.2793   0.7376   0.0882     H
H       0.2807   0.0059   0.8821     H
H       0.2824   0.9117   0.9045     H
Mn     0.28306  0.92207  0.49899    Mn
H       0.2856   0.9337   0.1535     H
C      0.28608  0.54734   0.0833     C
H       0.2866   0.3821   0.9941     H
N      0.28901  0.47017  0.61801     N
H       0.2899   0.7475   0.4827     H
H       0.2907   0.1161   0.4507     H
H       0.2925   0.6916   0.9264     H
O      0.29321  0.02075  0.03031     O
C      0.29375  0.58999  0.14431     C
C      0.29438  0.04283  0.55421     C
H       0.2951    0.518     0.07     H
H       0.2966   0.7792   0.1102     H
C      0.30044   0.8086  0.50232     C
H       0.3016   0.9427   0.9381     H
H       0.3018   0.9249   0.3491     H
H       0.3024   0.7684   0.0166     H
C      0.30334  0.58851  0.54681     C
C      0.30428  0.78828  0.04076     C
H       0.3056   0.3519   0.0827     H
H        0.306   0.8153   0.2097     H
C       0.3066  0.93766  0.90514     C
C       0.3067   0.3845   0.0753     C
C      0.30694  0.54828  0.12364     C
H       0.3078   0.2412    0.578     H
C       0.3088   0.4247   0.3845     C
H       0.3096   0.0893   0.7757     H
H       0.3112   0.5618   0.2076     H
C       0.3116  0.62735  0.61565     C
O      0.31192  0.46065  0.53301     O
H       0.3127   0.4404   0.1142     H
C       0.3137   0.4077   0.1207     C
O      0.31396  0.53031  0.97925     O
H        0.314   0.2792   0.6102     H
C       0.3142  0.75904  0.08296     C
C       0.3144  0.76015  0.50125     C
N      0.31564  0.93816  0.08556     N
C      0.31596  0.59067  0.19001     C
H       0.3173   0.1233   0.6643     H
H       0.3176      0.3   0.5282     H
H       0.3176   0.4427   0.4381     H
O      0.31848  0.62045  0.51601     O
H        0.319   0.9834   0.2684     H
H       0.3194   0.8077   0.2845     H
H       0.3195   0.0941   0.3527     H
C       0.3197  0.08217  0.91883     C
C      0.32078  0.49866  0.95118     C
O      0.32352  0.96969  0.52075     O
C      0.32353  0.91901  0.12573     C
O      0.32406  0.66782  0.42968     O
H       0.3243   0.6532    0.595     H
H       0.3251   0.5577   0.6073     H
H       0.3254   0.5893   0.2757     H
H       0.3278   0.3527   0.4059     H
H       0.3299   0.7454   0.4012     H
H       0.3307   0.5199   0.1375     H
O      0.33087  0.87204   0.5321     O
H       0.3313   0.5059   0.3821     H
C       0.3318   0.0941   0.6817     C
O      0.33435  0.45168  0.68276     O
C      0.33721  0.05421  0.95717     C
C      0.33833  0.82682  0.52892     C
H       0.3406   0.0681   0.6609     H
C      0.34065  0.58327  0.58703     C
C       0.3421   0.0923   0.3793     C
C      0.34235  0.12323  0.55567     C
H       0.3425   0.4173   0.3519     H
H       0.3433   0.6231   0.6391     H
C       0.3438  0.25904  0.58296     C
C      0.34504  0.95924  0.28828     C
C      0.34906  0.22328   0.9062     C
H       0.3491   0.3491   0.5751     H
C      0.34944  0.26878  0.90954     C
C       0.3506  0.43766  0.40514     C
O      0.35352  0.41832  0.89096     O
H       0.3542      0.8   0.0282     H
H       0.3575   0.3839   0.0493     H
H       0.3581   0.1511   0.5555     H
C      0.36282  0.73087  0.52649     C
H       0.3645   0.5076   0.4538     H
H        0.365    0.372   0.4974     H
H       0.3651     0.93    0.018     H
N      0.36537  0.43828  0.59472     N
H       0.3663   0.3909   0.1277     H
C      0.36668  0.28828  0.54076     C
H       0.3673   0.0596   0.3858     H
H       0.3675   0.9118   0.2376     H
C      0.36938   0.9167  0.04734     C
C      0.37059  0.43557  0.55125     C
H        0.372   0.6982   0.5254     H
H        0.373   0.7412    0.078     H
C      0.37389  0.04579  0.52903     C
H       0.3751   0.0986    0.852     H
H        0.378   0.8057   0.3627     H
C      0.37874   0.4811  0.38822     C
C      0.38178  0.59046  0.26878     C
C        0.382   0.9247   0.8845     C
H       0.3824   0.9718      0.3     H
H       0.3831    0.982     0.43     H
C      0.38392   0.8791  0.12906     C
H       0.3849   0.1091   0.3723     H
C      0.38574  0.79637  0.55475     C
C      0.38592  0.73897  0.38179     C
C      0.38598  0.08118  0.87846     C
H       0.3861   0.5864   0.3348     H
H       0.3883   0.9173   0.8519     H
H       0.3884   0.8674   0.1588     H
C      0.39142  0.45717  0.94579     C
C       0.3924   0.5941   0.1817     C
C       0.3944  0.32992  0.55028     C
H       0.3949   0.2376   0.5882     H
H       0.3951   0.6233   0.1643     H
H       0.3961   0.2845   0.6923     H
C      0.39716  0.91704  0.25904     C
H       0.3974   0.1174   0.7092     H
C      0.39756  0.74945  0.55343     C
H       0.3989   0.2757   0.9107     H
C      0.39932  0.65649  0.40327     C
C       0.3996  0.08519  0.52981     C
N       0.4012  0.91444  0.43816     N
H       0.4014   0.4117   0.4045     H
C      0.40187  0.41883  0.91783     C
H       0.4024   0.5746    0.575     H
N      0.40301  0.58007  0.42187     N
C      0.40336  0.09067  0.69001     C
H       0.4038   0.4051   0.7545     H
H       0.4068   0.8898   0.2792     H
H       0.4068   0.9507   0.8839     H
H       0.4087   0.1609   0.9319     H
H       0.4105   0.8084   0.5736     H
C      0.41104   0.4983  0.42522     C
H       0.4117   0.0199   0.5107     H
H       0.4126   0.2684   0.5166     H
H       0.4136   0.8527   0.9059     H
C       0.4138  0.77487  0.35933     C
C      0.41483  0.36005  0.50929     C
C      0.41672  0.95266   0.4167     C
C      0.41825  0.58871  0.30359     C
H       0.4194   0.0618   0.7076     H
C      0.41968  0.02903  0.95421     C
H        0.424   0.4742   0.3588     H
O      0.42528  0.35831  0.65725     O
C       0.4259   0.1817   0.9059     C
H       0.4269   0.8858   0.9404     H
C      0.42766   0.5938  0.22328     C
H       0.4303   0.7294   0.5714     H
H       0.4304   0.5681   0.1609     H
C      0.43058  0.87636  0.04828     C
H       0.4316   0.0107   0.9801     H
C       0.4344   0.8793   0.9077     C
H       0.4353   0.6511   0.0555     H
C      0.43636  0.69297  0.37751     C
C      0.43806  0.85569  0.08999     C
H       0.4391   0.8465   0.4337     H
H       0.4406   0.1643   0.8767     H
C      0.44219   0.4013  0.51972     C
H       0.4423   0.4801   0.9893     H
H       0.4442   0.3181   0.5621     H
Mn      0.4449  0.41591  0.64366    Mn
C      0.44503  0.53836  0.40738     C
N      0.44569  0.61234  0.39784     N
H       0.4459   0.5862   0.0132     H
C      0.44871  0.45421  0.97097     C
C      0.44926  0.87427  0.41901     C
H        0.451    0.922   0.2412     H
C       0.4521  0.27902  0.67318     C
H       0.4528   0.1588   0.6326     H
H       0.4547   0.0862   0.5132     H
H       0.4555   0.4726   0.4332     H
H       0.4591   0.9868   0.0862     H
H       0.4601   0.3992   0.8154     H
C      0.46021  0.40601  0.74817     C
H       0.4603    0.341   0.4844     H
H       0.4633   0.4169   0.4903     H
C      0.46558  0.05567  0.87677     C
C      0.46716  0.37846  0.91882     C
H       0.4682   0.8625   0.0199     H
C      0.47195  0.08999  0.64431     C
H       0.4737    0.352   0.9014     H
C      0.47875  0.62323  0.05567     C
C      0.47886  0.95172  0.37636     C
C      0.48004  0.31647  0.65025     C
H       0.4812   0.2076   0.9382     H
O      0.48254  0.47091  0.62425     O
H       0.4843   0.2097   0.6847     H
C      0.48479  0.02981  0.91481     C
H       0.4852   0.7908   0.1174     H
C       0.4854  0.58519  0.02981     C
C      0.48702  0.12906   0.6209     C
H       0.4881   0.9801   0.3625     H
H       0.4883   0.3899   0.5345     H
H       0.4908   0.9445   0.1511     H
C      0.49257  0.40319  0.78467     C
H        0.494   0.8723   0.8909     H
C      0.49403  0.19001  0.90933     C
C      0.49549  0.76559  0.33143     C
N      0.49773  0.59005  0.29575     N
N      0.50227  0.40995  0.70425     N
C      0.50451  0.23441  0.66857     C
C      0.50597  0.80999  0.09067     C
H        0.506   0.1277   0.1091     H
C      0.50743  0.59681  0.21533     C
H       0.5092   0.0555   0.8489     H
H       0.5117   0.6101   0.4655     H
H       0.5119   0.0199   0.6375     H
C      0.51298  0.87094   0.3791     C
C       0.5146  0.41481  0.97019     C
H       0.5148   0.2092   0.8826     H
C      0.51521  0.97019  0.08519     C
H       0.5157   0.7903   0.3153     H
O      0.51746  0.52909  0.37575     O
H       0.5188   0.7924   0.0618     H
C      0.51996  0.68353  0.34975     C
C      0.52114  0.04828  0.62364     C
C      0.52125  0.37677  0.94433     C
H       0.5263    0.648   0.0986     H
C      0.52805  0.91001  0.35569     C
H       0.5318   0.1375   0.9801     H
C      0.53284  0.62154  0.08118     C
C      0.53442  0.94433  0.12323     C
H       0.5367   0.5831   0.5097     H
H       0.5397    0.659   0.5156     H
C      0.53979  0.59399  0.25183     C
H       0.5399   0.6008   0.1846     H
H       0.5409   0.0132   0.9138     H
H       0.5445   0.5274   0.5668     H
H       0.5453   0.9138   0.4868     H
H       0.5472   0.8412   0.3674     H
C       0.5479  0.72098  0.32682     C
H        0.549    0.078   0.7588     H
C      0.55074  0.12573  0.58099     C
C      0.55129  0.54579  0.02903     C
H       0.5541   0.4138   0.9868     H
N      0.55431  0.38766  0.60216     N
C      0.55497  0.46164  0.59262     C
Mn      0.5551  0.58409  0.35634    Mn
H       0.5558   0.6819   0.4379     H
H       0.5577   0.5199   0.0107     H
C      0.55781   0.5987  0.48028     C
H       0.5594   0.8357   0.1233     H
H       0.5609   0.1535   0.5663     H
C      0.56194  0.14431  0.91001     C
C      0.56364  0.30703  0.62249     C
H       0.5647   0.3489   0.9445     H
C       0.5656   0.1207   0.0923     C
H       0.5684   0.9893   0.0199     H
C      0.56942  0.12364  0.95172     C
H       0.5696   0.4319   0.8391     H
H       0.5697   0.2706   0.4286     H
C      0.57234   0.4062  0.77672     C
H       0.5731   0.1142   0.0596     H
C       0.5741   0.8183   0.0941     C
O      0.57472  0.64169  0.34275     O
H        0.576   0.5258   0.6412     H
C      0.58032  0.97097  0.04579     C
H       0.5806   0.9382   0.2924     H
C      0.58175  0.41129  0.69641     C
C      0.58328  0.04734   0.5833     C
C      0.58517  0.63995  0.49071     C
C       0.5862  0.22513  0.64067     C
H       0.5864   0.1473   0.0941     H
H       0.5874   0.7316   0.4834     H
H       0.5883   0.9801   0.4893     H
C      0.58896   0.5017  0.57478     C
H       0.5895   0.1916   0.4264     H
H       0.5913   0.8391   0.0681     H
H       0.5932   0.0493   0.1161     H
H       0.5932   0.1102   0.7208     H
H       0.5962   0.5949   0.2455     H
C      0.59664  0.90933  0.30999     C
N      0.59699  0.41993  0.57813     N
H       0.5976   0.4254    0.425     H
C      0.59813  0.58117  0.08217     C
H       0.5986   0.5883   0.5955     H
N       0.5988  0.08556  0.56184     N
C       0.6004  0.91481  0.47019     C
C      0.60068  0.34351  0.59673     C
H       0.6011   0.7243   0.0893     H
C      0.60244  0.25055  0.44657     C
H       0.6026   0.8826   0.2908     H
C      0.60284  0.08296  0.74096     C
H       0.6039   0.7155   0.3077     H
H       0.6049   0.3767   0.8357     H
H       0.6051   0.7624   0.4118     H
C       0.6056  0.67008  0.44972     C
C       0.6076   0.4059   0.8183     C
C      0.60858  0.54283  0.05421     C
H       0.6116   0.1326   0.8412     H
H       0.6117   0.0827   0.1481     H
H       0.6139   0.4136   0.6652     H
C      0.61402  0.91882  0.12154     C
C      0.61408  0.26103  0.61821     C
C      0.61426  0.20363  0.44525     C
H       0.6151   0.8909   0.6277     H
C      0.61608   0.1209  0.87094     C
H       0.6169    0.018     0.57     H
H       0.6176   0.0282      0.7     H
C        0.618   0.0753   0.1155     C
C      0.61822  0.40954  0.73122     C
C      0.62126   0.5189  0.61178     C
H        0.622   0.1943   0.6373     H
H       0.6249   0.9014    0.148     H
C      0.62611  0.95421  0.47097     C
H        0.627   0.2588    0.922     H
H        0.628   0.3018   0.4746     H
C      0.62941  0.56443  0.44875     C
C      0.63062   0.0833  0.95266     C
H       0.6325   0.0882   0.7624     H
H       0.6327   0.9404   0.6142     H
C      0.63332  0.71172  0.45924     C
H       0.6337   0.6091   0.8723     H
N      0.63463  0.56172  0.40528     N
H       0.6349     0.07    0.982     H
H        0.635    0.628   0.5026     H
H       0.6355   0.4924   0.5462     H
C      0.63718  0.26913  0.47351     C
H       0.6419   0.8489   0.4445     H
H       0.6425   0.6161   0.9507     H
H       0.6458      0.2   0.9718     H
O      0.64648  0.58168  0.10904     O
C       0.6494  0.56234  0.59486     C
C      0.65056  0.73122  0.09046     C
H       0.6509   0.6509   0.4249     H
C      0.65094  0.77672   0.0938     C
C      0.65496  0.04076  0.71172     C
C       0.6562  0.74096  0.41704     C
H       0.6567   0.3769   0.3609     H
H       0.6575   0.5827   0.6481     H
C      0.65765  0.87677  0.44433     C
C       0.6579   0.9077   0.6207     C
C      0.65935  0.41673  0.41297     C
H       0.6594   0.9319   0.3391     H
C      0.66167  0.17318  0.47108     C
C      0.66279  0.94579  0.04283     C
O      0.66565  0.54832  0.31724     O
C       0.6682   0.9059   0.3183     C
H       0.6687   0.4941   0.6179     H
O      0.66913  0.12796   0.4679     O
H       0.6693   0.4801   0.8625     H
H       0.6701   0.2546   0.5988     H
H       0.6722   0.6473   0.5941     H
H       0.6746   0.4107   0.7243     H
H       0.6749   0.4423   0.3927     H
H       0.6757   0.3468    0.405     H
O      0.67594  0.33218  0.57032     O
C      0.67647  0.08099  0.87427     C
O      0.67648  0.03031  0.47925     O
C      0.67922  0.50134  0.04882     C
C       0.6803  0.91783  0.08117     C
H       0.6805   0.9059   0.6473     H
H       0.6806   0.1923   0.7155     H
H        0.681   0.0166   0.7316     H
O      0.68152  0.37955  0.48399     O
H       0.6824   0.5573   0.5619     H
H       0.6824      0.7   0.4718     H
H       0.6827   0.8767   0.3357     H
C      0.68404  0.40933  0.80999     C
N      0.68436  0.06184  0.91444     N
C       0.6856  0.23985  0.49875     C
C       0.6858  0.24096  0.91704     C
H        0.686   0.7208   0.3898     H
O      0.68604  0.46969  0.02075     O
C       0.6863   0.5923   0.8793     C
H       0.6873   0.5596   0.8858     H
O      0.68808  0.53935  0.46699     O
C       0.6884  0.37265  0.38435     C
H       0.6888   0.4382   0.7924     H
H       0.6904   0.9107   0.2243     H
C       0.6912   0.5753   0.6155     C
H       0.6922   0.7588    0.422     H
C      0.69306  0.45172  0.87636     C
C       0.6933   0.6155   0.9247     C
C       0.6934  0.06234  0.09486     C
H        0.694   0.1847   0.7903     H
H       0.6944   0.6481   0.9173     H
C      0.69572  0.21172  0.95924     C
C      0.69666  0.41149  0.45319     C
H       0.6976   0.2316   0.9834     H
H       0.6982   0.0751   0.6509     H
H       0.6984   0.0573   0.0619     H
C      0.69956   0.1914  0.49768     C
H       0.7034   0.2208   0.8898     H
H       0.7049    0.482     0.93     H
C      0.70562  0.95717  0.44579     C
C      0.70625  0.41001  0.85569     C
O      0.70679  0.97925  0.96969     O
H       0.7075   0.3084   0.0736     H
H       0.7093   0.8839   0.5493     H
H       0.7101   0.2525   0.5173     H
N      0.71099  0.52983  0.38199     N
H       0.7134   0.6179   0.0059     H
C      0.71392  0.45266   0.9167     C
H       0.7144   0.0663   0.8465     H
Mn     0.71694  0.07793  0.50101    Mn
H       0.7176   0.0883   0.0955     H
H       0.7193   0.9941   0.1179     H
H       0.7207   0.2624   0.9118     H
H       0.7209   0.6652   0.0864     H
C       0.7214   0.6207   0.5923     C
C      0.72184  0.69641  0.08871     C
C      0.72202  0.52671  0.33705     C
C      0.72276  0.78467  0.09681     C
H        0.724   0.3826   0.7908     H
C      0.72432  0.05028  0.67008     C
H       0.7245   0.8154   0.1008     H
Mn     0.72499  0.38102  0.53608    Mn
C      0.72804  0.95118  0.00134     C
C      0.72938  0.99866  0.45118     C
H       0.7311   0.5988   0.2454     H
C      0.73112  0.17318  0.72098     C
C       0.7335   0.8845   0.5753     C
H       0.7337   0.5941   0.8527     H
H       0.7344    0.128   0.0026     H
N      0.73509  0.49734  0.07158     N
C      0.73556  0.87846  0.41882     C
C      0.73698  0.37094   0.8791     C
H        0.737   0.9974    0.628     H
H       0.7371   0.3302   0.1962     H
C      0.73892  0.16857  0.76559     C
Mn     0.73893  0.53608  0.11898    Mn
H       0.7407   0.6373   0.3057     H
C      0.74102  0.90954  0.23122     C
N      0.74129  0.43838  0.45638     N
H       0.7414   0.5493   0.6161     H
H       0.7442   0.3412   0.8674     H
C      0.74474   0.9062  0.27672     C
N       0.7462  0.41444  0.93816     N
C      0.74806   0.0189  0.11178     C
C      0.75127  0.16295  0.52671     C
H       0.7531   0.6142   0.5596     H
O      0.75374  0.57032  0.16782     O
O      0.75552  0.89096  0.08168     O
H       0.7557   0.5619   0.9427     H
C      0.75574  0.59486  0.93766     C
H       0.7558   0.2172   0.3278     H
H        0.757   0.0258   0.1412     H
H       0.7572   0.6277   0.6091     H
C      0.75746  0.37427  0.91901     C
N      0.75918  0.11801  0.52983     N
H       0.7598   0.8519   0.5827     H
H       0.7603   0.9381   0.5573     H
C      0.76147  0.91883  0.41783     C
H       0.7623   0.0621   0.6819     H
C      0.76314  0.29637  0.05475     C
H       0.7635   0.1698   0.3038     H
O      0.76499  0.37204   0.0321     O
C      0.76696  0.61178   0.9811     C
N      0.76757  0.42842  0.49734     N
C      0.76771  0.61821  0.23897     C
H       0.7689   0.2294   0.0714     H
O      0.77184  0.39096  0.58168     O
O      0.77257  0.03301  0.53935     O
H       0.7726   0.5173   0.2475     H
H       0.7729    0.852   0.4014     H
C      0.77313  0.64067  0.27487     C
H       0.7733   0.1509   0.9249     H
C       0.7746  0.17008  0.94972     C
C      0.77488  0.00929  0.63995     C
H       0.7807   0.3235   0.3049     H
H       0.7807   0.3465   0.9337     H
H       0.7811   0.9264   0.8084     H
C      0.78142  0.35986   0.3597     C
Mn     0.78205  0.50101  0.42207    Mn
H       0.7828   0.6412   0.9742     H
O      0.78359  0.15725  0.64169     O
C      0.78417  0.13995  0.99071     C
H       0.7857    0.159   0.0156     H
O      0.78603  0.18276  0.54832     O
H       0.7868   0.2922    0.226     H
C      0.78826  0.90514  0.56234     C
C       0.7901  0.30668  0.19532     C
C      0.79162  0.74817  0.09399     C
C       0.7921  0.19332  0.30468     C
N      0.79348  0.70425  0.09005     N
H       0.7945   0.3865   0.3403     H
Mn     0.79487  0.00101  0.92207    Mn
Mn     0.79588  0.42207  0.99899    Mn
H       0.7959   0.2911   0.3483     H
C      0.79651  0.15025  0.68353     C
O      0.79709   0.9679  0.87204     O
C      0.79956  0.24945  0.05343     C
H       0.8008   0.2828   0.1722     H
H       0.8013   0.9844    0.659     H
N      0.80233  0.45638  0.06162     N
C      0.80259  0.59673  0.15649     C
C      0.80276  0.49768   0.3086     C
N      0.80365  0.09472  0.56172     N
H       0.8038   0.3832   0.1458     H
N      0.80401  0.00266  0.42842     N
H        0.805   0.2078    0.274     H
O      0.80558  0.03935  0.96699     O
H       0.8059   0.5955   0.9117     H
C      0.80593  0.32682  0.02892     C
C      0.80616  0.05125  0.56443     C
N      0.80667  0.92842  0.99734     N
H       0.8073   0.9136   0.1652     H
H       0.8089   0.2545   0.5949     H
C      0.81046  0.31755  0.32933     C
C      0.81055  0.91129  0.19641     C
C      0.81133  0.14067  0.77487     C
H        0.813   0.3542   0.3832     H
H       0.8131     0.57    0.482     H
H       0.8131   0.9045   0.5883     H
C      0.81387  0.62249  0.19297     C
C      0.81565  0.49875  0.26015     C
H       0.8163   0.1373   0.8057     H
C      0.81789  0.94525  0.79637     C
H       0.8183   0.5462   0.0076     H
H        0.819   0.1597   0.3865     H
C      0.81944  0.45118  0.50134     C
C      0.81957  0.90319  0.28467     C
N      0.82033  0.04362  0.43838     N
C       0.8207  0.41783  0.58117     C
H       0.8244   0.1819   0.9379     H
N      0.82488  0.57813  0.08007     N
H       0.8253   0.8992   0.3154     H
H       0.8257   0.4014    0.648     H
H       0.8259   0.9924   0.0462     H
C      0.82692  0.66857  0.26559     C
H        0.831   0.6847   0.2903     H
H       0.8328   0.1168   0.3542     H
C      0.83342   0.5833  0.45266     C
O      0.83449  0.48399  0.12045     O
C      0.83456   0.0017  0.07478     C
C      0.83485  0.97108  0.82682     C
C      0.83626  0.57478   0.9983     C
H       0.8372   0.8821   0.4941     H
O       0.8372  0.91832  0.39096     O
N      0.83936  0.56184  0.41444     N
H       0.8403   0.9286   0.7294     H
H       0.8417   0.7545   0.0949     H
C      0.84349  0.01972   0.5987     C
N      0.84353  0.60216  0.11234     N
O      0.84427  0.47925  0.46969     O
O      0.84493  0.46699  0.96065     O
C      0.84562  0.41882  0.62154     C
H       0.8458   0.4718      0.8     H
C      0.84859  0.44579  0.54283     C
C      0.85015  0.45319  0.08851     C
H       0.8506   0.6375   0.4801     H
C      0.85241  0.59262  0.03836     C
C      0.85299  0.94657  0.74945     C
C      0.85522  0.62364  0.45172     C
H       0.8558   0.3483   0.2089     H
C      0.85741  0.06443  0.94875     C
Mn     0.85791  0.88102  0.03608    Mn
C      0.85872   0.1403  0.35986     C
C      0.85888   0.3597  0.14014     C
H       0.8593   0.3154   0.6008     H
C      0.85984  0.88822   0.5189     C
C      0.86021  0.32933  0.18245     C
Mn     0.86081  0.14366  0.58408    Mn
H       0.8613   0.0274   0.0668     H
H       0.8624   0.5026    0.872     H
O      0.86297   0.4679  0.37204     O
C      0.86321   0.0987  0.98028     C
N      0.86395  0.93838  0.95638     N
H       0.8652   0.3403   0.1135     H
C      0.86622  0.24817  0.59399     C
C      0.86725  0.47108  0.32682     C
C      0.86827  0.58099  0.37427     C
C      0.86971  0.65025  0.18353     C
H       0.8705   0.0831   0.0097     H
C      0.87067  0.12249  0.69297     C
C      0.87199  0.17067  0.31755     C
H       0.8721   0.9538   0.4924     H
H       0.8728   0.5663   0.3465     H
H       0.8729   0.2155   0.8077     H
H        0.873   0.7076   0.4382     H
C      0.87472  0.67318  0.22098     C
C      0.87511  0.11821  0.73897     C
N      0.87719  0.02983  0.88199     N
H       0.8782   0.0345   0.6101     H
H       0.8787   0.2903   0.8153     H
C      0.87982  0.23087  0.02649     C
H       0.8802   0.9903   0.5831     H
H       0.8828   0.1073   0.4423     H
N      0.88353  0.90995  0.20425     N
C      0.88374  0.64431  0.41001     C
C      0.88561  0.90601  0.24817     C
H       0.8858    0.422   0.7412     H
C      0.88864   0.3086  0.00232     C
H       0.8887   0.5668   0.9726     H
C      0.88931  0.47351  0.23087     C
C      0.89077  0.96164  0.09262     C
C      0.89096  0.99768   0.8086     C
C      0.89185  0.04681  0.41149     C
C      0.89208   0.6209  0.37094     C
O      0.89321  0.62425  0.02909     O
H       0.8934   0.7092   0.3826     H
Mn     0.89399  0.96392  0.38102    Mn
H       0.8945   0.1231   0.1391     H
C      0.89576  0.28467  0.59681     C
H       0.8958   0.1951   0.3235     H
H       0.8974   0.4746   0.1982     H
C      0.89802  0.44433  0.62323     C
H       0.8982   0.8588   0.5258     H
N      0.89837  0.06172  0.90528     N
C      0.90292  0.47097  0.54579     C
C      0.90322  0.30468  0.30668     C
C       0.9043  0.22098  0.82682     C
H       0.9044   0.1982   0.0254     H
N      0.90495  0.91993  0.07813     N
C      0.90631  0.97351  0.73087     C
C      0.90663  0.69001  0.40933     C
N      0.90702  0.38199  0.97017     N
C      0.90744  0.45924  0.78828     C
C      0.90749  0.26559  0.83143     C
H       0.9091   0.1765   0.1951     H
C      0.90934  0.92522   0.5017     C
Mn     0.91145  0.64366  0.08408    Mn
H       0.9116   0.6923   0.2155     H
N      0.91222  0.20425  0.59005     N
H       0.9127   0.1101   0.9655     H
H        0.913   0.1517   0.2911     H
H       0.9136   0.4445   0.6511     H
C      0.91422  0.02671  0.83705     C
H       0.9144   0.3049   0.1765     H
H       0.9146   0.6326   0.3412     H
H       0.9147   0.7757   0.4107     H
H       0.9164   0.3278   0.2828     H
O      0.91747  0.65725  0.14169     O
H       0.9193    0.405   0.1532     H
H        0.921    0.274   0.2922     H
O      0.92156  0.83218  0.07032     O
C      0.92184  0.44875  0.93557     C
O       0.9223  0.97091  0.12425     O
H       0.9224   0.4893   0.5199     H
C      0.92392  0.08703  0.41673     C
C      0.92412  0.49071  0.86005     C
C       0.9242  0.26015  0.00125     C
H       0.9242   0.3898   0.7792     H
H       0.9242   0.4249   0.8491     H
H       0.9247   0.0988   0.7454     H
C      0.92545  0.99875  0.76015     C
C      0.92676  0.41704  0.75904     C
C      0.92725  0.38435  0.12735     C
H       0.9275   0.1532    0.095     H
C      0.92768  0.41297  0.08327     C
H       0.9281   0.9332   0.5274     H
H       0.9292   0.4834   0.7684     H
C      0.92941  0.47019  0.58519     C
H       0.9298   0.9746   0.6982     H
H       0.9324   0.3927   0.0577     H
H       0.9327   0.3038   0.3302     H
H       0.9333   0.8038   0.8302     H
H       0.9353   0.2089   0.1517     H
H       0.9366   0.9051   0.2545     H
C      0.93866  0.91149  0.95319     C
O      0.93893  0.01601  0.37955     O
C      0.93895  0.11565  0.37265     C
C      0.94049  0.44525  0.29637     C
O      0.94084  0.14169  0.84275     O
C      0.94093  0.33705  0.97329     C
N      0.94197  0.10216  0.61234     N
C      0.94419  0.09673  0.65649     C
C      0.94468  0.44972  0.82992     C
H       0.9447   0.5156    0.841     H
C       0.9454  0.12735  0.11565     C
C      0.94676  0.18353  0.84975     C
H        0.948   0.0746    0.075     H
H       0.9496   0.8542   0.8832     H
C      0.95099  0.44657  0.24945     C
C        0.952  0.27487  0.85933     C
O      0.95345  0.12425  0.52909     O
H       0.9536   0.3057   0.8627     H
H       0.9536   0.5097   0.9169     H
O      0.95494  0.87955  0.98399     O
N      0.95587  0.88766  0.10216     N
C      0.95734  0.18245  0.17067     C
C      0.95908  0.84351  0.09673     C
N      0.96009  0.40528  0.93828     N
C      0.96191  0.48028   0.9013     C
H       0.9626   0.0173   0.7475     H
H       0.9664   0.1391   0.3769     H
H       0.9679   0.4868   0.5862     H
O      0.96879  0.04832  0.81724     O
C      0.97224  0.76878  0.40954     C
H       0.9725   0.8348   0.4136     H
H        0.973   0.8278   0.7828     H
H       0.9765   0.7546   0.0988     H
H        0.977    0.075   0.4254     H
H       0.9772   0.5345   0.1101     H
H       0.9774    0.425   0.0746     H
H       0.9775    0.095   0.3468     H
C      0.97854  0.27672   0.5938     C
H       0.9787   0.8865   0.8403     H
H       0.9799   0.2475   0.9827     H
H       0.9816   0.3357   0.6233     H
H       0.9824   0.3609   0.1231     H
O      0.98289  0.68276  0.04832     O
N      0.98308  0.92187  0.41993     N
H       0.9831   0.4118   0.7376     H
C      0.98339  0.90738  0.46164     C
H       0.9841   0.4264   0.3084     H
C      0.98542  0.80468  0.80668     C
C       0.9865   0.6817   0.4059     C
H       0.9872    0.226   0.2078     H
C      0.98905  0.08327  0.08703     C
H       0.9901   0.9423   0.8927     H
O      0.99188  0.92968  0.33218     O
C      0.99304  0.19641  0.58871     C
C      0.99316  0.19297  0.87751     C
C      0.99332  0.23897  0.88179     C
H       0.9937   0.5621   0.1819     H
Mn     0.99554  0.91591  0.14366    Mn
H       0.9983   0.5714   0.7706     H
H       0.9985   0.6609   0.4319     H
C      0.99902  0.85986   0.8597     C
