data_I
_chemical_name_common  '/home/zhangsd/repos/MofS-CGCNN/ML/data/SSD/clean_cifs/XAMHEA_manual'
_cell_length_a 17.11680
_cell_length_b 17.22150
_cell_length_c 17.22150
_cell_angle_alpha 90.00000
_cell_angle_beta  90.00000
_cell_angle_gamma 90.00000
_space_group_name_H-M_alt      'P 1'


loop_
_space_group_symop_operation_xyz
  'x, y, z' 

loop_
_atom_site_label
_atom_site_fract_x
_atom_site_fract_y
_atom_site_fract_z
_atom_site_type_symbol
H      0.04505  0.10211  0.80219     H
H      0.04505  0.30219  0.60211     H
H      0.04505  0.69781  0.39789     H
H      0.04505  0.89789  0.19781     H
H      0.04846  0.10358  0.94932     H
H      0.04846  0.44932  0.60358     H
H      0.04846  0.55068  0.39642     H
H      0.04846  0.89642  0.05068     H
Zn     0.05519  0.06538  0.56538    Zn
Zn     0.05519  0.93462  0.43462    Zn
O       0.0558   0.4475   0.0525     O
O       0.0558   0.5525   0.9475     O
O        0.072   0.0496  0.67477     O
O        0.072  0.17477   0.5496     O
O        0.072  0.82523   0.4504     O
O        0.072   0.9504  0.32523     O
C       0.0787    0.055   0.8345     C
C       0.0787   0.3345    0.555     C
C       0.0787   0.6655    0.445     C
C       0.0787    0.945   0.1655     C
C       0.0805    0.056   0.9161     C
C       0.0805   0.4161    0.556     C
C       0.0805   0.5839    0.444     C
C       0.0805    0.944   0.0839     C
C       0.0914      0.5      0.0     C
C       0.1153   0.0005   0.7955     C
C       0.1153   0.2955   0.5005     C
C       0.1153   0.7045   0.4995     C
C       0.1153   0.9995   0.2045     C
C       0.1173   0.0005   0.2908     C
C       0.1173   0.2092   0.4995     C
C       0.1173   0.7908   0.5005     C
C       0.1173   0.9995   0.7092     C
C       0.1186   0.0029   0.9558     C
C       0.1186   0.4558   0.5029     C
C       0.1186   0.5442   0.4971     C
C       0.1186   0.9971   0.0442     C
O        0.119      0.0      0.5     O
C       0.1535   0.0529   0.1678     C
C       0.1535   0.3322   0.4471     C
C       0.1535   0.6678   0.5529     C
C       0.1535   0.9471   0.8322     C
C       0.1543   0.0506   0.0817     C
C       0.1543   0.4183   0.4494     C
C       0.1543   0.5817   0.5506     C
C       0.1543   0.9494   0.9183     C
O       0.1577   0.0483   0.3254     O
O       0.1577   0.1746   0.4517     O
O       0.1577   0.8254   0.5483     O
O       0.1577   0.9517   0.6746     O
C       0.1718      0.5      0.0     C
H       0.1816  0.40934  0.09066     H
H       0.1816  0.59066  0.90934     H
H      0.18226  0.20856  0.11338     H
Zn     0.18439  0.06563  0.43437    Zn
Zn     0.18439  0.93437  0.56563    Zn
H      0.18544  0.10013  0.20162     H
H      0.18544  0.70162  0.60013     H
H      0.18603  0.30007  0.39909     H
H      0.18603  0.89909  0.80007     H
H      0.18753  0.54891  0.59767     H
O       0.1931   0.1141   0.0373     O
O       0.1931   0.4627   0.3859     O
O       0.1931   0.8859   0.9627     O
H      0.20754  0.43846  0.26744     H
H      0.20754  0.76744  0.93846     H
H      0.21345  0.35407  0.33474     H
H      0.21345  0.83474  0.85407     H
C       0.2141   0.4502   0.0498     C
C       0.2141   0.5498   0.9502     C
C       0.2291   0.1734   0.0821     C
C       0.2291   0.4179   0.3266     C
C       0.2291   0.8266   0.9179     C
H      0.26401  0.21327  0.04224     H
H      0.26992  0.14597  0.12663     H
O        0.291    0.054    0.446     O
O        0.291    0.946    0.554     O
H       0.2952  0.42521  0.33003     H
H       0.2952  0.83003  0.92521     H
C        0.296    0.451    0.049     C
C        0.296    0.549    0.951     C
C       0.3237      0.0      0.5     C
H       0.3301  0.41079  0.08921     H
H       0.3301  0.58921  0.91079     H
C       0.3402      0.5      0.0     C
C       0.4153      0.0      0.5     C
H      0.41865  0.09119  0.40881     H
H      0.41865  0.90881  0.59119     H
C       0.4215      0.5      0.0     C
O       0.4293    0.599    0.099     O
H      0.43316  0.41088  0.91088     H
H      0.44719  0.68279  0.18279     H
C       0.4508   0.0502   0.4498     C
C       0.4508   0.9498   0.5502     C
H      0.46295    0.848  0.60787     H
C       0.4676  0.45094  0.95094     C
C       0.4676  0.54906  0.04906     C
C       0.4811   0.6425   0.1425     C
H      0.50465  0.88967   0.6986     H
C       0.5189   0.8575   0.6425     C
H      0.51943  0.60209  0.17852     H
H      0.51943  0.67852  0.10209     H
C       0.5324  0.04906  0.45094     C
C       0.5324  0.95094  0.54906     C
H      0.54635  0.79894  0.65693     H
C       0.5492   0.4498   0.9498     C
C       0.5492   0.5502   0.0502     C
H      0.56684  0.08912  0.41088     H
O       0.5707    0.901    0.599     O
C       0.5785      0.0      0.5     C
H      0.58135  0.40881  0.90881     H
H      0.58135  0.59119  0.09119     H
C       0.5847      0.5      0.0     C
C       0.6598      0.0      0.5     C
H       0.6699  0.08921  0.58921     H
H       0.6699  0.91079  0.41079     H
C       0.6763      0.5      0.0     C
C        0.704    0.049    0.549     C
C        0.704    0.951    0.451     C
H      0.70597   0.6602  0.41134     H
H      0.70597  0.91134   0.1602     H
O        0.709    0.446    0.946     O
O        0.709    0.554    0.054     O
H      0.72327  0.04623  0.79738     H
H      0.74397  0.13651  0.85316     H
C       0.7709   0.0821   0.8266     C
C       0.7709   0.6734   0.4179     C
C       0.7709   0.9179   0.1734     C
H      0.77857  0.73169  0.44834     H
H      0.77857  0.94834  0.23169     H
C       0.7859   0.0498   0.5498     C
C       0.7859   0.9502   0.4502     C
H      0.79927   0.6759  0.35806     H
H      0.79927  0.85806   0.1759     H
O       0.8069   0.0373   0.8859     O
O       0.8069   0.6141   0.4627     O
O       0.8069   0.9627   0.1141     O
H      0.81247  0.40233  0.54891     H
H      0.81397  0.19993  0.89909     H
H      0.81397  0.60091  0.30007     H
H      0.81397  0.80007  0.10091     H
H      0.81456  0.39987  0.70162     H
Zn     0.81561  0.43437  0.93437    Zn
Zn     0.81561  0.56563  0.06563    Zn
H      0.81657  0.09951  0.78167     H
H       0.8184  0.09066  0.59066     H
H       0.8184  0.90934  0.40934     H
C       0.8282      0.0      0.5     C
O       0.8423   0.3254   0.9517     O
O       0.8423   0.4517   0.8254     O
O       0.8423   0.5483   0.1746     O
O       0.8423   0.6746   0.0483     O
C       0.8457   0.0817   0.9494     C
C       0.8457   0.4494   0.5817     C
C       0.8457   0.5506   0.4183     C
C       0.8457   0.9183   0.0506     C
C       0.8465   0.1678   0.9471     C
C       0.8465   0.4471   0.6678     C
C       0.8465   0.5529   0.3322     C
C       0.8465   0.8322   0.0529     C
O        0.881      0.5      0.0     O
C       0.8814   0.0442   0.0029     C
C       0.8814   0.4971   0.4558     C
C       0.8814   0.5029   0.5442     C
C       0.8814   0.9558   0.9971     C
C       0.8827   0.2908   0.9995     C
C       0.8827   0.4995   0.7908     C
C       0.8827   0.5005   0.2092     C
C       0.8827   0.7092   0.0005     C
C       0.8847   0.2045   0.0005     C
C       0.8847   0.4995   0.2955     C
C       0.8847   0.5005   0.7045     C
C       0.8847   0.7955   0.9995     C
C       0.9086      0.0      0.5     C
C       0.9195   0.0839    0.056     C
C       0.9195    0.444   0.4161     C
C       0.9195    0.556   0.5839     C
C       0.9195   0.9161    0.944     C
C       0.9213   0.1655    0.055     C
C       0.9213    0.445   0.3345     C
C       0.9213    0.555   0.6655     C
C       0.9213   0.8345    0.945     C
O        0.928  0.32523   0.0496     O
O        0.928   0.4504  0.17477     O
O        0.928   0.5496  0.82523     O
O        0.928  0.67477   0.9504     O
O       0.9442   0.0525   0.5525     O
O       0.9442   0.9475   0.4475     O
Zn     0.94481  0.43462  0.06538    Zn
Zn     0.94481  0.56538  0.93462    Zn
H      0.95154  0.05068  0.10358     H
H      0.95154  0.39642  0.44932     H
H      0.95154  0.60358  0.55068     H
H      0.95154  0.94932  0.89642     H
H      0.95495  0.19781  0.10211     H
H      0.95495  0.39789  0.30219     H
H      0.95495  0.60211  0.69781     H
H      0.95495  0.80219  0.89789     H
