data_I
_chemical_name_common  '/home/zhangsd/repos/MofS-CGCNN/ML/data/SSD/clean_cifs/XASJUZ_clean'
_cell_length_a 10.28460
_cell_length_b 10.28460
_cell_length_c 20.02770
_cell_angle_alpha 90.00000
_cell_angle_beta  90.00000
_cell_angle_gamma 120.00000
_space_group_name_H-M_alt      'P 1'


loop_
_space_group_symop_operation_xyz
  'x, y, z' 

loop_
_atom_site_label
_atom_site_fract_x
_atom_site_fract_y
_atom_site_fract_z
_atom_site_type_symbol
C       0.0435   0.4951    0.065     C
C       0.0435   0.4951    0.435     C
O       0.0465   0.5426   0.1811     O
O       0.0465   0.5426   0.3189     O
C       0.0583    0.458   0.5519     C
C       0.0583    0.458   0.9481     C
C       0.0934   0.4898   0.1354     C
C       0.0934   0.4898   0.3646     C
H        0.099   0.4292   0.5877     H
H        0.099   0.4292   0.9123     H
C       0.1006   0.4513   0.0132     C
C       0.1006   0.4513   0.4868     C
Er     0.16153  0.74683     0.25    Er
H       0.1691   0.4168   0.0219     H
H       0.1691   0.4168   0.4781     H
O       0.1754   0.4379   0.1454     O
O       0.1754   0.4379   0.3546     O
H       0.2477   0.8309   0.0219     H
H       0.2477   0.8309   0.4781     H
Er     0.25317   0.4147     0.25    Er
O       0.2625   0.8246   0.1454     O
O       0.2625   0.8246   0.3546     O
H       0.3302    0.901   0.5877     H
H       0.3302    0.901   0.9123     H
O      0.33333  0.66667     0.25     O
C       0.3507   0.8994   0.0132     C
C       0.3507   0.8994   0.4868     C
C       0.3964   0.9066   0.1354     C
C       0.3964   0.9066   0.3646     C
C       0.3997   0.9417   0.5519     C
C       0.3997   0.9417   0.9481     C
Er      0.4147  0.16153     0.75    Er
H       0.4168   0.2477   0.5219     H
H       0.4168   0.2477   0.9781     H
H       0.4292   0.3302   0.0877     H
H       0.4292   0.3302   0.4123     H
O       0.4379   0.2625   0.6454     O
O       0.4379   0.2625   0.8546     O
C       0.4513   0.3507   0.5132     C
C       0.4513   0.3507   0.9868     C
C       0.4516   0.9565    0.065     C
C       0.4516   0.9565    0.435     C
O       0.4574   0.5039   0.1811     O
O       0.4574   0.5039   0.3189     O
C        0.458   0.3997   0.0519     C
C        0.458   0.3997   0.4481     C
C       0.4898   0.3964   0.6354     C
C       0.4898   0.3964   0.8646     C
C       0.4951   0.4516    0.565     C
C       0.4951   0.4516    0.935     C
O       0.4961   0.9535   0.1811     O
O       0.4961   0.9535   0.3189     O
O       0.5039   0.0465   0.6811     O
O       0.5039   0.0465   0.8189     O
C       0.5049   0.5484    0.065     C
C       0.5049   0.5484    0.435     C
C       0.5102   0.6036   0.1354     C
C       0.5102   0.6036   0.3646     C
C        0.542   0.6003   0.5519     C
C        0.542   0.6003   0.9481     C
O       0.5426   0.4961   0.6811     O
O       0.5426   0.4961   0.8189     O
C       0.5484   0.0435    0.565     C
C       0.5484   0.0435    0.935     C
C       0.5487   0.6493   0.0132     C
C       0.5487   0.6493   0.4868     C
O       0.5621   0.7375   0.1454     O
O       0.5621   0.7375   0.3546     O
H       0.5708   0.6698   0.5877     H
H       0.5708   0.6698   0.9123     H
H       0.5832   0.7523   0.0219     H
H       0.5832   0.7523   0.4781     H
Er      0.5853  0.83847     0.25    Er
C       0.6003   0.0583   0.0519     C
C       0.6003   0.0583   0.4481     C
C       0.6036   0.0934   0.6354     C
C       0.6036   0.0934   0.8646     C
C       0.6493   0.1006   0.5132     C
C       0.6493   0.1006   0.9868     C
O      0.66667  0.33333     0.75     O
H       0.6698    0.099   0.0877     H
H       0.6698    0.099   0.4123     H
O       0.7375   0.1754   0.6454     O
O       0.7375   0.1754   0.8546     O
Er     0.74683   0.5853     0.75    Er
H       0.7523   0.1691   0.5219     H
H       0.7523   0.1691   0.9781     H
O       0.8246   0.5621   0.6454     O
O       0.8246   0.5621   0.8546     O
H       0.8309   0.5832   0.5219     H
H       0.8309   0.5832   0.9781     H
Er     0.83847  0.25317     0.75    Er
C       0.8994   0.5487   0.5132     C
C       0.8994   0.5487   0.9868     C
H        0.901   0.5708   0.0877     H
H        0.901   0.5708   0.4123     H
C       0.9066   0.5102   0.6354     C
C       0.9066   0.5102   0.8646     C
C       0.9417    0.542   0.0519     C
C       0.9417    0.542   0.4481     C
O       0.9535   0.4574   0.6811     O
O       0.9535   0.4574   0.8189     O
C       0.9565   0.5049    0.565     C
C       0.9565   0.5049    0.935     C
