data_I
_chemical_name_common  '/home/zhangsd/repos/MofS-CGCNN/ML/data/SSD/clean_cifs/XASNUD_clean'
_cell_length_a 23.38360
_cell_length_b 23.38360
_cell_length_c 23.38360
_cell_angle_alpha 90.00000
_cell_angle_beta  90.00000
_cell_angle_gamma 90.00000
_space_group_name_H-M_alt      'P 1'


loop_
_space_group_symop_operation_xyz
  'x, y, z' 

loop_
_atom_site_label
_atom_site_fract_x
_atom_site_fract_y
_atom_site_fract_z
_atom_site_type_symbol
Zn         0.0  0.06376      0.5    Zn
Zn         0.0      0.5  0.43624    Zn
Zn         0.0      0.5  0.56376    Zn
Zn         0.0  0.93624      0.5    Zn
C       0.0001   0.4213   0.9221     C
C       0.0001   0.5787   0.0779     C
C       0.0028   0.3786    0.123     C
C       0.0028   0.6214    0.877     C
C       0.0051   0.2942   0.2098     C
C       0.0051   0.7058   0.7902     C
H       0.0063   0.2653   0.2383     H
H       0.0063   0.7347   0.7617     H
C       0.0454   0.3209   0.8043     C
C       0.0454   0.6791   0.1957     C
O       0.0469   0.4377   0.0559     O
O       0.0469   0.5623   0.9441     O
O       0.0476   0.4438   0.9341     O
O       0.0476   0.5562   0.0659     O
C        0.048   0.3632   0.8482     C
C        0.048   0.6368   0.1518     C
C       0.0541   0.3537     0.14     C
C       0.0541   0.6463     0.86     C
C       0.0547   0.3111   0.1809     C
C       0.0547   0.6889   0.8191     C
O       0.0559   0.0469   0.4377     O
O       0.0559   0.9531   0.5623     O
O       0.0562   0.4341   0.4524     O
O       0.0562   0.5659   0.5476     O
O       0.0623   0.4441   0.5469     O
O       0.0623   0.5559   0.4531     O
Zn     0.06376      0.5      0.0    Zn
O       0.0659   0.0476   0.5562     O
O       0.0659   0.9524   0.4438     O
C       0.0779   0.0001   0.5787     C
C       0.0779   0.9999   0.4213     C
C       0.0787   0.4221   0.4999     C
C       0.0787   0.5779   0.5001     C
H       0.0833   0.3808   0.8579     H
H       0.0833   0.6192   0.1421     H
H        0.089    0.366   0.1232     H
H        0.089    0.634   0.8768     H
O       0.0994   0.2685   0.7357     O
O       0.0994   0.7315   0.2643     O
C       0.1005   0.3031   0.7787     C
C       0.1005   0.6969   0.2213     C
C       0.1136   0.2885   0.1985     C
C       0.1136   0.7115   0.8015     C
O       0.1141   0.2576   0.2422     O
O       0.1141   0.7424   0.7578     O
H       0.1192   0.3579   0.4167     H
H       0.1192   0.6421   0.5833     H
C       0.1214    0.377   0.5028     C
C       0.1214    0.623   0.4972     C
C        0.123   0.0028   0.3786     C
C        0.123   0.9972   0.6214     C
H       0.1232    0.089    0.366     H
H       0.1232    0.911    0.634     H
H        0.134   0.3768    0.589     H
H        0.134   0.6232    0.411     H
C       0.1368   0.3482    0.452     C
C       0.1368   0.6518    0.548     C
C         0.14   0.0541   0.3537     C
C         0.14   0.9459   0.6463     C
H       0.1421   0.0833   0.6192     H
H       0.1421   0.9167   0.3808     H
O       0.1428   0.3336   0.7854     O
O       0.1428   0.6664   0.2146     O
C       0.1463     0.36   0.5541     C
C       0.1463     0.64   0.4459     C
C       0.1518    0.048   0.6368     C
C       0.1518    0.952   0.3632     C
O       0.1569   0.3046   0.1698     O
O       0.1569   0.6954   0.8302     O
O       0.1664   0.2854   0.3572     O
O       0.1664   0.7146   0.6428     O
O       0.1698   0.1569   0.3046     O
O       0.1698   0.8431   0.6954     O
C       0.1791   0.3043   0.4546     C
C       0.1791   0.6957   0.5454     C
Zn     0.17914  0.23722   0.2931    Zn
Zn     0.17914  0.76278   0.7069    Zn
C       0.1809   0.0547   0.3111     C
C       0.1809   0.9453   0.6889     C
C       0.1889   0.3191   0.5547     C
C       0.1889   0.6809   0.4453     C
O       0.1954   0.3302   0.6569     O
O       0.1954   0.6698   0.3431     O
C       0.1957   0.0454   0.6791     C
C       0.1957   0.9546   0.3209     C
C       0.1969   0.2787   0.3995     C
C       0.1969   0.7213   0.6005     C
C       0.1985   0.1136   0.2885     C
C       0.1985   0.8864   0.7115     C
C       0.2058   0.2902   0.5051     C
C       0.2058   0.7098   0.4949     C
Zn      0.2069  0.32086  0.73722    Zn
Zn      0.2069  0.67914  0.26278    Zn
C       0.2098   0.0051   0.2942     C
C       0.2098   0.9949   0.7058     C
C       0.2115   0.3015   0.6136     C
C       0.2115   0.6985   0.3864     C
O       0.2146   0.1428   0.6664     O
O       0.2146   0.8572   0.3336     O
C       0.2213   0.1005   0.6969     C
C       0.2213   0.8995   0.3031     C
O       0.2315   0.2357   0.4006     O
O       0.2315   0.7643   0.5994     O
H       0.2347   0.2617   0.5063     H
H       0.2347   0.7383   0.4937     H
O       0.2357   0.4006   0.2315     O
O       0.2357   0.5994   0.7685     O
Zn     0.23722   0.2931  0.17914    Zn
Zn     0.23722   0.7069  0.82086    Zn
H       0.2383   0.0063   0.2653     H
H       0.2383   0.9937   0.7347     H
O       0.2422   0.1141   0.2576     O
O       0.2422   0.8859   0.7424     O
O       0.2424   0.2578   0.6141     O
O       0.2424   0.7422   0.3859     O
O       0.2499   0.2499   0.7501     O
O       0.2499   0.7501   0.2499     O
O       0.2501   0.2501   0.2501     O
O       0.2501   0.7499   0.7499     O
O       0.2576   0.2422   0.1141     O
O       0.2576   0.7578   0.8859     O
O       0.2578   0.3859   0.7576     O
O       0.2578   0.6141   0.2424     O
H       0.2617   0.4937   0.7653     H
H       0.2617   0.5063   0.2347     H
Zn     0.26278   0.2069  0.67914    Zn
Zn     0.26278   0.7931  0.32086    Zn
O       0.2643   0.0994   0.7315     O
O       0.2643   0.9006   0.2685     O
H       0.2653   0.2383   0.0063     H
H       0.2653   0.7617   0.9937     H
O       0.2685   0.2643   0.9006     O
O       0.2685   0.7357   0.0994     O
C       0.2787   0.3995   0.1969     C
C       0.2787   0.6005   0.8031     C
O       0.2854   0.3572   0.1664     O
O       0.2854   0.6428   0.8336     O
C       0.2885   0.1985   0.1136     C
C       0.2885   0.8015   0.8864     C
C       0.2902   0.4949   0.7942     C
C       0.2902   0.5051   0.2058     C
Zn      0.2931  0.17914  0.23722    Zn
Zn      0.2931  0.82086  0.76278    Zn
C       0.2942   0.2098   0.0051     C
C       0.2942   0.7902   0.9949     C
C       0.3015   0.3864   0.7885     C
C       0.3015   0.6136   0.2115     C
C       0.3031   0.2213   0.8995     C
C       0.3031   0.7787   0.1005     C
C       0.3043   0.4546   0.1791     C
C       0.3043   0.5454   0.8209     C
O       0.3046   0.1698   0.1569     O
O       0.3046   0.8302   0.8431     O
C       0.3111   0.1809   0.0547     C
C       0.3111   0.8191   0.9453     C
C       0.3191   0.4453   0.8111     C
C       0.3191   0.5547   0.1889     C
Zn     0.32086  0.26278   0.7931    Zn
Zn     0.32086  0.73722   0.2069    Zn
C       0.3209   0.1957   0.9546     C
C       0.3209   0.8043   0.0454     C
O       0.3302   0.3431   0.8046     O
O       0.3302   0.6569   0.1954     O
O       0.3336   0.2146   0.8572     O
O       0.3336   0.7854   0.1428     O
O       0.3431   0.1954   0.6698     O
O       0.3431   0.8046   0.3302     O
C       0.3482    0.452   0.1368     C
C       0.3482    0.548   0.8632     C
C       0.3537     0.14   0.0541     C
C       0.3537     0.86   0.9459     C
O       0.3572   0.1664   0.2854     O
O       0.3572   0.8336   0.7146     O
H       0.3579   0.4167   0.1192     H
H       0.3579   0.5833   0.8808     H
C         0.36   0.4459   0.8537     C
C         0.36   0.5541   0.1463     C
C       0.3632   0.1518    0.952     C
C       0.3632   0.8482    0.048     C
H        0.366   0.1232    0.089     H
H        0.366   0.8768    0.911     H
H       0.3768    0.411    0.866     H
H       0.3768    0.589    0.134     H
C        0.377   0.4972   0.8786     C
C        0.377   0.5028   0.1214     C
C       0.3786    0.123   0.0028     C
C       0.3786    0.877   0.9972     C
H       0.3808   0.1421   0.9167     H
H       0.3808   0.8579   0.0833     H
O       0.3859   0.2424   0.7422     O
O       0.3859   0.7576   0.2578     O
C       0.3864   0.2115   0.6985     C
C       0.3864   0.7885   0.3015     C
C       0.3995   0.1969   0.2787     C
C       0.3995   0.8031   0.7213     C
O       0.4006   0.2315   0.2357     O
O       0.4006   0.7685   0.7643     O
H        0.411    0.134   0.6232     H
H        0.411    0.866   0.3768     H
H       0.4167   0.1192   0.3579     H
H       0.4167   0.8808   0.6421     H
C       0.4213   0.0779   0.9999     C
C       0.4213   0.9221   0.0001     C
C       0.4221   0.4999   0.0787     C
C       0.4221   0.5001   0.9213     C
O       0.4341   0.4524   0.0562     O
O       0.4341   0.5476   0.9438     O
Zn     0.43624      0.0      0.5    Zn
O       0.4377   0.0559   0.0469     O
O       0.4377   0.9441   0.9531     O
O       0.4438   0.0659   0.9524     O
O       0.4438   0.9341   0.0476     O
O       0.4441   0.4531   0.9377     O
O       0.4441   0.5469   0.0623     O
C       0.4453   0.1889   0.6809     C
C       0.4453   0.8111   0.3191     C
C       0.4459   0.1463     0.64     C
C       0.4459   0.8537     0.36     C
C        0.452   0.1368   0.3482     C
C        0.452   0.8632   0.6518     C
O       0.4524   0.0562   0.4341     O
O       0.4524   0.9438   0.5659     O
O       0.4531   0.0623   0.5559     O
O       0.4531   0.9377   0.4441     O
C       0.4546   0.1791   0.3043     C
C       0.4546   0.8209   0.6957     C
H       0.4937   0.2347   0.7383     H
H       0.4937   0.7653   0.2617     H
C       0.4949   0.2058   0.7098     C
C       0.4949   0.7942   0.2902     C
C       0.4972   0.1214    0.623     C
C       0.4972   0.8786    0.377     C
C       0.4999   0.0787   0.4221     C
C       0.4999   0.9213   0.5779     C
Zn         0.5      0.0  0.06376    Zn
Zn         0.5      0.0  0.93624    Zn
Zn         0.5  0.43624      0.0    Zn
Zn         0.5  0.56376      0.0    Zn
C       0.5001   0.0787   0.5779     C
C       0.5001   0.9213   0.4221     C
C       0.5028   0.1214    0.377     C
C       0.5028   0.8786    0.623     C
C       0.5051   0.2058   0.2902     C
C       0.5051   0.7942   0.7098     C
H       0.5063   0.2347   0.2617     H
H       0.5063   0.7653   0.7383     H
C       0.5454   0.1791   0.6957     C
C       0.5454   0.8209   0.3043     C
O       0.5469   0.0623   0.4441     O
O       0.5469   0.9377   0.5559     O
O       0.5476   0.0562   0.5659     O
O       0.5476   0.9438   0.4341     O
C        0.548   0.1368   0.6518     C
C        0.548   0.8632   0.3482     C
C       0.5541   0.1463     0.36     C
C       0.5541   0.8537     0.64     C
C       0.5547   0.1889   0.3191     C
C       0.5547   0.8111   0.6809     C
O       0.5559   0.4531   0.0623     O
O       0.5559   0.5469   0.9377     O
O       0.5562   0.0659   0.0476     O
O       0.5562   0.9341   0.9524     O
O       0.5623   0.0559   0.9531     O
O       0.5623   0.9441   0.0469     O
Zn     0.56376      0.0      0.5    Zn
O       0.5659   0.4524   0.9438     O
O       0.5659   0.5476   0.0562     O
C       0.5779   0.4999   0.9213     C
C       0.5779   0.5001   0.0787     C
C       0.5787   0.0779   0.0001     C
C       0.5787   0.9221   0.9999     C
H       0.5833   0.1192   0.6421     H
H       0.5833   0.8808   0.3579     H
H        0.589    0.134   0.3768     H
H        0.589    0.866   0.6232     H
O       0.5994   0.2315   0.7643     O
O       0.5994   0.7685   0.2357     O
C       0.6005   0.1969   0.7213     C
C       0.6005   0.8031   0.2787     C
C       0.6136   0.2115   0.3015     C
C       0.6136   0.7885   0.6985     C
O       0.6141   0.2424   0.2578     O
O       0.6141   0.7576   0.7422     O
H       0.6192   0.1421   0.0833     H
H       0.6192   0.8579   0.9167     H
C       0.6214    0.123   0.9972     C
C       0.6214    0.877   0.0028     C
C        0.623   0.4972   0.1214     C
C        0.623   0.5028   0.8786     C
H       0.6232    0.411    0.134     H
H       0.6232    0.589    0.866     H
H        0.634   0.1232    0.911     H
H        0.634   0.8768    0.089     H
C       0.6368   0.1518    0.048     C
C       0.6368   0.8482    0.952     C
C         0.64   0.4459   0.1463     C
C         0.64   0.5541   0.8537     C
H       0.6421   0.4167   0.8808     H
H       0.6421   0.5833   0.1192     H
O       0.6428   0.1664   0.7146     O
O       0.6428   0.8336   0.2854     O
C       0.6463     0.14   0.9459     C
C       0.6463     0.86   0.0541     C
C       0.6518    0.452   0.8632     C
C       0.6518    0.548   0.1368     C
O       0.6569   0.1954   0.3302     O
O       0.6569   0.8046   0.6698     O
O       0.6664   0.2146   0.1428     O
O       0.6664   0.7854   0.8572     O
O       0.6698   0.3431   0.1954     O
O       0.6698   0.6569   0.8046     O
C       0.6791   0.1957   0.0454     C
C       0.6791   0.8043   0.9546     C
Zn     0.67914  0.26278   0.2069    Zn
Zn     0.67914  0.73722   0.7931    Zn
C       0.6809   0.4453   0.1889     C
C       0.6809   0.5547   0.8111     C
C       0.6889   0.1809   0.9453     C
C       0.6889   0.8191   0.0547     C
O       0.6954   0.1698   0.8431     O
O       0.6954   0.8302   0.1569     O
C       0.6957   0.4546   0.8209     C
C       0.6957   0.5454   0.1791     C
C       0.6969   0.2213   0.1005     C
C       0.6969   0.7787   0.8995     C
C       0.6985   0.3864   0.2115     C
C       0.6985   0.6136   0.7885     C
C       0.7058   0.2098   0.9949     C
C       0.7058   0.7902   0.0051     C
Zn      0.7069  0.17914  0.76278    Zn
Zn      0.7069  0.82086  0.23722    Zn
C       0.7098   0.4949   0.2058     C
C       0.7098   0.5051   0.7942     C
C       0.7115   0.1985   0.8864     C
C       0.7115   0.8015   0.1136     C
O       0.7146   0.3572   0.8336     O
O       0.7146   0.6428   0.1664     O
C       0.7213   0.3995   0.8031     C
C       0.7213   0.6005   0.1969     C
O       0.7315   0.2643   0.0994     O
O       0.7315   0.7357   0.9006     O
H       0.7347   0.2383   0.9937     H
H       0.7347   0.7617   0.0063     H
O       0.7357   0.0994   0.2685     O
O       0.7357   0.9006   0.7315     O
Zn     0.73722   0.2069  0.32086    Zn
Zn     0.73722   0.7931  0.67914    Zn
H       0.7383   0.4937   0.2347     H
H       0.7383   0.5063   0.7653     H
O       0.7422   0.3859   0.2424     O
O       0.7422   0.6141   0.7576     O
O       0.7424   0.2422   0.8859     O
O       0.7424   0.7578   0.1141     O
O       0.7499   0.2501   0.7499     O
O       0.7499   0.7499   0.2501     O
O       0.7501   0.2499   0.2499     O
O       0.7501   0.7501   0.7501     O
O       0.7576   0.2578   0.3859     O
O       0.7576   0.7422   0.6141     O
O       0.7578   0.1141   0.7424     O
O       0.7578   0.8859   0.2576     O
H       0.7617   0.0063   0.7347     H
H       0.7617   0.9937   0.2653     H
Zn     0.76278   0.2931  0.82086    Zn
Zn     0.76278   0.7069  0.17914    Zn
O       0.7643   0.4006   0.7685     O
O       0.7643   0.5994   0.2315     O
H       0.7653   0.2617   0.4937     H
H       0.7653   0.7383   0.5063     H
O       0.7685   0.2357   0.5994     O
O       0.7685   0.7643   0.4006     O
C       0.7787   0.1005   0.3031     C
C       0.7787   0.8995   0.6969     C
O       0.7854   0.1428   0.3336     O
O       0.7854   0.8572   0.6664     O
C       0.7885   0.3015   0.3864     C
C       0.7885   0.6985   0.6136     C
C       0.7902   0.0051   0.7058     C
C       0.7902   0.9949   0.2942     C
Zn      0.7931  0.32086  0.26278    Zn
Zn      0.7931  0.67914  0.73722    Zn
C       0.7942   0.2902   0.4949     C
C       0.7942   0.7098   0.5051     C
C       0.8015   0.1136   0.7115     C
C       0.8015   0.8864   0.2885     C
C       0.8031   0.2787   0.6005     C
C       0.8031   0.7213   0.3995     C
C       0.8043   0.0454   0.3209     C
C       0.8043   0.9546   0.6791     C
O       0.8046   0.3302   0.3431     O
O       0.8046   0.6698   0.6569     O
C       0.8111   0.3191   0.4453     C
C       0.8111   0.6809   0.5547     C
C       0.8191   0.0547   0.6889     C
C       0.8191   0.9453   0.3111     C
Zn     0.82086  0.23722   0.7069    Zn
Zn     0.82086  0.76278   0.2931    Zn
C       0.8209   0.3043   0.5454     C
C       0.8209   0.6957   0.4546     C
O       0.8302   0.1569   0.6954     O
O       0.8302   0.8431   0.3046     O
O       0.8336   0.2854   0.6428     O
O       0.8336   0.7146   0.3572     O
O       0.8431   0.3046   0.8302     O
O       0.8431   0.6954   0.1698     O
C       0.8482    0.048   0.3632     C
C       0.8482    0.952   0.6368     C
C       0.8537     0.36   0.4459     C
C       0.8537     0.64   0.5541     C
O       0.8572   0.3336   0.2146     O
O       0.8572   0.6664   0.7854     O
H       0.8579   0.0833   0.3808     H
H       0.8579   0.9167   0.6192     H
C         0.86   0.0541   0.6463     C
C         0.86   0.9459   0.3537     C
C       0.8632   0.3482    0.548     C
C       0.8632   0.6518    0.452     C
H        0.866   0.3768    0.411     H
H        0.866   0.6232    0.589     H
H       0.8768    0.089    0.634     H
H       0.8768    0.911    0.366     H
C        0.877   0.0028   0.6214     C
C        0.877   0.9972   0.3786     C
C       0.8786    0.377   0.4972     C
C       0.8786    0.623   0.5028     C
H       0.8808   0.3579   0.5833     H
H       0.8808   0.6421   0.4167     H
O       0.8859   0.2576   0.7578     O
O       0.8859   0.7424   0.2422     O
C       0.8864   0.2885   0.8015     C
C       0.8864   0.7115   0.1985     C
C       0.8995   0.3031   0.2213     C
C       0.8995   0.6969   0.7787     C
O       0.9006   0.2685   0.2643     O
O       0.9006   0.7315   0.7357     O
H        0.911    0.366   0.8768     H
H        0.911    0.634   0.1232     H
H       0.9167   0.3808   0.1421     H
H       0.9167   0.6192   0.8579     H
C       0.9213   0.4221   0.5001     C
C       0.9213   0.5779   0.4999     C
C       0.9221   0.0001   0.4213     C
C       0.9221   0.9999   0.5787     C
O       0.9341   0.0476   0.4438     O
O       0.9341   0.9524   0.5562     O
Zn     0.93624      0.5      0.0    Zn
O       0.9377   0.4441   0.4531     O
O       0.9377   0.5559   0.5469     O
O       0.9438   0.4341   0.5476     O
O       0.9438   0.5659   0.4524     O
O       0.9441   0.0469   0.5623     O
O       0.9441   0.9531   0.4377     O
C       0.9453   0.3111   0.8191     C
C       0.9453   0.6889   0.1809     C
C       0.9459   0.3537     0.86     C
C       0.9459   0.6463     0.14     C
C        0.952   0.3632   0.1518     C
C        0.952   0.6368   0.8482     C
O       0.9524   0.4438   0.0659     O
O       0.9524   0.5562   0.9341     O
O       0.9531   0.4377   0.9441     O
O       0.9531   0.5623   0.0559     O
C       0.9546   0.3209   0.1957     C
C       0.9546   0.6791   0.8043     C
H       0.9937   0.2653   0.7617     H
H       0.9937   0.7347   0.2383     H
C       0.9949   0.2942   0.7902     C
C       0.9949   0.7058   0.2098     C
C       0.9972   0.3786    0.877     C
C       0.9972   0.6214    0.123     C
C       0.9999   0.4213   0.0779     C
C       0.9999   0.5787   0.9221     C
