data_I
_chemical_name_common  '/home/zhangsd/repos/MofS-CGCNN/ML/data/SSD/clean_cifs/XAVKIR_clean'
_cell_length_a 41.47340
_cell_length_b 41.47340
_cell_length_c 41.47340
_cell_angle_alpha 90.00000
_cell_angle_beta  90.00000
_cell_angle_gamma 90.00000
_space_group_name_H-M_alt      'P 1'


loop_
_space_group_symop_operation_xyz
  'x, y, z' 

loop_
_atom_site_label
_atom_site_fract_x
_atom_site_fract_y
_atom_site_fract_z
_atom_site_type_symbol
Cu         0.0  0.13616  0.13616    Cu
Cu         0.0  0.13616  0.86384    Cu
Cu         0.0  0.18119  0.18119    Cu
Cu         0.0  0.18119  0.81881    Cu
N          0.0  0.21817  0.21817     N
N          0.0  0.21817  0.78183     N
C          0.0   0.2652   0.2652     C
C          0.0   0.2652   0.7348     C
H          0.0   0.2814   0.2814     H
H          0.0   0.2814   0.7186     H
H          0.0   0.7186   0.2814     H
H          0.0   0.7186   0.7186     H
C          0.0   0.7348   0.2652     C
C          0.0   0.7348   0.7348     C
N          0.0  0.78183  0.21817     N
N          0.0  0.78183  0.78183     N
Cu         0.0  0.81881  0.18119    Cu
Cu         0.0  0.81881  0.81881    Cu
Cu         0.0  0.86384  0.13616    Cu
Cu         0.0  0.86384  0.86384    Cu
C      0.02803  0.25342  0.25342     C
C      0.02803  0.25342  0.74658     C
C      0.02803  0.74658  0.25342     C
C      0.02803  0.74658  0.74658     C
C      0.02846  0.22922  0.22922     C
C      0.02846  0.22922  0.77078     C
C      0.02846  0.77078  0.22922     C
C      0.02846  0.77078  0.77078     C
O      0.03338  0.15431  0.20086     O
O      0.03338  0.15431  0.79914     O
O      0.03338  0.20086  0.15431     O
O      0.03338  0.20086  0.84569     O
O      0.03338  0.79914  0.15431     O
O      0.03338  0.79914  0.84569     O
O      0.03338  0.84569  0.20086     O
O      0.03338  0.84569  0.79914     O
O      0.03355  0.11648   0.1629     O
O      0.03355  0.11648   0.8371     O
O      0.03355   0.1629  0.11648     O
O      0.03355   0.1629  0.88352     O
O      0.03355   0.8371  0.11648     O
O      0.03355   0.8371  0.88352     O
O      0.03355  0.88352   0.1629     O
O      0.03355  0.88352   0.8371     O
C      0.04404  0.12845   0.1883     C
C      0.04404  0.12845   0.8117     C
C      0.04404   0.1883  0.12845     C
C      0.04404   0.1883  0.87155     C
C      0.04404   0.8117  0.12845     C
C      0.04404   0.8117  0.87155     C
C      0.04404  0.87155   0.1883     C
C      0.04404  0.87155   0.8117     C
H       0.0482   0.2211   0.2211     H
H       0.0482   0.2211   0.7789     H
H       0.0482   0.7789   0.2211     H
H       0.0482   0.7789   0.7789     H
O      0.05266  0.28871  0.28871     O
O      0.05266  0.28871  0.71129     O
O      0.05266  0.71129  0.28871     O
O      0.05266  0.71129  0.71129     O
C      0.05872  0.26748  0.26748     C
C      0.05872  0.26748  0.73252     C
C      0.05872  0.73252  0.26748     C
C      0.05872  0.73252  0.73252     C
C      0.07048  0.11137  0.20487     C
C      0.07048  0.11137  0.79513     C
C      0.07048  0.20487  0.11137     C
C      0.07048  0.20487  0.88863     C
C      0.07048  0.79513  0.11137     C
C      0.07048  0.79513  0.88863     C
C      0.07048  0.88863  0.20487     C
C      0.07048  0.88863  0.79513     C
H        0.074    0.074   0.1735     H
H        0.074    0.074   0.8265     H
H        0.074   0.1735    0.074     H
H        0.074   0.1735    0.926     H
H        0.074   0.8265    0.074     H
H        0.074   0.8265    0.926     H
H        0.074    0.926   0.1735     H
H        0.074    0.926   0.8265     H
H       0.0766   0.1457     0.24     H
H       0.0766   0.1457     0.76     H
H       0.0766     0.24   0.1457     H
H       0.0766     0.24   0.8543     H
H       0.0766     0.76   0.1457     H
H       0.0766     0.76   0.8543     H
H       0.0766   0.8543     0.24     H
H       0.0766   0.8543     0.76     H
H       0.0823   0.3076   0.3076     H
H       0.0823   0.3076   0.6924     H
H       0.0823   0.6924   0.3076     H
H       0.0823   0.6924   0.6924     H
C      0.08382  0.08382  0.19169     C
C      0.08382  0.08382  0.80831     C
C      0.08382  0.19169  0.08382     C
C      0.08382  0.19169  0.91618     C
C      0.08382  0.80831  0.08382     C
C      0.08382  0.80831  0.91618     C
C      0.08382  0.91618  0.19169     C
C      0.08382  0.91618  0.80831     C
C      0.08496  0.12611  0.23161     C
C      0.08496  0.12611  0.76839     C
C      0.08496  0.23161  0.12611     C
C      0.08496  0.23161  0.87389     C
C      0.08496  0.76839  0.12611     C
C      0.08496  0.76839  0.87389     C
C      0.08496  0.87389  0.23161     C
C      0.08496  0.87389  0.76839     C
N      0.09198   0.2624   0.2624     N
N      0.09198   0.2624   0.7376     N
N      0.09198   0.7376   0.2624     N
N      0.09198   0.7376   0.7376     N
H       0.0927   0.3478   0.3478     H
H       0.0927   0.3478   0.6522     H
H       0.0927   0.6522   0.3478     H
H       0.0927   0.6522   0.6522     H
H       0.0987   0.2482   0.2482     H
H       0.0987   0.2482   0.7518     H
H       0.0987   0.7518   0.2482     H
H       0.0987   0.7518   0.7518     H
O      0.10151  0.10151  0.32169     O
O      0.10151  0.10151  0.67831     O
O      0.10151  0.32169  0.10151     O
O      0.10151  0.32169  0.89849     O
O      0.10151  0.67831  0.10151     O
O      0.10151  0.67831  0.89849     O
O      0.10151  0.89849  0.32169     O
O      0.10151  0.89849  0.67831     O
C      0.10488  0.30492  0.30492     C
C      0.10488  0.30492  0.69508     C
C      0.10488  0.69508  0.30492     C
C      0.10488  0.69508  0.69508     C
C      0.11137  0.07048  0.20487     C
C      0.11137  0.07048  0.79513     C
C      0.11137  0.20487  0.07048     C
C      0.11137  0.20487  0.92952     C
C      0.11137  0.79513  0.07048     C
C      0.11137  0.79513  0.92952     C
C      0.11137  0.92952  0.20487     C
C      0.11137  0.92952  0.79513     C
C      0.11163  0.11163  0.24566     C
C      0.11163  0.11163  0.75434     C
C      0.11163  0.24566  0.11163     C
C      0.11163  0.24566  0.88837     C
C      0.11163  0.75434  0.11163     C
C      0.11163  0.75434  0.88837     C
C      0.11163  0.88837  0.24566     C
C      0.11163  0.88837  0.75434     C
C      0.11528  0.34511  0.34511     C
C      0.11528  0.34511  0.65489     C
C      0.11528  0.65489  0.34511     C
C      0.11528  0.65489  0.65489     C
O      0.11648  0.03355   0.1629     O
O      0.11648  0.03355   0.8371     O
O      0.11648   0.1629  0.03355     O
O      0.11648   0.1629  0.96645     O
O      0.11648   0.8371  0.03355     O
O      0.11648   0.8371  0.96645     O
O      0.11648  0.96645   0.1629     O
O      0.11648  0.96645   0.8371     O
C       0.1169   0.2827   0.2827     C
C       0.1169   0.2827   0.7173     C
C       0.1169   0.7173   0.2827     C
C       0.1169   0.7173   0.7173     C
C      0.12018  0.12018  0.30819     C
C      0.12018  0.12018  0.69181     C
C      0.12018  0.30819  0.12018     C
C      0.12018  0.30819  0.87982     C
C      0.12018  0.69181  0.12018     C
C      0.12018  0.69181  0.87982     C
C      0.12018  0.87982  0.30819     C
C      0.12018  0.87982  0.69181     C
H       0.1213   0.1213   0.3709     H
H       0.1213   0.1213   0.6291     H
H       0.1213   0.3709   0.1213     H
H       0.1213   0.3709   0.8787     H
H       0.1213   0.6291   0.1213     H
H       0.1213   0.6291   0.8787     H
H       0.1213   0.8787   0.3709     H
H       0.1213   0.8787   0.6291     H
H       0.1234   0.1487   0.2728     H
H       0.1234   0.1487   0.7272     H
H       0.1234   0.2728   0.1487     H
H       0.1234   0.2728   0.8513     H
H       0.1234   0.7272   0.1487     H
H       0.1234   0.7272   0.8513     H
H       0.1234   0.8513   0.2728     H
H       0.1234   0.8513   0.7272     H
C      0.12611  0.08496  0.23161     C
C      0.12611  0.08496  0.76839     C
C      0.12611  0.23161  0.08496     C
C      0.12611  0.23161  0.91504     C
C      0.12611  0.76839  0.08496     C
C      0.12611  0.76839  0.91504     C
C      0.12611  0.91504  0.23161     C
C      0.12611  0.91504  0.76839     C
C      0.12682  0.32341  0.32341     C
C      0.12682  0.32341  0.67659     C
C      0.12682  0.67659  0.32341     C
C      0.12682  0.67659  0.67659     C
N      0.12687  0.12687   0.2751     N
N      0.12687  0.12687   0.7249     N
N      0.12687   0.2751  0.12687     N
N      0.12687   0.2751  0.87313     N
N      0.12687   0.7249  0.12687     N
N      0.12687   0.7249  0.87313     N
N      0.12687  0.87313   0.2751     N
N      0.12687  0.87313   0.7249     N
C      0.12845  0.04404   0.1883     C
C      0.12845  0.04404   0.8117     C
C      0.12845   0.1883  0.04404     C
C      0.12845   0.1883  0.95596     C
C      0.12845   0.8117  0.04404     C
C      0.12845   0.8117  0.95596     C
C      0.12845  0.95596   0.1883     C
C      0.12845  0.95596   0.8117     C
H       0.1291   0.3787   0.3787     H
H       0.1291   0.3787   0.6213     H
H       0.1291   0.6213   0.3787     H
H       0.1291   0.6213   0.6213     H
Cu     0.13616      0.0  0.13616    Cu
Cu     0.13616      0.0  0.86384    Cu
Cu     0.13616  0.13616      0.0    Cu
Cu     0.13616  0.86384      0.0    Cu
C      0.13657  0.13657  0.36316     C
C      0.13657  0.13657  0.63684     C
C      0.13657  0.36316  0.13657     C
C      0.13657  0.36316  0.86343     C
C      0.13657  0.63684  0.13657     C
C      0.13657  0.63684  0.86343     C
C      0.13657  0.86343  0.36316     C
C      0.13657  0.86343  0.63684     C
C      0.13684  0.36343  0.36343     C
C      0.13684  0.36343  0.63657     C
C      0.13684  0.63657  0.36343     C
C      0.13684  0.63657  0.63657     C
C      0.14093  0.14093  0.32988     C
C      0.14093  0.14093  0.67012     C
C      0.14093  0.32988  0.14093     C
C      0.14093  0.32988  0.85907     C
C      0.14093  0.67012  0.14093     C
C      0.14093  0.67012  0.85907     C
C      0.14093  0.85907  0.32988     C
C      0.14093  0.85907  0.67012     C
H       0.1457   0.0766     0.24     H
H       0.1457   0.0766     0.76     H
H       0.1457     0.24   0.0766     H
H       0.1457     0.24   0.9234     H
H       0.1457     0.76   0.0766     H
H       0.1457     0.76   0.9234     H
H       0.1457   0.9234     0.24     H
H       0.1457   0.9234     0.76     H
H       0.1487   0.1234   0.2728     H
H       0.1487   0.1234   0.7272     H
H       0.1487   0.2728   0.1234     H
H       0.1487   0.2728   0.8766     H
H       0.1487   0.7272   0.1234     H
H       0.1487   0.7272   0.8766     H
H       0.1487   0.8766   0.2728     H
H       0.1487   0.8766   0.7272     H
C      0.14902  0.27866  0.27866     C
C      0.14902  0.27866  0.72134     C
C      0.14902  0.72134  0.27866     C
C      0.14902  0.72134  0.72134     C
H       0.1522   0.1522   0.4073     H
H       0.1522   0.1522   0.5927     H
H       0.1522   0.4073   0.1522     H
H       0.1522   0.4073   0.8478     H
H       0.1522   0.5927   0.1522     H
H       0.1522   0.5927   0.8478     H
H       0.1522   0.8478   0.4073     H
H       0.1522   0.8478   0.5927     H
O      0.15431  0.03338  0.20086     O
O      0.15431  0.03338  0.79914     O
O      0.15431  0.20086  0.03338     O
O      0.15431  0.20086  0.96662     O
O      0.15431  0.79914  0.03338     O
O      0.15431  0.79914  0.96662     O
O      0.15431  0.96662  0.20086     O
O      0.15431  0.96662  0.79914     O
C      0.15489  0.15489  0.38472     C
C      0.15489  0.15489  0.61528     C
C      0.15489  0.38472  0.15489     C
C      0.15489  0.38472  0.84511     C
C      0.15489  0.61528  0.15489     C
C      0.15489  0.61528  0.84511     C
C      0.15489  0.84511  0.38472     C
C      0.15489  0.84511  0.61528     C
H       0.1566   0.2634   0.2634     H
H       0.1566   0.2634   0.7366     H
H       0.1566   0.7366   0.2634     H
H       0.1566   0.7366   0.7366     H
C      0.15951  0.31918  0.31918     C
C      0.15951  0.31918  0.68082     C
C      0.15951  0.68082  0.31918     C
C      0.15951  0.68082  0.68082     C
C      0.16253  0.16253  0.31883     C
C      0.16253  0.16253  0.68117     C
C      0.16253  0.31883  0.16253     C
C      0.16253  0.31883  0.83747     C
C      0.16253  0.68117  0.16253     C
C      0.16253  0.68117  0.83747     C
C      0.16253  0.83747  0.31883     C
C      0.16253  0.83747  0.68117     C
O       0.1629  0.03355  0.11648     O
O       0.1629  0.03355  0.88352     O
O       0.1629  0.11648  0.03355     O
O       0.1629  0.11648  0.96645     O
O       0.1629  0.88352  0.03355     O
O       0.1629  0.88352  0.96645     O
O       0.1629  0.96645  0.11648     O
O       0.1629  0.96645  0.88352     O
H       0.1654   0.1654   0.2963     H
H       0.1654   0.1654   0.7037     H
H       0.1654   0.2963   0.1654     H
H       0.1654   0.2963   0.8346     H
H       0.1654   0.7037   0.1654     H
H       0.1654   0.7037   0.8346     H
H       0.1654   0.8346   0.2963     H
H       0.1654   0.8346   0.7037     H
C      0.17012  0.35907  0.35907     C
C      0.17012  0.35907  0.64093     C
C      0.17012  0.64093  0.35907     C
C      0.17012  0.64093  0.64093     C
C      0.17151  0.29692  0.29692     C
C      0.17151  0.29692  0.70308     C
C      0.17151  0.70308  0.29692     C
C      0.17151  0.70308  0.70308     C
H       0.1735    0.074    0.074     H
H       0.1735    0.074    0.926     H
H       0.1735    0.926    0.074     H
H       0.1735    0.926    0.926     H
C      0.17659  0.17659  0.37318     C
C      0.17659  0.17659  0.62682     C
C      0.17659  0.37318  0.17659     C
C      0.17659  0.37318  0.82341     C
C      0.17659  0.62682  0.17659     C
C      0.17659  0.62682  0.82341     C
C      0.17659  0.82341  0.37318     C
C      0.17659  0.82341  0.62682     C
O      0.17831  0.39849  0.39849     O
O      0.17831  0.39849  0.60151     O
O      0.17831  0.60151  0.39849     O
O      0.17831  0.60151  0.60151     O
C      0.18082  0.18082  0.34049     C
C      0.18082  0.18082  0.65951     C
C      0.18082  0.34049  0.18082     C
C      0.18082  0.34049  0.81918     C
C      0.18082  0.65951  0.18082     C
C      0.18082  0.65951  0.81918     C
C      0.18082  0.81918  0.34049     C
C      0.18082  0.81918  0.65951     C
C      0.18117  0.33747  0.33747     C
C      0.18117  0.33747  0.66253     C
C      0.18117  0.66253  0.33747     C
C      0.18117  0.66253  0.66253     C
Cu     0.18119      0.0  0.18119    Cu
Cu     0.18119      0.0  0.81881    Cu
Cu     0.18119  0.18119      0.0    Cu
Cu     0.18119  0.81881      0.0    Cu
C       0.1883  0.04404  0.12845     C
C       0.1883  0.04404  0.87155     C
C       0.1883  0.12845  0.04404     C
C       0.1883  0.12845  0.95596     C
C       0.1883  0.87155  0.04404     C
C       0.1883  0.87155  0.95596     C
C       0.1883  0.95596  0.12845     C
C       0.1883  0.95596  0.87155     C
C      0.19169  0.08382  0.08382     C
C      0.19169  0.08382  0.91618     C
C      0.19169  0.91618  0.08382     C
C      0.19169  0.91618  0.91618     C
C      0.19181  0.37982  0.37982     C
C      0.19181  0.37982  0.62018     C
C      0.19181  0.62018  0.37982     C
C      0.19181  0.62018  0.62018     C
H       0.1924   0.1924   0.4177     H
H       0.1924   0.1924   0.5823     H
H       0.1924   0.4177   0.1924     H
H       0.1924   0.4177   0.8076     H
H       0.1924   0.5823   0.1924     H
H       0.1924   0.5823   0.8076     H
H       0.1924   0.8076   0.4177     H
H       0.1924   0.8076   0.5823     H
H       0.1941   0.2941   0.2941     H
H       0.1941   0.2941   0.7059     H
H       0.1941   0.7059   0.2941     H
H       0.1941   0.7059   0.7059     H
C      0.19508  0.19508  0.39512     C
C      0.19508  0.19508  0.60488     C
C      0.19508  0.39512  0.19508     C
C      0.19508  0.39512  0.80492     C
C      0.19508  0.60488  0.19508     C
C      0.19508  0.60488  0.80492     C
C      0.19508  0.80492  0.39512     C
C      0.19508  0.80492  0.60488     C
O      0.20086  0.03338  0.15431     O
O      0.20086  0.03338  0.84569     O
O      0.20086  0.15431  0.03338     O
O      0.20086  0.15431  0.96662     O
O      0.20086  0.84569  0.03338     O
O      0.20086  0.84569  0.96662     O
O      0.20086  0.96662  0.15431     O
O      0.20086  0.96662  0.84569     O
C      0.20308  0.20308  0.32849     C
C      0.20308  0.20308  0.67151     C
C      0.20308  0.32849  0.20308     C
C      0.20308  0.32849  0.79692     C
C      0.20308  0.67151  0.20308     C
C      0.20308  0.67151  0.79692     C
C      0.20308  0.79692  0.32849     C
C      0.20308  0.79692  0.67151     C
H       0.2037   0.3346   0.3346     H
H       0.2037   0.3346   0.6654     H
H       0.2037   0.6654   0.3346     H
H       0.2037   0.6654   0.6654     H
C      0.20487  0.07048  0.11137     C
C      0.20487  0.07048  0.88863     C
C      0.20487  0.11137  0.07048     C
C      0.20487  0.11137  0.92952     C
C      0.20487  0.88863  0.07048     C
C      0.20487  0.88863  0.92952     C
C      0.20487  0.92952  0.11137     C
C      0.20487  0.92952  0.88863     C
H       0.2059   0.2059   0.3059     H
H       0.2059   0.2059   0.6941     H
H       0.2059   0.3059   0.2059     H
H       0.2059   0.3059   0.7941     H
H       0.2059   0.6941   0.2059     H
H       0.2059   0.6941   0.7941     H
H       0.2059   0.7941   0.3059     H
H       0.2059   0.7941   0.6941     H
O      0.21129  0.21129  0.44734     O
O      0.21129  0.21129  0.55266     O
O      0.21129  0.44734  0.21129     O
O      0.21129  0.44734  0.78871     O
O      0.21129  0.55266  0.21129     O
O      0.21129  0.55266  0.78871     O
O      0.21129  0.78871  0.44734     O
O      0.21129  0.78871  0.55266     O
C       0.2173   0.2173   0.3831     C
C       0.2173   0.2173   0.6169     C
C       0.2173   0.3831   0.2173     C
C       0.2173   0.3831   0.7827     C
C       0.2173   0.6169   0.2173     C
C       0.2173   0.6169   0.7827     C
C       0.2173   0.7827   0.3831     C
C       0.2173   0.7827   0.6169     C
N      0.21817      0.0  0.21817     N
N      0.21817      0.0  0.78183     N
N      0.21817  0.21817      0.0     N
N      0.21817  0.78183      0.0     N
H       0.2186   0.2186      0.5     H
H       0.2186      0.5   0.2186     H
H       0.2186      0.5   0.7814     H
H       0.2186   0.7814      0.5     H
H       0.2211   0.0482   0.2211     H
H       0.2211   0.0482   0.7789     H
H       0.2211   0.2211   0.0482     H
H       0.2211   0.2211   0.9518     H
H       0.2211   0.7789   0.0482     H
H       0.2211   0.7789   0.9518     H
H       0.2211   0.9518   0.2211     H
H       0.2211   0.9518   0.7789     H
C      0.22134  0.22134  0.35098     C
C      0.22134  0.22134  0.64902     C
C      0.22134  0.35098  0.22134     C
C      0.22134  0.35098  0.77866     C
C      0.22134  0.64902  0.22134     C
C      0.22134  0.64902  0.77866     C
C      0.22134  0.77866  0.35098     C
C      0.22134  0.77866  0.64902     C
N       0.2249  0.37313  0.37313     N
N       0.2249  0.37313  0.62687     N
N       0.2249  0.62687  0.37313     N
N       0.2249  0.62687  0.62687     N
H       0.2272   0.3513   0.3766     H
H       0.2272   0.3513   0.6234     H
H       0.2272   0.3766   0.3513     H
H       0.2272   0.3766   0.6487     H
H       0.2272   0.6234   0.3513     H
H       0.2272   0.6234   0.6487     H
H       0.2272   0.6487   0.3766     H
H       0.2272   0.6487   0.6234     H
C      0.22922  0.02846  0.22922     C
C      0.22922  0.02846  0.77078     C
C      0.22922  0.22922  0.02846     C
C      0.22922  0.22922  0.97154     C
C      0.22922  0.77078  0.02846     C
C      0.22922  0.77078  0.97154     C
C      0.22922  0.97154  0.22922     C
C      0.22922  0.97154  0.77078     C
C      0.23161  0.08496  0.12611     C
C      0.23161  0.08496  0.87389     C
C      0.23161  0.12611  0.08496     C
C      0.23161  0.12611  0.91504     C
C      0.23161  0.87389  0.08496     C
C      0.23161  0.87389  0.91504     C
C      0.23161  0.91504  0.12611     C
C      0.23161  0.91504  0.87389     C
C      0.23252  0.23252  0.44128     C
C      0.23252  0.23252  0.55872     C
C      0.23252  0.44128  0.23252     C
C      0.23252  0.44128  0.76748     C
C      0.23252  0.55872  0.23252     C
C      0.23252  0.55872  0.76748     C
C      0.23252  0.76748  0.44128     C
C      0.23252  0.76748  0.55872     C
C       0.2348   0.2348      0.5     C
C       0.2348      0.5   0.2348     C
C       0.2348      0.5   0.7652     C
C       0.2348   0.7652      0.5     C
H       0.2366   0.2366   0.3434     H
H       0.2366   0.2366   0.6566     H
H       0.2366   0.3434   0.2366     H
H       0.2366   0.3434   0.7634     H
H       0.2366   0.6566   0.2366     H
H       0.2366   0.6566   0.7634     H
H       0.2366   0.7634   0.3434     H
H       0.2366   0.7634   0.6566     H
N       0.2376   0.2376  0.40802     N
N       0.2376   0.2376  0.59198     N
N       0.2376  0.40802   0.2376     N
N       0.2376  0.40802   0.7624     N
N       0.2376  0.59198   0.2376     N
N       0.2376  0.59198   0.7624     N
N       0.2376   0.7624  0.40802     N
N       0.2376   0.7624  0.59198     N
H         0.24   0.0766   0.1457     H
H         0.24   0.0766   0.8543     H
H         0.24   0.1457   0.0766     H
H         0.24   0.1457   0.9234     H
H         0.24   0.8543   0.0766     H
H         0.24   0.8543   0.9234     H
H         0.24   0.9234   0.1457     H
H         0.24   0.9234   0.8543     H
C      0.24566  0.11163  0.11163     C
C      0.24566  0.11163  0.88837     C
C      0.24566  0.88837  0.11163     C
C      0.24566  0.88837  0.88837     C
C      0.24658  0.24658  0.47197     C
C      0.24658  0.24658  0.52803     C
C      0.24658  0.47197  0.24658     C
C      0.24658  0.47197  0.75342     C
C      0.24658  0.52803  0.24658     C
C      0.24658  0.52803  0.75342     C
C      0.24658  0.75342  0.47197     C
C      0.24658  0.75342  0.52803     C
H       0.2482   0.0987   0.2482     H
H       0.2482   0.0987   0.7518     H
H       0.2482   0.2482   0.0987     H
H       0.2482   0.2482   0.9013     H
H       0.2482   0.7518   0.0987     H
H       0.2482   0.7518   0.9013     H
H       0.2482   0.9013   0.2482     H
H       0.2482   0.9013   0.7518     H
H       0.2518   0.2518   0.4013     H
H       0.2518   0.2518   0.5987     H
H       0.2518   0.4013   0.2518     H
H       0.2518   0.4013   0.7482     H
H       0.2518   0.5987   0.2518     H
H       0.2518   0.5987   0.7482     H
H       0.2518   0.7482   0.4013     H
H       0.2518   0.7482   0.5987     H
C      0.25342  0.02803  0.25342     C
C      0.25342  0.02803  0.74658     C
C      0.25342  0.25342  0.02803     C
C      0.25342  0.25342  0.97197     C
C      0.25342  0.74658  0.02803     C
C      0.25342  0.74658  0.97197     C
C      0.25342  0.97197  0.25342     C
C      0.25342  0.97197  0.74658     C
C      0.25434  0.38837  0.38837     C
C      0.25434  0.38837  0.61163     C
C      0.25434  0.61163  0.38837     C
C      0.25434  0.61163  0.61163     C
H         0.26   0.3543   0.4234     H
H         0.26   0.3543   0.5766     H
H         0.26   0.4234   0.3543     H
H         0.26   0.4234   0.6457     H
H         0.26   0.5766   0.3543     H
H         0.26   0.5766   0.6457     H
H         0.26   0.6457   0.4234     H
H         0.26   0.6457   0.5766     H
N       0.2624  0.09198   0.2624     N
N       0.2624  0.09198   0.7376     N
N       0.2624   0.2624  0.09198     N
N       0.2624   0.2624  0.90802     N
N       0.2624   0.7376  0.09198     N
N       0.2624   0.7376  0.90802     N
N       0.2624  0.90802   0.2624     N
N       0.2624  0.90802   0.7376     N
H       0.2634   0.1566   0.2634     H
H       0.2634   0.1566   0.7366     H
H       0.2634   0.2634   0.1566     H
H       0.2634   0.2634   0.8434     H
H       0.2634   0.7366   0.1566     H
H       0.2634   0.7366   0.8434     H
H       0.2634   0.8434   0.2634     H
H       0.2634   0.8434   0.7366     H
C       0.2652      0.0   0.2652     C
C       0.2652      0.0   0.7348     C
C       0.2652   0.2652      0.0     C
C       0.2652   0.7348      0.0     C
C      0.26748  0.05872  0.26748     C
C      0.26748  0.05872  0.73252     C
C      0.26748  0.26748  0.05872     C
C      0.26748  0.26748  0.94128     C
C      0.26748  0.73252  0.05872     C
C      0.26748  0.73252  0.94128     C
C      0.26748  0.94128  0.26748     C
C      0.26748  0.94128  0.73252     C
C      0.26839  0.37389  0.41504     C
C      0.26839  0.37389  0.58496     C
C      0.26839  0.41504  0.37389     C
C      0.26839  0.41504  0.62611     C
C      0.26839  0.58496  0.37389     C
C      0.26839  0.58496  0.62611     C
C      0.26839  0.62611  0.41504     C
C      0.26839  0.62611  0.58496     C
C      0.27078  0.27078  0.47154     C
C      0.27078  0.27078  0.52846     C
C      0.27078  0.47154  0.27078     C
C      0.27078  0.47154  0.72922     C
C      0.27078  0.52846  0.27078     C
C      0.27078  0.52846  0.72922     C
C      0.27078  0.72922  0.47154     C
C      0.27078  0.72922  0.52846     C
H       0.2728   0.1234   0.1487     H
H       0.2728   0.1234   0.8513     H
H       0.2728   0.1487   0.1234     H
H       0.2728   0.1487   0.8766     H
H       0.2728   0.8513   0.1234     H
H       0.2728   0.8513   0.8766     H
H       0.2728   0.8766   0.1487     H
H       0.2728   0.8766   0.8513     H
N       0.2751  0.12687  0.12687     N
N       0.2751  0.12687  0.87313     N
N       0.2751  0.87313  0.12687     N
N       0.2751  0.87313  0.87313     N
C      0.27866  0.14902  0.27866     C
C      0.27866  0.14902  0.72134     C
C      0.27866  0.27866  0.14902     C
C      0.27866  0.27866  0.85098     C
C      0.27866  0.72134  0.14902     C
C      0.27866  0.72134  0.85098     C
C      0.27866  0.85098  0.27866     C
C      0.27866  0.85098  0.72134     C
H       0.2789   0.2789   0.4518     H
H       0.2789   0.2789   0.5482     H
H       0.2789   0.4518   0.2789     H
H       0.2789   0.4518   0.7211     H
H       0.2789   0.5482   0.2789     H
H       0.2789   0.5482   0.7211     H
H       0.2789   0.7211   0.4518     H
H       0.2789   0.7211   0.5482     H
H       0.2814      0.0   0.2814     H
H       0.2814      0.0   0.7186     H
H       0.2814   0.2814      0.0     H
H       0.2814   0.7186      0.0     H
N      0.28183  0.28183      0.5     N
N      0.28183      0.5  0.28183     N
N      0.28183      0.5  0.71817     N
N      0.28183  0.71817      0.5     N
C       0.2827   0.1169   0.2827     C
C       0.2827   0.1169   0.7173     C
C       0.2827   0.2827   0.1169     C
C       0.2827   0.2827   0.8831     C
C       0.2827   0.7173   0.1169     C
C       0.2827   0.7173   0.8831     C
C       0.2827   0.8831   0.2827     C
C       0.2827   0.8831   0.7173     C
O      0.28871  0.05266  0.28871     O
O      0.28871  0.05266  0.71129     O
O      0.28871  0.28871  0.05266     O
O      0.28871  0.28871  0.94734     O
O      0.28871  0.71129  0.05266     O
O      0.28871  0.71129  0.94734     O
O      0.28871  0.94734  0.28871     O
O      0.28871  0.94734  0.71129     O
H       0.2941   0.1941   0.2941     H
H       0.2941   0.1941   0.7059     H
H       0.2941   0.2941   0.1941     H
H       0.2941   0.2941   0.8059     H
H       0.2941   0.7059   0.1941     H
H       0.2941   0.7059   0.8059     H
H       0.2941   0.8059   0.2941     H
H       0.2941   0.8059   0.7059     H
C      0.29513  0.38863  0.42952     C
C      0.29513  0.38863  0.57048     C
C      0.29513  0.42952  0.38863     C
C      0.29513  0.42952  0.61137     C
C      0.29513  0.57048  0.38863     C
C      0.29513  0.57048  0.61137     C
C      0.29513  0.61137  0.42952     C
C      0.29513  0.61137  0.57048     C
H       0.2963   0.1654   0.1654     H
H       0.2963   0.1654   0.8346     H
H       0.2963   0.8346   0.1654     H
H       0.2963   0.8346   0.8346     H
C      0.29692  0.17151  0.29692     C
C      0.29692  0.17151  0.70308     C
C      0.29692  0.29692  0.17151     C
C      0.29692  0.29692  0.82849     C
C      0.29692  0.70308  0.17151     C
C      0.29692  0.70308  0.82849     C
C      0.29692  0.82849  0.29692     C
C      0.29692  0.82849  0.70308     C
O      0.29914  0.34569  0.46662     O
O      0.29914  0.34569  0.53338     O
O      0.29914  0.46662  0.34569     O
O      0.29914  0.46662  0.65431     O
O      0.29914  0.53338  0.34569     O
O      0.29914  0.53338  0.65431     O
O      0.29914  0.65431  0.46662     O
O      0.29914  0.65431  0.53338     O
C      0.30492  0.10488  0.30492     C
C      0.30492  0.10488  0.69508     C
C      0.30492  0.30492  0.10488     C
C      0.30492  0.30492  0.89512     C
C      0.30492  0.69508  0.10488     C
C      0.30492  0.69508  0.89512     C
C      0.30492  0.89512  0.30492     C
C      0.30492  0.89512  0.69508     C
H       0.3059   0.2059   0.2059     H
H       0.3059   0.2059   0.7941     H
H       0.3059   0.7941   0.2059     H
H       0.3059   0.7941   0.7941     H
H       0.3076   0.0823   0.3076     H
H       0.3076   0.0823   0.6924     H
H       0.3076   0.3076   0.0823     H
H       0.3076   0.3076   0.9177     H
H       0.3076   0.6924   0.0823     H
H       0.3076   0.6924   0.9177     H
H       0.3076   0.9177   0.3076     H
H       0.3076   0.9177   0.6924     H
C      0.30819  0.12018  0.12018     C
C      0.30819  0.12018  0.87982     C
C      0.30819  0.87982  0.12018     C
C      0.30819  0.87982  0.87982     C
C      0.30831  0.41618  0.41618     C
C      0.30831  0.41618  0.58382     C
C      0.30831  0.58382  0.41618     C
C      0.30831  0.58382  0.58382     C
C       0.3117  0.37155  0.45596     C
C       0.3117  0.37155  0.54404     C
C       0.3117  0.45596  0.37155     C
C       0.3117  0.45596  0.62845     C
C       0.3117  0.54404  0.37155     C
C       0.3117  0.54404  0.62845     C
C       0.3117  0.62845  0.45596     C
C       0.3117  0.62845  0.54404     C
Cu     0.31881  0.31881      0.5    Cu
Cu     0.31881      0.5  0.31881    Cu
Cu     0.31881      0.5  0.68119    Cu
Cu     0.31881  0.68119      0.5    Cu
C      0.31883  0.16253  0.16253     C
C      0.31883  0.16253  0.83747     C
C      0.31883  0.83747  0.16253     C
C      0.31883  0.83747  0.83747     C
C      0.31918  0.15951  0.31918     C
C      0.31918  0.15951  0.68082     C
C      0.31918  0.31918  0.15951     C
C      0.31918  0.31918  0.84049     C
C      0.31918  0.68082  0.15951     C
C      0.31918  0.68082  0.84049     C
C      0.31918  0.84049  0.31918     C
C      0.31918  0.84049  0.68082     C
O      0.32169  0.10151  0.10151     O
O      0.32169  0.10151  0.89849     O
O      0.32169  0.89849  0.10151     O
O      0.32169  0.89849  0.89849     O
C      0.32341  0.12682  0.32341     C
C      0.32341  0.12682  0.67659     C
C      0.32341  0.32341  0.12682     C
C      0.32341  0.32341  0.87318     C
C      0.32341  0.67659  0.12682     C
C      0.32341  0.67659  0.87318     C
C      0.32341  0.87318  0.32341     C
C      0.32341  0.87318  0.67659     C
H       0.3265    0.426    0.426     H
H       0.3265    0.426    0.574     H
H       0.3265    0.574    0.426     H
H       0.3265    0.574    0.574     H
C      0.32849  0.20308  0.20308     C
C      0.32849  0.20308  0.79692     C
C      0.32849  0.79692  0.20308     C
C      0.32849  0.79692  0.79692     C
C      0.32988  0.14093  0.14093     C
C      0.32988  0.14093  0.85907     C
C      0.32988  0.85907  0.14093     C
C      0.32988  0.85907  0.85907     C
H       0.3346   0.2037   0.3346     H
H       0.3346   0.2037   0.6654     H
H       0.3346   0.3346   0.2037     H
H       0.3346   0.3346   0.7963     H
H       0.3346   0.6654   0.2037     H
H       0.3346   0.6654   0.7963     H
H       0.3346   0.7963   0.3346     H
H       0.3346   0.7963   0.6654     H
O       0.3371  0.38352  0.46645     O
O       0.3371  0.38352  0.53355     O
O       0.3371  0.46645  0.38352     O
O       0.3371  0.46645  0.61648     O
O       0.3371  0.53355  0.38352     O
O       0.3371  0.53355  0.61648     O
O       0.3371  0.61648  0.46645     O
O       0.3371  0.61648  0.53355     O
C      0.33747  0.18117  0.33747     C
C      0.33747  0.18117  0.66253     C
C      0.33747  0.33747  0.18117     C
C      0.33747  0.33747  0.81883     C
C      0.33747  0.66253  0.18117     C
C      0.33747  0.66253  0.81883     C
C      0.33747  0.81883  0.33747     C
C      0.33747  0.81883  0.66253     C
C      0.34049  0.18082  0.18082     C
C      0.34049  0.18082  0.81918     C
C      0.34049  0.81918  0.18082     C
C      0.34049  0.81918  0.81918     C
H       0.3434   0.2366   0.2366     H
H       0.3434   0.2366   0.7634     H
H       0.3434   0.7634   0.2366     H
H       0.3434   0.7634   0.7634     H
C      0.34511  0.11528  0.34511     C
C      0.34511  0.11528  0.65489     C
C      0.34511  0.34511  0.11528     C
C      0.34511  0.34511  0.88472     C
C      0.34511  0.65489  0.11528     C
C      0.34511  0.65489  0.88472     C
C      0.34511  0.88472  0.34511     C
C      0.34511  0.88472  0.65489     C
O      0.34569  0.29914  0.46662     O
O      0.34569  0.29914  0.53338     O
O      0.34569  0.46662  0.29914     O
O      0.34569  0.46662  0.70086     O
O      0.34569  0.53338  0.29914     O
O      0.34569  0.53338  0.70086     O
O      0.34569  0.70086  0.46662     O
O      0.34569  0.70086  0.53338     O
H       0.3478   0.0927   0.3478     H
H       0.3478   0.0927   0.6522     H
H       0.3478   0.3478   0.0927     H
H       0.3478   0.3478   0.9073     H
H       0.3478   0.6522   0.0927     H
H       0.3478   0.6522   0.9073     H
H       0.3478   0.9073   0.3478     H
H       0.3478   0.9073   0.6522     H
C      0.35098  0.22134  0.22134     C
C      0.35098  0.22134  0.77866     C
C      0.35098  0.77866  0.22134     C
C      0.35098  0.77866  0.77866     C
H       0.3513   0.2272   0.3766     H
H       0.3513   0.2272   0.6234     H
H       0.3513   0.3766   0.2272     H
H       0.3513   0.3766   0.7728     H
H       0.3513   0.6234   0.2272     H
H       0.3513   0.6234   0.7728     H
H       0.3513   0.7728   0.3766     H
H       0.3513   0.7728   0.6234     H
H       0.3543     0.26   0.4234     H
H       0.3543     0.26   0.5766     H
H       0.3543   0.4234     0.26     H
H       0.3543   0.4234     0.74     H
H       0.3543   0.5766     0.26     H
H       0.3543   0.5766     0.74     H
H       0.3543     0.74   0.4234     H
H       0.3543     0.74   0.5766     H
C      0.35907  0.17012  0.35907     C
C      0.35907  0.17012  0.64093     C
C      0.35907  0.35907  0.17012     C
C      0.35907  0.35907  0.82988     C
C      0.35907  0.64093  0.17012     C
C      0.35907  0.64093  0.82988     C
C      0.35907  0.82988  0.35907     C
C      0.35907  0.82988  0.64093     C
C      0.36316  0.13657  0.13657     C
C      0.36316  0.13657  0.86343     C
C      0.36316  0.86343  0.13657     C
C      0.36316  0.86343  0.86343     C
C      0.36343  0.13684  0.36343     C
C      0.36343  0.13684  0.63657     C
C      0.36343  0.36343  0.13684     C
C      0.36343  0.36343  0.86316     C
C      0.36343  0.63657  0.13684     C
C      0.36343  0.63657  0.86316     C
C      0.36343  0.86316  0.36343     C
C      0.36343  0.86316  0.63657     C
Cu     0.36384  0.36384      0.5    Cu
Cu     0.36384      0.5  0.36384    Cu
Cu     0.36384      0.5  0.63616    Cu
Cu     0.36384  0.63616      0.5    Cu
H       0.3709   0.1213   0.1213     H
H       0.3709   0.1213   0.8787     H
H       0.3709   0.8787   0.1213     H
H       0.3709   0.8787   0.8787     H
C      0.37155   0.3117  0.45596     C
C      0.37155   0.3117  0.54404     C
C      0.37155  0.45596   0.3117     C
C      0.37155  0.45596   0.6883     C
C      0.37155  0.54404   0.3117     C
C      0.37155  0.54404   0.6883     C
C      0.37155   0.6883  0.45596     C
C      0.37155   0.6883  0.54404     C
N      0.37313   0.2249  0.37313     N
N      0.37313   0.2249  0.62687     N
N      0.37313  0.37313   0.2249     N
N      0.37313  0.37313   0.7751     N
N      0.37313  0.62687   0.2249     N
N      0.37313  0.62687   0.7751     N
N      0.37313   0.7751  0.37313     N
N      0.37313   0.7751  0.62687     N
C      0.37318  0.17659  0.17659     C
C      0.37318  0.17659  0.82341     C
C      0.37318  0.82341  0.17659     C
C      0.37318  0.82341  0.82341     C
C      0.37389  0.26839  0.41504     C
C      0.37389  0.26839  0.58496     C
C      0.37389  0.41504  0.26839     C
C      0.37389  0.41504  0.73161     C
C      0.37389  0.58496  0.26839     C
C      0.37389  0.58496  0.73161     C
C      0.37389  0.73161  0.41504     C
C      0.37389  0.73161  0.58496     C
H       0.3766   0.2272   0.3513     H
H       0.3766   0.2272   0.6487     H
H       0.3766   0.3513   0.2272     H
H       0.3766   0.3513   0.7728     H
H       0.3766   0.6487   0.2272     H
H       0.3766   0.6487   0.7728     H
H       0.3766   0.7728   0.3513     H
H       0.3766   0.7728   0.6487     H
H       0.3787   0.1291   0.3787     H
H       0.3787   0.1291   0.6213     H
H       0.3787   0.3787   0.1291     H
H       0.3787   0.3787   0.8709     H
H       0.3787   0.6213   0.1291     H
H       0.3787   0.6213   0.8709     H
H       0.3787   0.8709   0.3787     H
H       0.3787   0.8709   0.6213     H
C      0.37982  0.19181  0.37982     C
C      0.37982  0.19181  0.62018     C
C      0.37982  0.37982  0.19181     C
C      0.37982  0.37982  0.80819     C
C      0.37982  0.62018  0.19181     C
C      0.37982  0.62018  0.80819     C
C      0.37982  0.80819  0.37982     C
C      0.37982  0.80819  0.62018     C
C       0.3831   0.2173   0.2173     C
C       0.3831   0.2173   0.7827     C
C       0.3831   0.7827   0.2173     C
C       0.3831   0.7827   0.7827     C
O      0.38352   0.3371  0.46645     O
O      0.38352   0.3371  0.53355     O
O      0.38352  0.46645   0.3371     O
O      0.38352  0.46645   0.6629     O
O      0.38352  0.53355   0.3371     O
O      0.38352  0.53355   0.6629     O
O      0.38352   0.6629  0.46645     O
O      0.38352   0.6629  0.53355     O
C      0.38472  0.15489  0.15489     C
C      0.38472  0.15489  0.84511     C
C      0.38472  0.84511  0.15489     C
C      0.38472  0.84511  0.84511     C
C      0.38837  0.25434  0.38837     C
C      0.38837  0.25434  0.61163     C
C      0.38837  0.38837  0.25434     C
C      0.38837  0.38837  0.74566     C
C      0.38837  0.61163  0.25434     C
C      0.38837  0.61163  0.74566     C
C      0.38837  0.74566  0.38837     C
C      0.38837  0.74566  0.61163     C
C      0.38863  0.29513  0.42952     C
C      0.38863  0.29513  0.57048     C
C      0.38863  0.42952  0.29513     C
C      0.38863  0.42952  0.70487     C
C      0.38863  0.57048  0.29513     C
C      0.38863  0.57048  0.70487     C
C      0.38863  0.70487  0.42952     C
C      0.38863  0.70487  0.57048     C
C      0.39512  0.19508  0.19508     C
C      0.39512  0.19508  0.80492     C
C      0.39512  0.80492  0.19508     C
C      0.39512  0.80492  0.80492     C
O      0.39849  0.17831  0.39849     O
O      0.39849  0.17831  0.60151     O
O      0.39849  0.39849  0.17831     O
O      0.39849  0.39849  0.82169     O
O      0.39849  0.60151  0.17831     O
O      0.39849  0.60151  0.82169     O
O      0.39849  0.82169  0.39849     O
O      0.39849  0.82169  0.60151     O
H       0.4013   0.2518   0.2518     H
H       0.4013   0.2518   0.7482     H
H       0.4013   0.7482   0.2518     H
H       0.4013   0.7482   0.7482     H
H       0.4073   0.1522   0.1522     H
H       0.4073   0.1522   0.8478     H
H       0.4073   0.8478   0.1522     H
H       0.4073   0.8478   0.8478     H
N      0.40802   0.2376   0.2376     N
N      0.40802   0.2376   0.7624     N
N      0.40802   0.7624   0.2376     N
N      0.40802   0.7624   0.7624     N
C      0.41504  0.26839  0.37389     C
C      0.41504  0.26839  0.62611     C
C      0.41504  0.37389  0.26839     C
C      0.41504  0.37389  0.73161     C
C      0.41504  0.62611  0.26839     C
C      0.41504  0.62611  0.73161     C
C      0.41504  0.73161  0.37389     C
C      0.41504  0.73161  0.62611     C
C      0.41618  0.30831  0.41618     C
C      0.41618  0.30831  0.58382     C
C      0.41618  0.41618  0.30831     C
C      0.41618  0.41618  0.69169     C
C      0.41618  0.58382  0.30831     C
C      0.41618  0.58382  0.69169     C
C      0.41618  0.69169  0.41618     C
C      0.41618  0.69169  0.58382     C
H       0.4177   0.1924   0.1924     H
H       0.4177   0.1924   0.8076     H
H       0.4177   0.8076   0.1924     H
H       0.4177   0.8076   0.8076     H
H       0.4234     0.26   0.3543     H
H       0.4234     0.26   0.6457     H
H       0.4234   0.3543     0.26     H
H       0.4234   0.3543     0.74     H
H       0.4234   0.6457     0.26     H
H       0.4234   0.6457     0.74     H
H       0.4234     0.74   0.3543     H
H       0.4234     0.74   0.6457     H
H        0.426   0.3265    0.426     H
H        0.426   0.3265    0.574     H
H        0.426    0.426   0.3265     H
H        0.426    0.426   0.6735     H
H        0.426    0.574   0.3265     H
H        0.426    0.574   0.6735     H
H        0.426   0.6735    0.426     H
H        0.426   0.6735    0.574     H
C      0.42952  0.29513  0.38863     C
C      0.42952  0.29513  0.61137     C
C      0.42952  0.38863  0.29513     C
C      0.42952  0.38863  0.70487     C
C      0.42952  0.61137  0.29513     C
C      0.42952  0.61137  0.70487     C
C      0.42952  0.70487  0.38863     C
C      0.42952  0.70487  0.61137     C
C      0.44128  0.23252  0.23252     C
C      0.44128  0.23252  0.76748     C
C      0.44128  0.76748  0.23252     C
C      0.44128  0.76748  0.76748     C
O      0.44734  0.21129  0.21129     O
O      0.44734  0.21129  0.78871     O
O      0.44734  0.78871  0.21129     O
O      0.44734  0.78871  0.78871     O
H       0.4518   0.2789   0.2789     H
H       0.4518   0.2789   0.7211     H
H       0.4518   0.7211   0.2789     H
H       0.4518   0.7211   0.7211     H
C      0.45596   0.3117  0.37155     C
C      0.45596   0.3117  0.62845     C
C      0.45596  0.37155   0.3117     C
C      0.45596  0.37155   0.6883     C
C      0.45596  0.62845   0.3117     C
C      0.45596  0.62845   0.6883     C
C      0.45596   0.6883  0.37155     C
C      0.45596   0.6883  0.62845     C
O      0.46645   0.3371  0.38352     O
O      0.46645   0.3371  0.61648     O
O      0.46645  0.38352   0.3371     O
O      0.46645  0.38352   0.6629     O
O      0.46645  0.61648   0.3371     O
O      0.46645  0.61648   0.6629     O
O      0.46645   0.6629  0.38352     O
O      0.46645   0.6629  0.61648     O
O      0.46662  0.29914  0.34569     O
O      0.46662  0.29914  0.65431     O
O      0.46662  0.34569  0.29914     O
O      0.46662  0.34569  0.70086     O
O      0.46662  0.65431  0.29914     O
O      0.46662  0.65431  0.70086     O
O      0.46662  0.70086  0.34569     O
O      0.46662  0.70086  0.65431     O
C      0.47154  0.27078  0.27078     C
C      0.47154  0.27078  0.72922     C
C      0.47154  0.72922  0.27078     C
C      0.47154  0.72922  0.72922     C
C      0.47197  0.24658  0.24658     C
C      0.47197  0.24658  0.75342     C
C      0.47197  0.75342  0.24658     C
C      0.47197  0.75342  0.75342     C
H          0.5   0.2186   0.2186     H
H          0.5   0.2186   0.7814     H
C          0.5   0.2348   0.2348     C
C          0.5   0.2348   0.7652     C
N          0.5  0.28183  0.28183     N
N          0.5  0.28183  0.71817     N
Cu         0.5  0.31881  0.31881    Cu
Cu         0.5  0.31881  0.68119    Cu
Cu         0.5  0.36384  0.36384    Cu
Cu         0.5  0.36384  0.63616    Cu
Cu         0.5  0.63616  0.36384    Cu
Cu         0.5  0.63616  0.63616    Cu
Cu         0.5  0.68119  0.31881    Cu
Cu         0.5  0.68119  0.68119    Cu
N          0.5  0.71817  0.28183     N
N          0.5  0.71817  0.71817     N
C          0.5   0.7652   0.2348     C
C          0.5   0.7652   0.7652     C
H          0.5   0.7814   0.2186     H
H          0.5   0.7814   0.7814     H
C      0.52803  0.24658  0.24658     C
C      0.52803  0.24658  0.75342     C
C      0.52803  0.75342  0.24658     C
C      0.52803  0.75342  0.75342     C
C      0.52846  0.27078  0.27078     C
C      0.52846  0.27078  0.72922     C
C      0.52846  0.72922  0.27078     C
C      0.52846  0.72922  0.72922     C
O      0.53338  0.29914  0.34569     O
O      0.53338  0.29914  0.65431     O
O      0.53338  0.34569  0.29914     O
O      0.53338  0.34569  0.70086     O
O      0.53338  0.65431  0.29914     O
O      0.53338  0.65431  0.70086     O
O      0.53338  0.70086  0.34569     O
O      0.53338  0.70086  0.65431     O
O      0.53355   0.3371  0.38352     O
O      0.53355   0.3371  0.61648     O
O      0.53355  0.38352   0.3371     O
O      0.53355  0.38352   0.6629     O
O      0.53355  0.61648   0.3371     O
O      0.53355  0.61648   0.6629     O
O      0.53355   0.6629  0.38352     O
O      0.53355   0.6629  0.61648     O
C      0.54404   0.3117  0.37155     C
C      0.54404   0.3117  0.62845     C
C      0.54404  0.37155   0.3117     C
C      0.54404  0.37155   0.6883     C
C      0.54404  0.62845   0.3117     C
C      0.54404  0.62845   0.6883     C
C      0.54404   0.6883  0.37155     C
C      0.54404   0.6883  0.62845     C
H       0.5482   0.2789   0.2789     H
H       0.5482   0.2789   0.7211     H
H       0.5482   0.7211   0.2789     H
H       0.5482   0.7211   0.7211     H
O      0.55266  0.21129  0.21129     O
O      0.55266  0.21129  0.78871     O
O      0.55266  0.78871  0.21129     O
O      0.55266  0.78871  0.78871     O
C      0.55872  0.23252  0.23252     C
C      0.55872  0.23252  0.76748     C
C      0.55872  0.76748  0.23252     C
C      0.55872  0.76748  0.76748     C
C      0.57048  0.29513  0.38863     C
C      0.57048  0.29513  0.61137     C
C      0.57048  0.38863  0.29513     C
C      0.57048  0.38863  0.70487     C
C      0.57048  0.61137  0.29513     C
C      0.57048  0.61137  0.70487     C
C      0.57048  0.70487  0.38863     C
C      0.57048  0.70487  0.61137     C
H        0.574   0.3265    0.426     H
H        0.574   0.3265    0.574     H
H        0.574    0.426   0.3265     H
H        0.574    0.426   0.6735     H
H        0.574    0.574   0.3265     H
H        0.574    0.574   0.6735     H
H        0.574   0.6735    0.426     H
H        0.574   0.6735    0.574     H
H       0.5766     0.26   0.3543     H
H       0.5766     0.26   0.6457     H
H       0.5766   0.3543     0.26     H
H       0.5766   0.3543     0.74     H
H       0.5766   0.6457     0.26     H
H       0.5766   0.6457     0.74     H
H       0.5766     0.74   0.3543     H
H       0.5766     0.74   0.6457     H
H       0.5823   0.1924   0.1924     H
H       0.5823   0.1924   0.8076     H
H       0.5823   0.8076   0.1924     H
H       0.5823   0.8076   0.8076     H
C      0.58382  0.30831  0.41618     C
C      0.58382  0.30831  0.58382     C
C      0.58382  0.41618  0.30831     C
C      0.58382  0.41618  0.69169     C
C      0.58382  0.58382  0.30831     C
C      0.58382  0.58382  0.69169     C
C      0.58382  0.69169  0.41618     C
C      0.58382  0.69169  0.58382     C
C      0.58496  0.26839  0.37389     C
C      0.58496  0.26839  0.62611     C
C      0.58496  0.37389  0.26839     C
C      0.58496  0.37389  0.73161     C
C      0.58496  0.62611  0.26839     C
C      0.58496  0.62611  0.73161     C
C      0.58496  0.73161  0.37389     C
C      0.58496  0.73161  0.62611     C
N      0.59198   0.2376   0.2376     N
N      0.59198   0.2376   0.7624     N
N      0.59198   0.7624   0.2376     N
N      0.59198   0.7624   0.7624     N
H       0.5927   0.1522   0.1522     H
H       0.5927   0.1522   0.8478     H
H       0.5927   0.8478   0.1522     H
H       0.5927   0.8478   0.8478     H
H       0.5987   0.2518   0.2518     H
H       0.5987   0.2518   0.7482     H
H       0.5987   0.7482   0.2518     H
H       0.5987   0.7482   0.7482     H
O      0.60151  0.17831  0.39849     O
O      0.60151  0.17831  0.60151     O
O      0.60151  0.39849  0.17831     O
O      0.60151  0.39849  0.82169     O
O      0.60151  0.60151  0.17831     O
O      0.60151  0.60151  0.82169     O
O      0.60151  0.82169  0.39849     O
O      0.60151  0.82169  0.60151     O
C      0.60488  0.19508  0.19508     C
C      0.60488  0.19508  0.80492     C
C      0.60488  0.80492  0.19508     C
C      0.60488  0.80492  0.80492     C
C      0.61137  0.29513  0.42952     C
C      0.61137  0.29513  0.57048     C
C      0.61137  0.42952  0.29513     C
C      0.61137  0.42952  0.70487     C
C      0.61137  0.57048  0.29513     C
C      0.61137  0.57048  0.70487     C
C      0.61137  0.70487  0.42952     C
C      0.61137  0.70487  0.57048     C
C      0.61163  0.25434  0.38837     C
C      0.61163  0.25434  0.61163     C
C      0.61163  0.38837  0.25434     C
C      0.61163  0.38837  0.74566     C
C      0.61163  0.61163  0.25434     C
C      0.61163  0.61163  0.74566     C
C      0.61163  0.74566  0.38837     C
C      0.61163  0.74566  0.61163     C
C      0.61528  0.15489  0.15489     C
C      0.61528  0.15489  0.84511     C
C      0.61528  0.84511  0.15489     C
C      0.61528  0.84511  0.84511     C
O      0.61648   0.3371  0.46645     O
O      0.61648   0.3371  0.53355     O
O      0.61648  0.46645   0.3371     O
O      0.61648  0.46645   0.6629     O
O      0.61648  0.53355   0.3371     O
O      0.61648  0.53355   0.6629     O
O      0.61648   0.6629  0.46645     O
O      0.61648   0.6629  0.53355     O
C       0.6169   0.2173   0.2173     C
C       0.6169   0.2173   0.7827     C
C       0.6169   0.7827   0.2173     C
C       0.6169   0.7827   0.7827     C
C      0.62018  0.19181  0.37982     C
C      0.62018  0.19181  0.62018     C
C      0.62018  0.37982  0.19181     C
C      0.62018  0.37982  0.80819     C
C      0.62018  0.62018  0.19181     C
C      0.62018  0.62018  0.80819     C
C      0.62018  0.80819  0.37982     C
C      0.62018  0.80819  0.62018     C
H       0.6213   0.1291   0.3787     H
H       0.6213   0.1291   0.6213     H
H       0.6213   0.3787   0.1291     H
H       0.6213   0.3787   0.8709     H
H       0.6213   0.6213   0.1291     H
H       0.6213   0.6213   0.8709     H
H       0.6213   0.8709   0.3787     H
H       0.6213   0.8709   0.6213     H
H       0.6234   0.2272   0.3513     H
H       0.6234   0.2272   0.6487     H
H       0.6234   0.3513   0.2272     H
H       0.6234   0.3513   0.7728     H
H       0.6234   0.6487   0.2272     H
H       0.6234   0.6487   0.7728     H
H       0.6234   0.7728   0.3513     H
H       0.6234   0.7728   0.6487     H
C      0.62611  0.26839  0.41504     C
C      0.62611  0.26839  0.58496     C
C      0.62611  0.41504  0.26839     C
C      0.62611  0.41504  0.73161     C
C      0.62611  0.58496  0.26839     C
C      0.62611  0.58496  0.73161     C
C      0.62611  0.73161  0.41504     C
C      0.62611  0.73161  0.58496     C
C      0.62682  0.17659  0.17659     C
C      0.62682  0.17659  0.82341     C
C      0.62682  0.82341  0.17659     C
C      0.62682  0.82341  0.82341     C
N      0.62687   0.2249  0.37313     N
N      0.62687   0.2249  0.62687     N
N      0.62687  0.37313   0.2249     N
N      0.62687  0.37313   0.7751     N
N      0.62687  0.62687   0.2249     N
N      0.62687  0.62687   0.7751     N
N      0.62687   0.7751  0.37313     N
N      0.62687   0.7751  0.62687     N
C      0.62845   0.3117  0.45596     C
C      0.62845   0.3117  0.54404     C
C      0.62845  0.45596   0.3117     C
C      0.62845  0.45596   0.6883     C
C      0.62845  0.54404   0.3117     C
C      0.62845  0.54404   0.6883     C
C      0.62845   0.6883  0.45596     C
C      0.62845   0.6883  0.54404     C
H       0.6291   0.1213   0.1213     H
H       0.6291   0.1213   0.8787     H
H       0.6291   0.8787   0.1213     H
H       0.6291   0.8787   0.8787     H
Cu     0.63616  0.36384      0.5    Cu
Cu     0.63616      0.5  0.36384    Cu
Cu     0.63616      0.5  0.63616    Cu
Cu     0.63616  0.63616      0.5    Cu
C      0.63657  0.13684  0.36343     C
C      0.63657  0.13684  0.63657     C
C      0.63657  0.36343  0.13684     C
C      0.63657  0.36343  0.86316     C
C      0.63657  0.63657  0.13684     C
C      0.63657  0.63657  0.86316     C
C      0.63657  0.86316  0.36343     C
C      0.63657  0.86316  0.63657     C
C      0.63684  0.13657  0.13657     C
C      0.63684  0.13657  0.86343     C
C      0.63684  0.86343  0.13657     C
C      0.63684  0.86343  0.86343     C
C      0.64093  0.17012  0.35907     C
C      0.64093  0.17012  0.64093     C
C      0.64093  0.35907  0.17012     C
C      0.64093  0.35907  0.82988     C
C      0.64093  0.64093  0.17012     C
C      0.64093  0.64093  0.82988     C
C      0.64093  0.82988  0.35907     C
C      0.64093  0.82988  0.64093     C
H       0.6457     0.26   0.4234     H
H       0.6457     0.26   0.5766     H
H       0.6457   0.4234     0.26     H
H       0.6457   0.4234     0.74     H
H       0.6457   0.5766     0.26     H
H       0.6457   0.5766     0.74     H
H       0.6457     0.74   0.4234     H
H       0.6457     0.74   0.5766     H
H       0.6487   0.2272   0.3766     H
H       0.6487   0.2272   0.6234     H
H       0.6487   0.3766   0.2272     H
H       0.6487   0.3766   0.7728     H
H       0.6487   0.6234   0.2272     H
H       0.6487   0.6234   0.7728     H
H       0.6487   0.7728   0.3766     H
H       0.6487   0.7728   0.6234     H
C      0.64902  0.22134  0.22134     C
C      0.64902  0.22134  0.77866     C
C      0.64902  0.77866  0.22134     C
C      0.64902  0.77866  0.77866     C
H       0.6522   0.0927   0.3478     H
H       0.6522   0.0927   0.6522     H
H       0.6522   0.3478   0.0927     H
H       0.6522   0.3478   0.9073     H
H       0.6522   0.6522   0.0927     H
H       0.6522   0.6522   0.9073     H
H       0.6522   0.9073   0.3478     H
H       0.6522   0.9073   0.6522     H
O      0.65431  0.29914  0.46662     O
O      0.65431  0.29914  0.53338     O
O      0.65431  0.46662  0.29914     O
O      0.65431  0.46662  0.70086     O
O      0.65431  0.53338  0.29914     O
O      0.65431  0.53338  0.70086     O
O      0.65431  0.70086  0.46662     O
O      0.65431  0.70086  0.53338     O
C      0.65489  0.11528  0.34511     C
C      0.65489  0.11528  0.65489     C
C      0.65489  0.34511  0.11528     C
C      0.65489  0.34511  0.88472     C
C      0.65489  0.65489  0.11528     C
C      0.65489  0.65489  0.88472     C
C      0.65489  0.88472  0.34511     C
C      0.65489  0.88472  0.65489     C
H       0.6566   0.2366   0.2366     H
H       0.6566   0.2366   0.7634     H
H       0.6566   0.7634   0.2366     H
H       0.6566   0.7634   0.7634     H
C      0.65951  0.18082  0.18082     C
C      0.65951  0.18082  0.81918     C
C      0.65951  0.81918  0.18082     C
C      0.65951  0.81918  0.81918     C
C      0.66253  0.18117  0.33747     C
C      0.66253  0.18117  0.66253     C
C      0.66253  0.33747  0.18117     C
C      0.66253  0.33747  0.81883     C
C      0.66253  0.66253  0.18117     C
C      0.66253  0.66253  0.81883     C
C      0.66253  0.81883  0.33747     C
C      0.66253  0.81883  0.66253     C
O       0.6629  0.38352  0.46645     O
O       0.6629  0.38352  0.53355     O
O       0.6629  0.46645  0.38352     O
O       0.6629  0.46645  0.61648     O
O       0.6629  0.53355  0.38352     O
O       0.6629  0.53355  0.61648     O
O       0.6629  0.61648  0.46645     O
O       0.6629  0.61648  0.53355     O
H       0.6654   0.2037   0.3346     H
H       0.6654   0.2037   0.6654     H
H       0.6654   0.3346   0.2037     H
H       0.6654   0.3346   0.7963     H
H       0.6654   0.6654   0.2037     H
H       0.6654   0.6654   0.7963     H
H       0.6654   0.7963   0.3346     H
H       0.6654   0.7963   0.6654     H
C      0.67012  0.14093  0.14093     C
C      0.67012  0.14093  0.85907     C
C      0.67012  0.85907  0.14093     C
C      0.67012  0.85907  0.85907     C
C      0.67151  0.20308  0.20308     C
C      0.67151  0.20308  0.79692     C
C      0.67151  0.79692  0.20308     C
C      0.67151  0.79692  0.79692     C
H       0.6735    0.426    0.426     H
H       0.6735    0.426    0.574     H
H       0.6735    0.574    0.426     H
H       0.6735    0.574    0.574     H
C      0.67659  0.12682  0.32341     C
C      0.67659  0.12682  0.67659     C
C      0.67659  0.32341  0.12682     C
C      0.67659  0.32341  0.87318     C
C      0.67659  0.67659  0.12682     C
C      0.67659  0.67659  0.87318     C
C      0.67659  0.87318  0.32341     C
C      0.67659  0.87318  0.67659     C
O      0.67831  0.10151  0.10151     O
O      0.67831  0.10151  0.89849     O
O      0.67831  0.89849  0.10151     O
O      0.67831  0.89849  0.89849     O
C      0.68082  0.15951  0.31918     C
C      0.68082  0.15951  0.68082     C
C      0.68082  0.31918  0.15951     C
C      0.68082  0.31918  0.84049     C
C      0.68082  0.68082  0.15951     C
C      0.68082  0.68082  0.84049     C
C      0.68082  0.84049  0.31918     C
C      0.68082  0.84049  0.68082     C
C      0.68117  0.16253  0.16253     C
C      0.68117  0.16253  0.83747     C
C      0.68117  0.83747  0.16253     C
C      0.68117  0.83747  0.83747     C
Cu     0.68119  0.31881      0.5    Cu
Cu     0.68119      0.5  0.31881    Cu
Cu     0.68119      0.5  0.68119    Cu
Cu     0.68119  0.68119      0.5    Cu
C       0.6883  0.37155  0.45596     C
C       0.6883  0.37155  0.54404     C
C       0.6883  0.45596  0.37155     C
C       0.6883  0.45596  0.62845     C
C       0.6883  0.54404  0.37155     C
C       0.6883  0.54404  0.62845     C
C       0.6883  0.62845  0.45596     C
C       0.6883  0.62845  0.54404     C
C      0.69169  0.41618  0.41618     C
C      0.69169  0.41618  0.58382     C
C      0.69169  0.58382  0.41618     C
C      0.69169  0.58382  0.58382     C
C      0.69181  0.12018  0.12018     C
C      0.69181  0.12018  0.87982     C
C      0.69181  0.87982  0.12018     C
C      0.69181  0.87982  0.87982     C
H       0.6924   0.0823   0.3076     H
H       0.6924   0.0823   0.6924     H
H       0.6924   0.3076   0.0823     H
H       0.6924   0.3076   0.9177     H
H       0.6924   0.6924   0.0823     H
H       0.6924   0.6924   0.9177     H
H       0.6924   0.9177   0.3076     H
H       0.6924   0.9177   0.6924     H
H       0.6941   0.2059   0.2059     H
H       0.6941   0.2059   0.7941     H
H       0.6941   0.7941   0.2059     H
H       0.6941   0.7941   0.7941     H
C      0.69508  0.10488  0.30492     C
C      0.69508  0.10488  0.69508     C
C      0.69508  0.30492  0.10488     C
C      0.69508  0.30492  0.89512     C
C      0.69508  0.69508  0.10488     C
C      0.69508  0.69508  0.89512     C
C      0.69508  0.89512  0.30492     C
C      0.69508  0.89512  0.69508     C
O      0.70086  0.34569  0.46662     O
O      0.70086  0.34569  0.53338     O
O      0.70086  0.46662  0.34569     O
O      0.70086  0.46662  0.65431     O
O      0.70086  0.53338  0.34569     O
O      0.70086  0.53338  0.65431     O
O      0.70086  0.65431  0.46662     O
O      0.70086  0.65431  0.53338     O
C      0.70308  0.17151  0.29692     C
C      0.70308  0.17151  0.70308     C
C      0.70308  0.29692  0.17151     C
C      0.70308  0.29692  0.82849     C
C      0.70308  0.70308  0.17151     C
C      0.70308  0.70308  0.82849     C
C      0.70308  0.82849  0.29692     C
C      0.70308  0.82849  0.70308     C
H       0.7037   0.1654   0.1654     H
H       0.7037   0.1654   0.8346     H
H       0.7037   0.8346   0.1654     H
H       0.7037   0.8346   0.8346     H
C      0.70487  0.38863  0.42952     C
C      0.70487  0.38863  0.57048     C
C      0.70487  0.42952  0.38863     C
C      0.70487  0.42952  0.61137     C
C      0.70487  0.57048  0.38863     C
C      0.70487  0.57048  0.61137     C
C      0.70487  0.61137  0.42952     C
C      0.70487  0.61137  0.57048     C
H       0.7059   0.1941   0.2941     H
H       0.7059   0.1941   0.7059     H
H       0.7059   0.2941   0.1941     H
H       0.7059   0.2941   0.8059     H
H       0.7059   0.7059   0.1941     H
H       0.7059   0.7059   0.8059     H
H       0.7059   0.8059   0.2941     H
H       0.7059   0.8059   0.7059     H
O      0.71129  0.05266  0.28871     O
O      0.71129  0.05266  0.71129     O
O      0.71129  0.28871  0.05266     O
O      0.71129  0.28871  0.94734     O
O      0.71129  0.71129  0.05266     O
O      0.71129  0.71129  0.94734     O
O      0.71129  0.94734  0.28871     O
O      0.71129  0.94734  0.71129     O
C       0.7173   0.1169   0.2827     C
C       0.7173   0.1169   0.7173     C
C       0.7173   0.2827   0.1169     C
C       0.7173   0.2827   0.8831     C
C       0.7173   0.7173   0.1169     C
C       0.7173   0.7173   0.8831     C
C       0.7173   0.8831   0.2827     C
C       0.7173   0.8831   0.7173     C
N      0.71817  0.28183      0.5     N
N      0.71817      0.5  0.28183     N
N      0.71817      0.5  0.71817     N
N      0.71817  0.71817      0.5     N
H       0.7186      0.0   0.2814     H
H       0.7186      0.0   0.7186     H
H       0.7186   0.2814      0.0     H
H       0.7186   0.7186      0.0     H
H       0.7211   0.2789   0.4518     H
H       0.7211   0.2789   0.5482     H
H       0.7211   0.4518   0.2789     H
H       0.7211   0.4518   0.7211     H
H       0.7211   0.5482   0.2789     H
H       0.7211   0.5482   0.7211     H
H       0.7211   0.7211   0.4518     H
H       0.7211   0.7211   0.5482     H
C      0.72134  0.14902  0.27866     C
C      0.72134  0.14902  0.72134     C
C      0.72134  0.27866  0.14902     C
C      0.72134  0.27866  0.85098     C
C      0.72134  0.72134  0.14902     C
C      0.72134  0.72134  0.85098     C
C      0.72134  0.85098  0.27866     C
C      0.72134  0.85098  0.72134     C
N       0.7249  0.12687  0.12687     N
N       0.7249  0.12687  0.87313     N
N       0.7249  0.87313  0.12687     N
N       0.7249  0.87313  0.87313     N
H       0.7272   0.1234   0.1487     H
H       0.7272   0.1234   0.8513     H
H       0.7272   0.1487   0.1234     H
H       0.7272   0.1487   0.8766     H
H       0.7272   0.8513   0.1234     H
H       0.7272   0.8513   0.8766     H
H       0.7272   0.8766   0.1487     H
H       0.7272   0.8766   0.8513     H
C      0.72922  0.27078  0.47154     C
C      0.72922  0.27078  0.52846     C
C      0.72922  0.47154  0.27078     C
C      0.72922  0.47154  0.72922     C
C      0.72922  0.52846  0.27078     C
C      0.72922  0.52846  0.72922     C
C      0.72922  0.72922  0.47154     C
C      0.72922  0.72922  0.52846     C
C      0.73161  0.37389  0.41504     C
C      0.73161  0.37389  0.58496     C
C      0.73161  0.41504  0.37389     C
C      0.73161  0.41504  0.62611     C
C      0.73161  0.58496  0.37389     C
C      0.73161  0.58496  0.62611     C
C      0.73161  0.62611  0.41504     C
C      0.73161  0.62611  0.58496     C
C      0.73252  0.05872  0.26748     C
C      0.73252  0.05872  0.73252     C
C      0.73252  0.26748  0.05872     C
C      0.73252  0.26748  0.94128     C
C      0.73252  0.73252  0.05872     C
C      0.73252  0.73252  0.94128     C
C      0.73252  0.94128  0.26748     C
C      0.73252  0.94128  0.73252     C
C       0.7348      0.0   0.2652     C
C       0.7348      0.0   0.7348     C
C       0.7348   0.2652      0.0     C
C       0.7348   0.7348      0.0     C
H       0.7366   0.1566   0.2634     H
H       0.7366   0.1566   0.7366     H
H       0.7366   0.2634   0.1566     H
H       0.7366   0.2634   0.8434     H
H       0.7366   0.7366   0.1566     H
H       0.7366   0.7366   0.8434     H
H       0.7366   0.8434   0.2634     H
H       0.7366   0.8434   0.7366     H
N       0.7376  0.09198   0.2624     N
N       0.7376  0.09198   0.7376     N
N       0.7376   0.2624  0.09198     N
N       0.7376   0.2624  0.90802     N
N       0.7376   0.7376  0.09198     N
N       0.7376   0.7376  0.90802     N
N       0.7376  0.90802   0.2624     N
N       0.7376  0.90802   0.7376     N
H         0.74   0.3543   0.4234     H
H         0.74   0.3543   0.5766     H
H         0.74   0.4234   0.3543     H
H         0.74   0.4234   0.6457     H
H         0.74   0.5766   0.3543     H
H         0.74   0.5766   0.6457     H
H         0.74   0.6457   0.4234     H
H         0.74   0.6457   0.5766     H
C      0.74566  0.38837  0.38837     C
C      0.74566  0.38837  0.61163     C
C      0.74566  0.61163  0.38837     C
C      0.74566  0.61163  0.61163     C
C      0.74658  0.02803  0.25342     C
C      0.74658  0.02803  0.74658     C
C      0.74658  0.25342  0.02803     C
C      0.74658  0.25342  0.97197     C
C      0.74658  0.74658  0.02803     C
C      0.74658  0.74658  0.97197     C
C      0.74658  0.97197  0.25342     C
C      0.74658  0.97197  0.74658     C
H       0.7482   0.2518   0.4013     H
H       0.7482   0.2518   0.5987     H
H       0.7482   0.4013   0.2518     H
H       0.7482   0.4013   0.7482     H
H       0.7482   0.5987   0.2518     H
H       0.7482   0.5987   0.7482     H
H       0.7482   0.7482   0.4013     H
H       0.7482   0.7482   0.5987     H
H       0.7518   0.0987   0.2482     H
H       0.7518   0.0987   0.7518     H
H       0.7518   0.2482   0.0987     H
H       0.7518   0.2482   0.9013     H
H       0.7518   0.7518   0.0987     H
H       0.7518   0.7518   0.9013     H
H       0.7518   0.9013   0.2482     H
H       0.7518   0.9013   0.7518     H
C      0.75342  0.24658  0.47197     C
C      0.75342  0.24658  0.52803     C
C      0.75342  0.47197  0.24658     C
C      0.75342  0.47197  0.75342     C
C      0.75342  0.52803  0.24658     C
C      0.75342  0.52803  0.75342     C
C      0.75342  0.75342  0.47197     C
C      0.75342  0.75342  0.52803     C
C      0.75434  0.11163  0.11163     C
C      0.75434  0.11163  0.88837     C
C      0.75434  0.88837  0.11163     C
C      0.75434  0.88837  0.88837     C
H         0.76   0.0766   0.1457     H
H         0.76   0.0766   0.8543     H
H         0.76   0.1457   0.0766     H
H         0.76   0.1457   0.9234     H
H         0.76   0.8543   0.0766     H
H         0.76   0.8543   0.9234     H
H         0.76   0.9234   0.1457     H
H         0.76   0.9234   0.8543     H
N       0.7624   0.2376  0.40802     N
N       0.7624   0.2376  0.59198     N
N       0.7624  0.40802   0.2376     N
N       0.7624  0.40802   0.7624     N
N       0.7624  0.59198   0.2376     N
N       0.7624  0.59198   0.7624     N
N       0.7624   0.7624  0.40802     N
N       0.7624   0.7624  0.59198     N
H       0.7634   0.2366   0.3434     H
H       0.7634   0.2366   0.6566     H
H       0.7634   0.3434   0.2366     H
H       0.7634   0.3434   0.7634     H
H       0.7634   0.6566   0.2366     H
H       0.7634   0.6566   0.7634     H
H       0.7634   0.7634   0.3434     H
H       0.7634   0.7634   0.6566     H
C       0.7652   0.2348      0.5     C
C       0.7652      0.5   0.2348     C
C       0.7652      0.5   0.7652     C
C       0.7652   0.7652      0.5     C
C      0.76748  0.23252  0.44128     C
C      0.76748  0.23252  0.55872     C
C      0.76748  0.44128  0.23252     C
C      0.76748  0.44128  0.76748     C
C      0.76748  0.55872  0.23252     C
C      0.76748  0.55872  0.76748     C
C      0.76748  0.76748  0.44128     C
C      0.76748  0.76748  0.55872     C
C      0.76839  0.08496  0.12611     C
C      0.76839  0.08496  0.87389     C
C      0.76839  0.12611  0.08496     C
C      0.76839  0.12611  0.91504     C
C      0.76839  0.87389  0.08496     C
C      0.76839  0.87389  0.91504     C
C      0.76839  0.91504  0.12611     C
C      0.76839  0.91504  0.87389     C
C      0.77078  0.02846  0.22922     C
C      0.77078  0.02846  0.77078     C
C      0.77078  0.22922  0.02846     C
C      0.77078  0.22922  0.97154     C
C      0.77078  0.77078  0.02846     C
C      0.77078  0.77078  0.97154     C
C      0.77078  0.97154  0.22922     C
C      0.77078  0.97154  0.77078     C
H       0.7728   0.3513   0.3766     H
H       0.7728   0.3513   0.6234     H
H       0.7728   0.3766   0.3513     H
H       0.7728   0.3766   0.6487     H
H       0.7728   0.6234   0.3513     H
H       0.7728   0.6234   0.6487     H
H       0.7728   0.6487   0.3766     H
H       0.7728   0.6487   0.6234     H
N       0.7751  0.37313  0.37313     N
N       0.7751  0.37313  0.62687     N
N       0.7751  0.62687  0.37313     N
N       0.7751  0.62687  0.62687     N
C      0.77866  0.22134  0.35098     C
C      0.77866  0.22134  0.64902     C
C      0.77866  0.35098  0.22134     C
C      0.77866  0.35098  0.77866     C
C      0.77866  0.64902  0.22134     C
C      0.77866  0.64902  0.77866     C
C      0.77866  0.77866  0.35098     C
C      0.77866  0.77866  0.64902     C
H       0.7789   0.0482   0.2211     H
H       0.7789   0.0482   0.7789     H
H       0.7789   0.2211   0.0482     H
H       0.7789   0.2211   0.9518     H
H       0.7789   0.7789   0.0482     H
H       0.7789   0.7789   0.9518     H
H       0.7789   0.9518   0.2211     H
H       0.7789   0.9518   0.7789     H
H       0.7814   0.2186      0.5     H
H       0.7814      0.5   0.2186     H
H       0.7814      0.5   0.7814     H
H       0.7814   0.7814      0.5     H
N      0.78183      0.0  0.21817     N
N      0.78183      0.0  0.78183     N
N      0.78183  0.21817      0.0     N
N      0.78183  0.78183      0.0     N
C       0.7827   0.2173   0.3831     C
C       0.7827   0.2173   0.6169     C
C       0.7827   0.3831   0.2173     C
C       0.7827   0.3831   0.7827     C
C       0.7827   0.6169   0.2173     C
C       0.7827   0.6169   0.7827     C
C       0.7827   0.7827   0.3831     C
C       0.7827   0.7827   0.6169     C
O      0.78871  0.21129  0.44734     O
O      0.78871  0.21129  0.55266     O
O      0.78871  0.44734  0.21129     O
O      0.78871  0.44734  0.78871     O
O      0.78871  0.55266  0.21129     O
O      0.78871  0.55266  0.78871     O
O      0.78871  0.78871  0.44734     O
O      0.78871  0.78871  0.55266     O
H       0.7941   0.2059   0.3059     H
H       0.7941   0.2059   0.6941     H
H       0.7941   0.3059   0.2059     H
H       0.7941   0.3059   0.7941     H
H       0.7941   0.6941   0.2059     H
H       0.7941   0.6941   0.7941     H
H       0.7941   0.7941   0.3059     H
H       0.7941   0.7941   0.6941     H
C      0.79513  0.07048  0.11137     C
C      0.79513  0.07048  0.88863     C
C      0.79513  0.11137  0.07048     C
C      0.79513  0.11137  0.92952     C
C      0.79513  0.88863  0.07048     C
C      0.79513  0.88863  0.92952     C
C      0.79513  0.92952  0.11137     C
C      0.79513  0.92952  0.88863     C
H       0.7963   0.3346   0.3346     H
H       0.7963   0.3346   0.6654     H
H       0.7963   0.6654   0.3346     H
H       0.7963   0.6654   0.6654     H
C      0.79692  0.20308  0.32849     C
C      0.79692  0.20308  0.67151     C
C      0.79692  0.32849  0.20308     C
C      0.79692  0.32849  0.79692     C
C      0.79692  0.67151  0.20308     C
C      0.79692  0.67151  0.79692     C
C      0.79692  0.79692  0.32849     C
C      0.79692  0.79692  0.67151     C
O      0.79914  0.03338  0.15431     O
O      0.79914  0.03338  0.84569     O
O      0.79914  0.15431  0.03338     O
O      0.79914  0.15431  0.96662     O
O      0.79914  0.84569  0.03338     O
O      0.79914  0.84569  0.96662     O
O      0.79914  0.96662  0.15431     O
O      0.79914  0.96662  0.84569     O
C      0.80492  0.19508  0.39512     C
C      0.80492  0.19508  0.60488     C
C      0.80492  0.39512  0.19508     C
C      0.80492  0.39512  0.80492     C
C      0.80492  0.60488  0.19508     C
C      0.80492  0.60488  0.80492     C
C      0.80492  0.80492  0.39512     C
C      0.80492  0.80492  0.60488     C
H       0.8059   0.2941   0.2941     H
H       0.8059   0.2941   0.7059     H
H       0.8059   0.7059   0.2941     H
H       0.8059   0.7059   0.7059     H
H       0.8076   0.1924   0.4177     H
H       0.8076   0.1924   0.5823     H
H       0.8076   0.4177   0.1924     H
H       0.8076   0.4177   0.8076     H
H       0.8076   0.5823   0.1924     H
H       0.8076   0.5823   0.8076     H
H       0.8076   0.8076   0.4177     H
H       0.8076   0.8076   0.5823     H
C      0.80819  0.37982  0.37982     C
C      0.80819  0.37982  0.62018     C
C      0.80819  0.62018  0.37982     C
C      0.80819  0.62018  0.62018     C
C      0.80831  0.08382  0.08382     C
C      0.80831  0.08382  0.91618     C
C      0.80831  0.91618  0.08382     C
C      0.80831  0.91618  0.91618     C
C       0.8117  0.04404  0.12845     C
C       0.8117  0.04404  0.87155     C
C       0.8117  0.12845  0.04404     C
C       0.8117  0.12845  0.95596     C
C       0.8117  0.87155  0.04404     C
C       0.8117  0.87155  0.95596     C
C       0.8117  0.95596  0.12845     C
C       0.8117  0.95596  0.87155     C
Cu     0.81881      0.0  0.18119    Cu
Cu     0.81881      0.0  0.81881    Cu
Cu     0.81881  0.18119      0.0    Cu
Cu     0.81881  0.81881      0.0    Cu
C      0.81883  0.33747  0.33747     C
C      0.81883  0.33747  0.66253     C
C      0.81883  0.66253  0.33747     C
C      0.81883  0.66253  0.66253     C
C      0.81918  0.18082  0.34049     C
C      0.81918  0.18082  0.65951     C
C      0.81918  0.34049  0.18082     C
C      0.81918  0.34049  0.81918     C
C      0.81918  0.65951  0.18082     C
C      0.81918  0.65951  0.81918     C
C      0.81918  0.81918  0.34049     C
C      0.81918  0.81918  0.65951     C
O      0.82169  0.39849  0.39849     O
O      0.82169  0.39849  0.60151     O
O      0.82169  0.60151  0.39849     O
O      0.82169  0.60151  0.60151     O
C      0.82341  0.17659  0.37318     C
C      0.82341  0.17659  0.62682     C
C      0.82341  0.37318  0.17659     C
C      0.82341  0.37318  0.82341     C
C      0.82341  0.62682  0.17659     C
C      0.82341  0.62682  0.82341     C
C      0.82341  0.82341  0.37318     C
C      0.82341  0.82341  0.62682     C
H       0.8265    0.074    0.074     H
H       0.8265    0.074    0.926     H
H       0.8265    0.926    0.074     H
H       0.8265    0.926    0.926     H
C      0.82849  0.29692  0.29692     C
C      0.82849  0.29692  0.70308     C
C      0.82849  0.70308  0.29692     C
C      0.82849  0.70308  0.70308     C
C      0.82988  0.35907  0.35907     C
C      0.82988  0.35907  0.64093     C
C      0.82988  0.64093  0.35907     C
C      0.82988  0.64093  0.64093     C
H       0.8346   0.1654   0.2963     H
H       0.8346   0.1654   0.7037     H
H       0.8346   0.2963   0.1654     H
H       0.8346   0.2963   0.8346     H
H       0.8346   0.7037   0.1654     H
H       0.8346   0.7037   0.8346     H
H       0.8346   0.8346   0.2963     H
H       0.8346   0.8346   0.7037     H
O       0.8371  0.03355  0.11648     O
O       0.8371  0.03355  0.88352     O
O       0.8371  0.11648  0.03355     O
O       0.8371  0.11648  0.96645     O
O       0.8371  0.88352  0.03355     O
O       0.8371  0.88352  0.96645     O
O       0.8371  0.96645  0.11648     O
O       0.8371  0.96645  0.88352     O
C      0.83747  0.16253  0.31883     C
C      0.83747  0.16253  0.68117     C
C      0.83747  0.31883  0.16253     C
C      0.83747  0.31883  0.83747     C
C      0.83747  0.68117  0.16253     C
C      0.83747  0.68117  0.83747     C
C      0.83747  0.83747  0.31883     C
C      0.83747  0.83747  0.68117     C
C      0.84049  0.31918  0.31918     C
C      0.84049  0.31918  0.68082     C
C      0.84049  0.68082  0.31918     C
C      0.84049  0.68082  0.68082     C
H       0.8434   0.2634   0.2634     H
H       0.8434   0.2634   0.7366     H
H       0.8434   0.7366   0.2634     H
H       0.8434   0.7366   0.7366     H
C      0.84511  0.15489  0.38472     C
C      0.84511  0.15489  0.61528     C
C      0.84511  0.38472  0.15489     C
C      0.84511  0.38472  0.84511     C
C      0.84511  0.61528  0.15489     C
C      0.84511  0.61528  0.84511     C
C      0.84511  0.84511  0.38472     C
C      0.84511  0.84511  0.61528     C
O      0.84569  0.03338  0.20086     O
O      0.84569  0.03338  0.79914     O
O      0.84569  0.20086  0.03338     O
O      0.84569  0.20086  0.96662     O
O      0.84569  0.79914  0.03338     O
O      0.84569  0.79914  0.96662     O
O      0.84569  0.96662  0.20086     O
O      0.84569  0.96662  0.79914     O
H       0.8478   0.1522   0.4073     H
H       0.8478   0.1522   0.5927     H
H       0.8478   0.4073   0.1522     H
H       0.8478   0.4073   0.8478     H
H       0.8478   0.5927   0.1522     H
H       0.8478   0.5927   0.8478     H
H       0.8478   0.8478   0.4073     H
H       0.8478   0.8478   0.5927     H
C      0.85098  0.27866  0.27866     C
C      0.85098  0.27866  0.72134     C
C      0.85098  0.72134  0.27866     C
C      0.85098  0.72134  0.72134     C
H       0.8513   0.1234   0.2728     H
H       0.8513   0.1234   0.7272     H
H       0.8513   0.2728   0.1234     H
H       0.8513   0.2728   0.8766     H
H       0.8513   0.7272   0.1234     H
H       0.8513   0.7272   0.8766     H
H       0.8513   0.8766   0.2728     H
H       0.8513   0.8766   0.7272     H
H       0.8543   0.0766     0.24     H
H       0.8543   0.0766     0.76     H
H       0.8543     0.24   0.0766     H
H       0.8543     0.24   0.9234     H
H       0.8543     0.76   0.0766     H
H       0.8543     0.76   0.9234     H
H       0.8543   0.9234     0.24     H
H       0.8543   0.9234     0.76     H
C      0.85907  0.14093  0.32988     C
C      0.85907  0.14093  0.67012     C
C      0.85907  0.32988  0.14093     C
C      0.85907  0.32988  0.85907     C
C      0.85907  0.67012  0.14093     C
C      0.85907  0.67012  0.85907     C
C      0.85907  0.85907  0.32988     C
C      0.85907  0.85907  0.67012     C
C      0.86316  0.36343  0.36343     C
C      0.86316  0.36343  0.63657     C
C      0.86316  0.63657  0.36343     C
C      0.86316  0.63657  0.63657     C
C      0.86343  0.13657  0.36316     C
C      0.86343  0.13657  0.63684     C
C      0.86343  0.36316  0.13657     C
C      0.86343  0.36316  0.86343     C
C      0.86343  0.63684  0.13657     C
C      0.86343  0.63684  0.86343     C
C      0.86343  0.86343  0.36316     C
C      0.86343  0.86343  0.63684     C
Cu     0.86384      0.0  0.13616    Cu
Cu     0.86384      0.0  0.86384    Cu
Cu     0.86384  0.13616      0.0    Cu
Cu     0.86384  0.86384      0.0    Cu
H       0.8709   0.3787   0.3787     H
H       0.8709   0.3787   0.6213     H
H       0.8709   0.6213   0.3787     H
H       0.8709   0.6213   0.6213     H
C      0.87155  0.04404   0.1883     C
C      0.87155  0.04404   0.8117     C
C      0.87155   0.1883  0.04404     C
C      0.87155   0.1883  0.95596     C
C      0.87155   0.8117  0.04404     C
C      0.87155   0.8117  0.95596     C
C      0.87155  0.95596   0.1883     C
C      0.87155  0.95596   0.8117     C
N      0.87313  0.12687   0.2751     N
N      0.87313  0.12687   0.7249     N
N      0.87313   0.2751  0.12687     N
N      0.87313   0.2751  0.87313     N
N      0.87313   0.7249  0.12687     N
N      0.87313   0.7249  0.87313     N
N      0.87313  0.87313   0.2751     N
N      0.87313  0.87313   0.7249     N
C      0.87318  0.32341  0.32341     C
C      0.87318  0.32341  0.67659     C
C      0.87318  0.67659  0.32341     C
C      0.87318  0.67659  0.67659     C
C      0.87389  0.08496  0.23161     C
C      0.87389  0.08496  0.76839     C
C      0.87389  0.23161  0.08496     C
C      0.87389  0.23161  0.91504     C
C      0.87389  0.76839  0.08496     C
C      0.87389  0.76839  0.91504     C
C      0.87389  0.91504  0.23161     C
C      0.87389  0.91504  0.76839     C
H       0.8766   0.1487   0.2728     H
H       0.8766   0.1487   0.7272     H
H       0.8766   0.2728   0.1487     H
H       0.8766   0.2728   0.8513     H
H       0.8766   0.7272   0.1487     H
H       0.8766   0.7272   0.8513     H
H       0.8766   0.8513   0.2728     H
H       0.8766   0.8513   0.7272     H
H       0.8787   0.1213   0.3709     H
H       0.8787   0.1213   0.6291     H
H       0.8787   0.3709   0.1213     H
H       0.8787   0.3709   0.8787     H
H       0.8787   0.6291   0.1213     H
H       0.8787   0.6291   0.8787     H
H       0.8787   0.8787   0.3709     H
H       0.8787   0.8787   0.6291     H
C      0.87982  0.12018  0.30819     C
C      0.87982  0.12018  0.69181     C
C      0.87982  0.30819  0.12018     C
C      0.87982  0.30819  0.87982     C
C      0.87982  0.69181  0.12018     C
C      0.87982  0.69181  0.87982     C
C      0.87982  0.87982  0.30819     C
C      0.87982  0.87982  0.69181     C
C       0.8831   0.2827   0.2827     C
C       0.8831   0.2827   0.7173     C
C       0.8831   0.7173   0.2827     C
C       0.8831   0.7173   0.7173     C
O      0.88352  0.03355   0.1629     O
O      0.88352  0.03355   0.8371     O
O      0.88352   0.1629  0.03355     O
O      0.88352   0.1629  0.96645     O
O      0.88352   0.8371  0.03355     O
O      0.88352   0.8371  0.96645     O
O      0.88352  0.96645   0.1629     O
O      0.88352  0.96645   0.8371     O
C      0.88472  0.34511  0.34511     C
C      0.88472  0.34511  0.65489     C
C      0.88472  0.65489  0.34511     C
C      0.88472  0.65489  0.65489     C
C      0.88837  0.11163  0.24566     C
C      0.88837  0.11163  0.75434     C
C      0.88837  0.24566  0.11163     C
C      0.88837  0.24566  0.88837     C
C      0.88837  0.75434  0.11163     C
C      0.88837  0.75434  0.88837     C
C      0.88837  0.88837  0.24566     C
C      0.88837  0.88837  0.75434     C
C      0.88863  0.07048  0.20487     C
C      0.88863  0.07048  0.79513     C
C      0.88863  0.20487  0.07048     C
C      0.88863  0.20487  0.92952     C
C      0.88863  0.79513  0.07048     C
C      0.88863  0.79513  0.92952     C
C      0.88863  0.92952  0.20487     C
C      0.88863  0.92952  0.79513     C
C      0.89512  0.30492  0.30492     C
C      0.89512  0.30492  0.69508     C
C      0.89512  0.69508  0.30492     C
C      0.89512  0.69508  0.69508     C
O      0.89849  0.10151  0.32169     O
O      0.89849  0.10151  0.67831     O
O      0.89849  0.32169  0.10151     O
O      0.89849  0.32169  0.89849     O
O      0.89849  0.67831  0.10151     O
O      0.89849  0.67831  0.89849     O
O      0.89849  0.89849  0.32169     O
O      0.89849  0.89849  0.67831     O
H       0.9013   0.2482   0.2482     H
H       0.9013   0.2482   0.7518     H
H       0.9013   0.7518   0.2482     H
H       0.9013   0.7518   0.7518     H
H       0.9073   0.3478   0.3478     H
H       0.9073   0.3478   0.6522     H
H       0.9073   0.6522   0.3478     H
H       0.9073   0.6522   0.6522     H
N      0.90802   0.2624   0.2624     N
N      0.90802   0.2624   0.7376     N
N      0.90802   0.7376   0.2624     N
N      0.90802   0.7376   0.7376     N
C      0.91504  0.12611  0.23161     C
C      0.91504  0.12611  0.76839     C
C      0.91504  0.23161  0.12611     C
C      0.91504  0.23161  0.87389     C
C      0.91504  0.76839  0.12611     C
C      0.91504  0.76839  0.87389     C
C      0.91504  0.87389  0.23161     C
C      0.91504  0.87389  0.76839     C
C      0.91618  0.08382  0.19169     C
C      0.91618  0.08382  0.80831     C
C      0.91618  0.19169  0.08382     C
C      0.91618  0.19169  0.91618     C
C      0.91618  0.80831  0.08382     C
C      0.91618  0.80831  0.91618     C
C      0.91618  0.91618  0.19169     C
C      0.91618  0.91618  0.80831     C
H       0.9177   0.3076   0.3076     H
H       0.9177   0.3076   0.6924     H
H       0.9177   0.6924   0.3076     H
H       0.9177   0.6924   0.6924     H
H       0.9234   0.1457     0.24     H
H       0.9234   0.1457     0.76     H
H       0.9234     0.24   0.1457     H
H       0.9234     0.24   0.8543     H
H       0.9234     0.76   0.1457     H
H       0.9234     0.76   0.8543     H
H       0.9234   0.8543     0.24     H
H       0.9234   0.8543     0.76     H
H        0.926    0.074   0.1735     H
H        0.926    0.074   0.8265     H
H        0.926   0.1735    0.074     H
H        0.926   0.1735    0.926     H
H        0.926   0.8265    0.074     H
H        0.926   0.8265    0.926     H
H        0.926    0.926   0.1735     H
H        0.926    0.926   0.8265     H
C      0.92952  0.11137  0.20487     C
C      0.92952  0.11137  0.79513     C
C      0.92952  0.20487  0.11137     C
C      0.92952  0.20487  0.88863     C
C      0.92952  0.79513  0.11137     C
C      0.92952  0.79513  0.88863     C
C      0.92952  0.88863  0.20487     C
C      0.92952  0.88863  0.79513     C
C      0.94128  0.26748  0.26748     C
C      0.94128  0.26748  0.73252     C
C      0.94128  0.73252  0.26748     C
C      0.94128  0.73252  0.73252     C
O      0.94734  0.28871  0.28871     O
O      0.94734  0.28871  0.71129     O
O      0.94734  0.71129  0.28871     O
O      0.94734  0.71129  0.71129     O
H       0.9518   0.2211   0.2211     H
H       0.9518   0.2211   0.7789     H
H       0.9518   0.7789   0.2211     H
H       0.9518   0.7789   0.7789     H
C      0.95596  0.12845   0.1883     C
C      0.95596  0.12845   0.8117     C
C      0.95596   0.1883  0.12845     C
C      0.95596   0.1883  0.87155     C
C      0.95596   0.8117  0.12845     C
C      0.95596   0.8117  0.87155     C
C      0.95596  0.87155   0.1883     C
C      0.95596  0.87155   0.8117     C
O      0.96645  0.11648   0.1629     O
O      0.96645  0.11648   0.8371     O
O      0.96645   0.1629  0.11648     O
O      0.96645   0.1629  0.88352     O
O      0.96645   0.8371  0.11648     O
O      0.96645   0.8371  0.88352     O
O      0.96645  0.88352   0.1629     O
O      0.96645  0.88352   0.8371     O
O      0.96662  0.15431  0.20086     O
O      0.96662  0.15431  0.79914     O
O      0.96662  0.20086  0.15431     O
O      0.96662  0.20086  0.84569     O
O      0.96662  0.79914  0.15431     O
O      0.96662  0.79914  0.84569     O
O      0.96662  0.84569  0.20086     O
O      0.96662  0.84569  0.79914     O
C      0.97154  0.22922  0.22922     C
C      0.97154  0.22922  0.77078     C
C      0.97154  0.77078  0.22922     C
C      0.97154  0.77078  0.77078     C
C      0.97197  0.25342  0.25342     C
C      0.97197  0.25342  0.74658     C
C      0.97197  0.74658  0.25342     C
C      0.97197  0.74658  0.74658     C
