data_I
_chemical_name_common  '/home/zhangsd/repos/MofS-CGCNN/ML/data/SSD/clean_cifs/XEFGAQ_clean'
_cell_length_a 17.32700
_cell_length_b 17.32700
_cell_length_c  7.72880
_cell_angle_alpha 90.00000
_cell_angle_beta  90.00000
_cell_angle_gamma 90.00000
_space_group_name_H-M_alt      'P 1'


loop_
_space_group_symop_operation_xyz
  'x, y, z' 

loop_
_atom_site_label
_atom_site_fract_x
_atom_site_fract_y
_atom_site_fract_z
_atom_site_type_symbol
Cu         0.0     0.25    0.125    Cu
Cu         0.0     0.75    0.875    Cu
N      0.00159   0.3423   0.9624     N
N      0.00159   0.8423   0.0376     N
C       0.0054   0.0471   0.7029     C
C       0.0054   0.5471   0.2971     C
N      0.01177  0.48889   0.4274     N
N      0.01177  0.98889   0.5726     N
C       0.0528   0.3976   0.7031     C
C       0.0528   0.8976   0.2969     C
C       0.0529   0.1027   0.9619     C
C       0.0529   0.6027   0.0381     C
C       0.0535   0.3441   0.8349     C
C       0.0535   0.8441   0.1651     C
H       0.0564   0.1568   0.4148     H
H       0.0564   0.6568   0.5852     H
C       0.0575    0.046   0.8372     C
C       0.0575    0.546   0.1628     C
H       0.0902   0.1029    0.052     H
H       0.0902   0.6029    0.948     H
H        0.091   0.3967   0.6149     H
H        0.091   0.8967   0.3851     H
N       0.0923  0.24841   0.2876     N
N       0.0923  0.74841   0.7124     N
H       0.0932   0.3064   0.8352     H
H       0.0932   0.8064   0.1648     H
C       0.0941   0.1965   0.4151     C
C       0.0941   0.6965   0.5849     C
H       0.0959    0.007   0.8438     H
H       0.0959    0.507   0.1562     H
H       0.1467    0.159   0.6351     H
H       0.1467    0.659   0.3649     H
H       0.1471   0.3402    0.198     H
H       0.1471   0.8402    0.802     H
C       0.1473   0.3029   0.2881     C
C       0.1473   0.8029   0.7119     C
C       0.1476   0.1972   0.5469     C
C       0.1476   0.6972   0.4531     C
C       0.2029   0.2554   0.5471     C
C       0.2029   0.7554   0.4529     C
C        0.204   0.3075   0.4128     C
C        0.204   0.8075   0.5872     C
N      0.23889  0.23823   0.8226     N
N      0.23889  0.73823   0.1774     N
H        0.243   0.3459   0.4062     H
H        0.243   0.8459   0.5938     H
H        0.257   0.1541   0.0938     H
H        0.257   0.6541   0.9062     H
N      0.26111  0.26177   0.6774     N
N      0.26111  0.76177   0.3226     N
C        0.296   0.1925   0.0872     C
C        0.296   0.6925   0.9128     C
C       0.2971   0.2446   0.9529     C
C       0.2971   0.7446   0.0471     C
C       0.3524   0.3028   0.9531     C
C       0.3524   0.8028   0.0469     C
C       0.3527   0.1971   0.2119     C
C       0.3527   0.6971   0.7881     C
H       0.3529   0.1598    0.302     H
H       0.3529   0.6598    0.698     H
H       0.3533    0.341   0.8649     H
H       0.3533    0.841   0.1351     H
H       0.4041    0.493   0.6562     H
H       0.4041    0.993   0.3438     H
C       0.4059   0.3035   0.0849     C
C       0.4059   0.8035   0.9151     C
H       0.4068   0.1936   0.6648     H
H       0.4068   0.6936   0.3352     H
N       0.4077  0.25159   0.2124     N
N       0.4077  0.75159   0.7876     N
H        0.409   0.1033   0.8851     H
H        0.409   0.6033   0.1149     H
H       0.4098   0.3971    0.448     H
H       0.4098   0.8971    0.552     H
C       0.4425    0.454   0.6628     C
C       0.4425    0.954   0.3372     C
H       0.4436   0.3432   0.0852     H
H       0.4436   0.8432   0.9148     H
C       0.4465   0.1559   0.6651     C
C       0.4465   0.6559   0.3349     C
C       0.4471   0.3973   0.5381     C
C       0.4471   0.8973   0.4619     C
C       0.4472   0.1024   0.7969     C
C       0.4472   0.6024   0.2031     C
N      0.48823  0.01111   0.0726     N
N      0.48823  0.51111   0.9274     N
C       0.4946   0.4529   0.7971     C
C       0.4946   0.9529   0.2029     C
N      0.49841   0.1577   0.5376     N
N      0.49841   0.6577   0.4624     N
Cu         0.5     0.25    0.375    Cu
Cu         0.5     0.75    0.625    Cu
N      0.50159   0.3423   0.5376     N
N      0.50159   0.8423   0.4624     N
C       0.5054   0.0471   0.7971     C
C       0.5054   0.5471   0.2029     C
N      0.51177  0.48889   0.0726     N
N      0.51177  0.98889   0.9274     N
C       0.5528   0.3976   0.7969     C
C       0.5528   0.8976   0.2031     C
C       0.5529   0.1027   0.5381     C
C       0.5529   0.6027   0.4619     C
C       0.5535   0.3441   0.6651     C
C       0.5535   0.8441   0.3349     C
H       0.5564   0.1568   0.0852     H
H       0.5564   0.6568   0.9148     H
C       0.5575    0.046   0.6628     C
C       0.5575    0.546   0.3372     C
H       0.5902   0.1029    0.448     H
H       0.5902   0.6029    0.552     H
H        0.591   0.3967   0.8851     H
H        0.591   0.8967   0.1149     H
N       0.5923  0.24841   0.2124     N
N       0.5923  0.74841   0.7876     N
H       0.5932   0.3064   0.6648     H
H       0.5932   0.8064   0.3352     H
C       0.5941   0.1965   0.0849     C
C       0.5941   0.6965   0.9151     C
H       0.5959    0.007   0.6562     H
H       0.5959    0.507   0.3438     H
H       0.6467    0.159   0.8649     H
H       0.6467    0.659   0.1351     H
H       0.6471   0.3402    0.302     H
H       0.6471   0.8402    0.698     H
C       0.6473   0.3029   0.2119     C
C       0.6473   0.8029   0.7881     C
C       0.6476   0.1972   0.9531     C
C       0.6476   0.6972   0.0469     C
C       0.7029   0.2554   0.9529     C
C       0.7029   0.7554   0.0471     C
C        0.704   0.3075   0.0872     C
C        0.704   0.8075   0.9128     C
N      0.73889  0.23823   0.6774     N
N      0.73889  0.73823   0.3226     N
H        0.743   0.3459   0.0938     H
H        0.743   0.8459   0.9062     H
H        0.757   0.1541   0.4062     H
H        0.757   0.6541   0.5938     H
N      0.76111  0.26177   0.8226     N
N      0.76111  0.76177   0.1774     N
C        0.796   0.1925   0.4128     C
C        0.796   0.6925   0.5872     C
C       0.7971   0.2446   0.5471     C
C       0.7971   0.7446   0.4529     C
C       0.8524   0.3028   0.5469     C
C       0.8524   0.8028   0.4531     C
C       0.8527   0.1971   0.2881     C
C       0.8527   0.6971   0.7119     C
H       0.8529   0.1598    0.198     H
H       0.8529   0.6598    0.802     H
H       0.8533    0.341   0.6351     H
H       0.8533    0.841   0.3649     H
H       0.9041    0.493   0.8438     H
H       0.9041    0.993   0.1562     H
C       0.9059   0.3035   0.4151     C
C       0.9059   0.8035   0.5849     C
H       0.9068   0.1936   0.8352     H
H       0.9068   0.6936   0.1648     H
N       0.9077  0.25159   0.2876     N
N       0.9077  0.75159   0.7124     N
H        0.909   0.1033   0.6149     H
H        0.909   0.6033   0.3851     H
H       0.9098   0.3971    0.052     H
H       0.9098   0.8971    0.948     H
C       0.9425    0.454   0.8372     C
C       0.9425    0.954   0.1628     C
H       0.9436   0.3432   0.4148     H
H       0.9436   0.8432   0.5852     H
C       0.9465   0.1559   0.8349     C
C       0.9465   0.6559   0.1651     C
C       0.9471   0.3973   0.9619     C
C       0.9471   0.8973   0.0381     C
C       0.9472   0.1024   0.7031     C
C       0.9472   0.6024   0.2969     C
N      0.98823  0.01111   0.4274     N
N      0.98823  0.51111   0.5726     N
C       0.9946   0.4529   0.7029     C
C       0.9946   0.9529   0.2971     C
N      0.99841   0.1577   0.9624     N
N      0.99841   0.6577   0.0376     N
