data_I
_chemical_name_common  '/home/zhangsd/repos/MofS-CGCNN/ML/data/SSD/clean_cifs/XEHRUY_clean'
_cell_length_a 11.38050
_cell_length_b  9.84060
_cell_length_c 14.50570
_cell_angle_alpha 90.00000
_cell_angle_beta  91.42900
_cell_angle_gamma 90.00000
_space_group_name_H-M_alt      'P 1'


loop_
_space_group_symop_operation_xyz
  'x, y, z' 

loop_
_atom_site_label
_atom_site_fract_x
_atom_site_fract_y
_atom_site_fract_z
_atom_site_type_symbol
Mg         0.0      0.0      0.0    Mg
Mg         0.0      0.5      0.5    Mg
H       0.0039    0.706   0.9811     H
O      0.01428  0.88951  0.11969     O
O      0.01837  0.29229  0.50396     O
C      0.02053  0.51646  0.71069     C
H       0.0208   0.4613   0.2369     H
H       0.0264   0.1985    0.773     H
O       0.0369  0.49828  0.36212     O
C      0.05178  0.13435  0.81616     C
H       0.0602   0.1193   0.5432     H
C      0.06661  0.72355  0.94295     C
C      0.07663  0.21114  0.55138     C
O      0.10014  0.84726  0.93667     O
O      0.10992  0.62511  0.90292     O
O      0.13109  0.50375  0.71982     O
H       0.1411   0.7588    0.631     H
O      0.15019  0.10195  0.03411     O
O      0.15171  0.07942  0.80339     O
O      0.15722  0.24187  0.61046     O
C      0.17124  0.82743  0.66875     C
O      0.18277  0.52389  0.52466     O
O      0.18714  0.94012  0.63259     O
O      0.19252  0.79732  0.75313     O
H       0.1993   0.6534   0.4291     H
Mg     0.23929  0.60922   0.8106    Mg
C      0.24174  0.59788   0.4697     C
Mg     0.24353  0.91905  0.86563    Mg
Mg     0.25647  0.41905  0.63437    Mg
C      0.25826  0.09788   0.0303     C
Mg     0.26071  0.10922   0.6894    Mg
H       0.3007   0.1534   0.0709     H
O      0.30748  0.29732  0.74687     O
O      0.31286  0.44012  0.86741     O
O      0.31723  0.02389  0.97534     O
C      0.32876  0.32743  0.83125     C
O      0.34278  0.74187  0.88954     O
O      0.34829  0.57942  0.69661     O
O      0.34981  0.60195  0.46589     O
H       0.3589   0.2588    0.869     H
O      0.36891  0.00375  0.78018     O
O      0.39008  0.12511  0.59708     O
O      0.39986  0.34726  0.56333     O
C      0.42337  0.71114  0.94862     C
C      0.43339  0.22355  0.55705     C
H       0.4398   0.6193   0.9568     H
C      0.44822  0.63435  0.68384     C
O       0.4631  0.99828  0.13788     O
H       0.4736   0.6985    0.727     H
H       0.4792   0.9613   0.2631     H
C      0.47947  0.01646  0.78931     C
O      0.48163  0.79229  0.99604     O
O      0.48572  0.38951  0.38031     O
H       0.4961    0.206   0.5189     H
Mg         0.5      0.0      0.0    Mg
Mg         0.5      0.5      0.5    Mg
H       0.5039    0.794   0.4811     H
O      0.51428  0.61049  0.61969     O
O      0.51837  0.20771  0.00396     O
C      0.52053  0.98354  0.21069     C
H       0.5208   0.0387   0.7369     H
H       0.5264   0.3015    0.273     H
O       0.5369  0.00172  0.86212     O
C      0.55178  0.36565  0.31616     C
H       0.5602   0.3807   0.0432     H
C      0.56661  0.77645  0.44295     C
C      0.57663  0.28886  0.05138     C
O      0.60014  0.65274  0.43667     O
O      0.60992  0.87489  0.40292     O
O      0.63109  0.99625  0.21982     O
H       0.6411   0.7412    0.131     H
O      0.65019  0.39805  0.53411     O
O      0.65171  0.42058  0.30339     O
O      0.65722  0.25813  0.11046     O
C      0.67124  0.67257  0.16875     C
O      0.68277  0.97611  0.02466     O
O      0.68714  0.55988  0.13259     O
O      0.69252  0.70268  0.25313     O
H       0.6993   0.8466   0.9291     H
Mg     0.73929  0.89078   0.3106    Mg
C      0.74174  0.90212   0.9697     C
Mg     0.74353  0.58095  0.36563    Mg
Mg     0.75647  0.08095  0.13437    Mg
C      0.75826  0.40212   0.5303     C
Mg     0.76071  0.39078   0.1894    Mg
H       0.8007   0.3466   0.5709     H
O      0.80748  0.20268  0.24687     O
O      0.81286  0.05988  0.36741     O
O      0.81723  0.47611  0.47534     O
C      0.82876  0.17257  0.33125     C
O      0.84278  0.75813  0.38954     O
O      0.84829  0.92058  0.19661     O
O      0.84981  0.89805  0.96589     O
H       0.8589   0.2412    0.369     H
O      0.86891  0.49625  0.28018     O
O      0.89008  0.37489  0.09708     O
O      0.89986  0.15274  0.06333     O
C      0.92337  0.78886  0.44862     C
C      0.93339  0.27645  0.05705     C
H       0.9398   0.8807   0.4568     H
C      0.94822  0.86565  0.18384     C
O       0.9631  0.50172  0.63788     O
H       0.9736   0.8015    0.227     H
H       0.9792   0.5387   0.7631     H
C      0.97947  0.48354  0.28931     C
O      0.98163  0.70771  0.49604     O
O      0.98572  0.11049  0.88031     O
H       0.9961    0.294   0.0189     H
