data_I
_chemical_name_common  '/home/zhangsd/repos/MofS-CGCNN/ML/data/SSD/clean_cifs/XEQLEM_clean'
_cell_length_a  9.88360
_cell_length_b 10.98170
_cell_length_c 12.86810
_cell_angle_alpha 90.00000
_cell_angle_beta  90.00000
_cell_angle_gamma 99.38400
_space_group_name_H-M_alt      'P 1'


loop_
_space_group_symop_operation_xyz
  'x, y, z' 

loop_
_atom_site_label
_atom_site_fract_x
_atom_site_fract_y
_atom_site_fract_z
_atom_site_type_symbol
C       0.0069   0.1079   0.4362     C
C       0.0153   0.0318   0.5196     C
O       0.0176   0.8647   0.6832     O
C       0.0278   0.6075   0.5574     C
C       0.0286   0.5286   0.4726     C
O       0.0503   0.3713   0.3064     O
H       0.0504   0.4961   0.9337     H
H       0.0534   0.3635   0.0722     H
H       0.0865   0.1386   0.3999     H
C       0.0965    0.101   0.1661     C
H       0.0995   0.0115   0.5388     H
C       0.1043   0.0159   0.0764     C
N       0.1119   0.8602   0.9051     N
Mg       0.125   0.7526   0.7643    Mg
N       0.1364   0.6445   0.6191     N
C       0.1509   0.4879   0.4479     C
C       0.1529   0.3971    0.359     C
O        0.204   0.1337   0.2195     O
C       0.2233   0.9012   0.9613     C
C       0.2255   0.9774   0.0459     C
O       0.2362    0.641   0.8458     O
C       0.2542   0.6065   0.5903     C
C       0.2635   0.5276   0.5075     C
O       0.2646   0.3576   0.3509     O
O       0.3026   0.8712   0.7275     O
H       0.3052   0.8764   0.9418     H
H       0.3066   0.0029   0.0821     H
H       0.3331   0.6488   0.0648     H
H       0.3333   0.6348   0.6281     H
C       0.3436   0.5672   0.0537     C
H       0.3464   0.5018   0.4926     H
C       0.3482    0.607   0.8593     C
C       0.3505   0.5221   0.9523     C
H       0.3505   0.5244   0.2013     H
C       0.3522   0.4919   0.1346     C
N       0.3636   0.3678   0.1242     N
C       0.3704   0.4047   0.9414     C
C       0.3708   0.3294   0.0286     C
Mg      0.3721   0.2503   0.2651    Mg
H       0.3766   0.2466   0.0181     H
H       0.3815   0.9805   0.3226     H
N       0.3835   0.1305   0.4024     N
H       0.3839   0.3736   0.8757     H
H       0.3845   0.2579   0.5073     H
C       0.3846    0.012   0.3898     C
C       0.3867   0.1743   0.4977     C
C       0.3904   0.9306   0.4733     C
C       0.3923   0.9759   0.5743     C
H       0.3929   0.8476   0.4611     H
C       0.3932   0.0999   0.5847     C
H       0.3982   0.1351   0.6506     H
C       0.4036   0.8935   0.6655     C
O       0.4529     0.63   0.8073     O
O        0.485    0.146   0.1754     O
O        0.515    0.854   0.6754     O
O       0.5471     0.37   0.3073     O
C       0.5964   0.1065   0.1655     C
H       0.6018   0.8649   0.1506     H
C       0.6068   0.9001   0.0847     C
H       0.6071   0.1524   0.9611     H
C       0.6077   0.0241   0.0743     C
C       0.6096   0.0694   0.9733     C
C       0.6133   0.8257   0.9977     C
C       0.6154    0.988   0.8898     C
H       0.6155   0.7421   0.0073     H
H       0.6161   0.6264   0.3757     H
N       0.6165   0.8695   0.9024     N
H       0.6185   0.0195   0.8226     H
H       0.6234   0.7534   0.5181     H
Mg      0.6279   0.7497   0.7651    Mg
C       0.6292   0.6706   0.5286     C
C       0.6296   0.5953   0.4414     C
N       0.6364   0.6322   0.6242     N
C       0.6478   0.5081   0.6346     C
H       0.6495   0.4756   0.7013     H
C       0.6495   0.4779   0.4523     C
C       0.6518    0.393   0.3593     C
H       0.6536   0.4982   0.9926     H
C       0.6564   0.4328   0.5537     C
H       0.6667   0.3652   0.1281     H
H       0.6669   0.3512   0.5648     H
H       0.6934   0.9971   0.5821     H
H       0.6948   0.1236   0.4418     H
O       0.6974   0.1288   0.2275     O
O       0.7354   0.6424   0.8509     O
C       0.7365   0.4724   0.0075     C
C       0.7458   0.3935   0.0903     C
O       0.7638    0.359   0.3458     O
C       0.7745   0.0226   0.5459     C
C       0.7767   0.0988   0.4613     C
O        0.796   0.8663   0.7195     O
C       0.8471   0.6029    0.859     C
C       0.8491   0.5121   0.9479     C
N       0.8636   0.3555   0.1191     N
Mg       0.875   0.2474   0.2643    Mg
N       0.8881   0.1398   0.4051     N
C       0.8957   0.9841   0.5764     C
H       0.9005   0.9885   0.0388     H
C       0.9035    0.899   0.6661     C
H       0.9135   0.8614   0.8999     H
H       0.9466   0.6365   0.5722     H
H       0.9496   0.5039   0.4337     H
O       0.9497   0.6287   0.8064     O
C       0.9714   0.4714   0.9726     C
C       0.9722   0.3925   0.0574     C
O       0.9824   0.1353   0.1832     O
C       0.9847   0.9682   0.0196     C
C       0.9931   0.8921   0.9362     C
