data_I
_chemical_name_common  '/home/zhangsd/repos/MofS-CGCNN/ML/data/SSD/clean_cifs/XILSUI_clean'
_cell_length_a 22.13600
_cell_length_b 16.64700
_cell_length_c 16.55100
_cell_angle_alpha 90.00000
_cell_angle_beta  114.63000
_cell_angle_gamma 90.00000
_space_group_name_H-M_alt      'P 1'


loop_
_space_group_symop_operation_xyz
  'x, y, z' 

loop_
_atom_site_label
_atom_site_fract_x
_atom_site_fract_y
_atom_site_fract_z
_atom_site_type_symbol
N          0.0   0.3817      0.0     N
Mn         0.0      0.5      0.0    Mn
N          0.0   0.6183      0.0     N
C       0.0025   0.2482   0.9608     C
C       0.0025   0.7518   0.9608     C
H        0.004   0.2034   0.9281     H
H        0.004   0.7966   0.9281     H
C       0.0051   0.3307   0.9374     C
C       0.0051   0.6693   0.9374     C
N       0.0121      0.5   0.8893     N
C       0.0133   0.3549   0.8609     C
C       0.0133   0.6451   0.8609     C
C       0.0143   0.4347   0.8381     C
C       0.0143   0.5653   0.8381     C
C       0.0155   0.2915   0.7984     C
C       0.0155   0.7085   0.7984     C
C        0.016   0.1061   0.6153     C
C        0.016    0.174   0.6814     C
C        0.016    0.826   0.6814     C
C        0.016   0.8939   0.6153     C
C       0.0195   0.4594   0.7588     C
C       0.0195   0.5406   0.7588     C
H       0.0224   0.4261   0.7155     H
H       0.0224   0.5739   0.7155     H
C       0.0292   0.3543   0.4921     C
C       0.0292   0.6457   0.4921     C
C       0.0311      0.5   0.4928     C
O         0.04   0.0853    0.439     O
O         0.04   0.9147    0.439     O
C       0.0403   0.2669   0.2652     C
C       0.0403   0.7331   0.2652     C
C       0.0437   0.2049   0.3289     C
C       0.0437   0.7951   0.3289     C
H       0.0487    0.306   0.4877     H
H       0.0487    0.694   0.4877     H
C       0.0566   0.4252   0.4835     C
C       0.0566   0.5748   0.4835     C
Zn     0.07332      0.0  0.53624    Zn
C       0.0738   0.1953   0.7469     C
C       0.0738   0.8047   0.7469     C
O       0.0739   0.0846   0.6225     O
O       0.0739   0.9154   0.6225     O
C       0.0751   0.2579   0.8081     C
C       0.0751   0.7421   0.8081     C
H       0.0798   0.2904   0.2699     H
H       0.0798   0.7096   0.2699     H
H       0.0837   0.1877   0.3733     H
H       0.0837   0.8123   0.3733     H
H        0.113   0.1701    0.753     H
H        0.113   0.8299    0.753     H
H        0.115    0.275   0.8529     H
H        0.115    0.725   0.8529     H
C        0.119   0.4268    0.468     C
C        0.119   0.5732    0.468     C
H       0.1345      0.0   0.4121     H
O       0.1417   0.3644   0.4546     O
O       0.1417   0.6356   0.4546     O
N       0.1442      0.5   0.4608     N
N       0.1659      0.0   0.5441     N
C        0.172      0.0   0.4659     C
H       0.1773      0.5   0.3279     H
C       0.2092      0.5   0.4589     C
C        0.214      0.5   0.3825     C
H       0.2145      0.0   0.6626     H
C       0.2184      0.0   0.6088     C
C       0.2381      0.0   0.4675     C
H       0.2425      0.0   0.4141     H
H       0.2575      0.5   0.5859     H
C       0.2619      0.5   0.5325     C
C       0.2816      0.5   0.3912     C
H       0.2855      0.5   0.3374     H
C        0.286      0.0   0.6175     C
C       0.2908      0.0   0.5411     C
H       0.3227      0.0   0.6721     H
C        0.328      0.5   0.5341     C
N       0.3341      0.5   0.4559     N
N       0.3558      0.0   0.5392     N
O       0.3583   0.1356   0.5454     O
O       0.3583   0.8644   0.5454     O
H       0.3655      0.5   0.5879     H
C        0.381   0.0732    0.532     C
C        0.381   0.9268    0.532     C
H        0.385    0.225   0.1471     H
H        0.385    0.775   0.1471     H
H        0.387   0.3299    0.247     H
H        0.387   0.6701    0.247     H
H       0.4163   0.3123   0.6267     H
H       0.4163   0.6877   0.6267     H
H       0.4202   0.2096   0.7301     H
H       0.4202   0.7904   0.7301     H
C       0.4249   0.2421   0.1919     C
C       0.4249   0.7579   0.1919     C
O       0.4261   0.4154   0.3775     O
O       0.4261   0.5846   0.3775     O
C       0.4262   0.3047   0.2531     C
C       0.4262   0.6953   0.2531     C
Zn     0.42668      0.5  0.46376    Zn
C       0.4434   0.0748   0.5165     C
C       0.4434   0.9252   0.5165     C
H       0.4513    0.194   0.5123     H
H       0.4513    0.806   0.5123     H
C       0.4563   0.2951   0.6711     C
C       0.4563   0.7049   0.6711     C
C       0.4597   0.2331   0.7348     C
C       0.4597   0.7669   0.7348     C
O         0.46   0.4147    0.561     O
O         0.46   0.5853    0.561     O
C       0.4689      0.0   0.5072     C
C       0.4708   0.1457   0.5079     C
C       0.4708   0.8543   0.5079     C
H       0.4776   0.0739   0.2845     H
H       0.4776   0.9261   0.2845     H
C       0.4805   0.0406   0.2412     C
C       0.4805   0.9594   0.2412     C
C        0.484    0.326   0.3186     C
C        0.484   0.3939   0.3847     C
C        0.484   0.6061   0.3847     C
C        0.484    0.674   0.3186     C
C       0.4845   0.2085   0.2016     C
C       0.4845   0.7915   0.2016     C
C       0.4857   0.0653   0.1619     C
C       0.4857   0.9347   0.1619     C
C       0.4867   0.1451   0.1391     C
C       0.4867   0.8549   0.1391     C
N       0.4879      0.0   0.1107     N
C       0.4949   0.1693   0.0626     C
C       0.4949   0.8307   0.0626     C
H        0.496   0.2966   0.0719     H
H        0.496   0.7034   0.0719     H
C       0.4975   0.2518   0.0392     C
C       0.4975   0.7482   0.0392     C
Mn         0.5      0.0      0.0    Mn
N          0.5   0.1183      0.0     N
N          0.5   0.8817      0.0     N
C       0.5025   0.2518   0.9608     C
C       0.5025   0.7482   0.9608     C
H        0.504   0.2966   0.9281     H
H        0.504   0.7034   0.9281     H
C       0.5051   0.1693   0.9374     C
C       0.5051   0.8307   0.9374     C
N       0.5121      0.0   0.8893     N
C       0.5133   0.1451   0.8609     C
C       0.5133   0.8549   0.8609     C
C       0.5143   0.0653   0.8381     C
C       0.5143   0.9347   0.8381     C
C       0.5155   0.2085   0.7984     C
C       0.5155   0.7915   0.7984     C
C        0.516    0.326   0.6814     C
C        0.516   0.3939   0.6153     C
C        0.516   0.6061   0.6153     C
C        0.516    0.674   0.6814     C
C       0.5195   0.0406   0.7588     C
C       0.5195   0.9594   0.7588     C
H       0.5224   0.0739   0.7155     H
H       0.5224   0.9261   0.7155     H
C       0.5292   0.1457   0.4921     C
C       0.5292   0.8543   0.4921     C
C       0.5311      0.0   0.4928     C
O         0.54   0.4147    0.439     O
O         0.54   0.5853    0.439     O
C       0.5403   0.2331   0.2652     C
C       0.5403   0.7669   0.2652     C
C       0.5437   0.2951   0.3289     C
C       0.5437   0.7049   0.3289     C
H       0.5487    0.194   0.4877     H
H       0.5487    0.806   0.4877     H
C       0.5566   0.0748   0.4835     C
C       0.5566   0.9252   0.4835     C
Zn     0.57332      0.5  0.53624    Zn
C       0.5738   0.3047   0.7469     C
C       0.5738   0.6953   0.7469     C
O       0.5739   0.4154   0.6225     O
O       0.5739   0.5846   0.6225     O
C       0.5751   0.2421   0.8081     C
C       0.5751   0.7579   0.8081     C
H       0.5798   0.2096   0.2699     H
H       0.5798   0.7904   0.2699     H
H       0.5837   0.3123   0.3733     H
H       0.5837   0.6877   0.3733     H
H        0.613   0.3299    0.753     H
H        0.613   0.6701    0.753     H
H        0.615    0.225   0.8529     H
H        0.615    0.775   0.8529     H
C        0.619   0.0732    0.468     C
C        0.619   0.9268    0.468     C
H       0.6345      0.5   0.4121     H
O       0.6417   0.1356   0.4546     O
O       0.6417   0.8644   0.4546     O
N       0.6442      0.0   0.4608     N
N       0.6659      0.5   0.5441     N
C        0.672      0.5   0.4659     C
H       0.6773      0.0   0.3279     H
C       0.7092      0.0   0.4589     C
C        0.714      0.0   0.3825     C
H       0.7145      0.5   0.6626     H
C       0.7184      0.5   0.6088     C
C       0.7381      0.5   0.4675     C
H       0.7425      0.5   0.4141     H
H       0.7575      0.0   0.5859     H
C       0.7619      0.0   0.5325     C
C       0.7816      0.0   0.3912     C
H       0.7855      0.0   0.3374     H
C        0.786      0.5   0.6175     C
C       0.7908      0.5   0.5411     C
H       0.8227      0.5   0.6721     H
C        0.828      0.0   0.5341     C
N       0.8341      0.0   0.4559     N
N       0.8558      0.5   0.5392     N
O       0.8583   0.3644   0.5454     O
O       0.8583   0.6356   0.5454     O
H       0.8655      0.0   0.5879     H
C        0.881   0.4268    0.532     C
C        0.881   0.5732    0.532     C
H        0.885    0.275   0.1471     H
H        0.885    0.725   0.1471     H
H        0.887   0.1701    0.247     H
H        0.887   0.8299    0.247     H
H       0.9163   0.1877   0.6267     H
H       0.9163   0.8123   0.6267     H
H       0.9202   0.2904   0.7301     H
H       0.9202   0.7096   0.7301     H
C       0.9249   0.2579   0.1919     C
C       0.9249   0.7421   0.1919     C
O       0.9261   0.0846   0.3775     O
O       0.9261   0.9154   0.3775     O
C       0.9262   0.1953   0.2531     C
C       0.9262   0.8047   0.2531     C
Zn     0.92668      0.0  0.46376    Zn
C       0.9434   0.4252   0.5165     C
C       0.9434   0.5748   0.5165     C
H       0.9513    0.306   0.5123     H
H       0.9513    0.694   0.5123     H
C       0.9563   0.2049   0.6711     C
C       0.9563   0.7951   0.6711     C
C       0.9597   0.2669   0.7348     C
C       0.9597   0.7331   0.7348     C
O         0.96   0.0853    0.561     O
O         0.96   0.9147    0.561     O
C       0.9689      0.5   0.5072     C
C       0.9708   0.3543   0.5079     C
C       0.9708   0.6457   0.5079     C
H       0.9776   0.4261   0.2845     H
H       0.9776   0.5739   0.2845     H
C       0.9805   0.4594   0.2412     C
C       0.9805   0.5406   0.2412     C
C        0.984   0.1061   0.3847     C
C        0.984    0.174   0.3186     C
C        0.984    0.826   0.3186     C
C        0.984   0.8939   0.3847     C
C       0.9845   0.2915   0.2016     C
C       0.9845   0.7085   0.2016     C
C       0.9857   0.4347   0.1619     C
C       0.9857   0.5653   0.1619     C
C       0.9867   0.3549   0.1391     C
C       0.9867   0.6451   0.1391     C
N       0.9879      0.5   0.1107     N
C       0.9949   0.3307   0.0626     C
C       0.9949   0.6693   0.0626     C
H        0.996   0.2034   0.0719     H
H        0.996   0.7966   0.0719     H
C       0.9975   0.2482   0.0392     C
C       0.9975   0.7518   0.0392     C
