data_I
_chemical_name_common  '/home/zhangsd/repos/MofS-CGCNN/ML/data/SSD/clean_cifs/XIMPOA01_clean'
_cell_length_a 14.77400
_cell_length_b 15.65300
_cell_length_c 16.87100
_cell_angle_alpha 90.00000
_cell_angle_beta  90.00000
_cell_angle_gamma 90.00000
_space_group_name_H-M_alt      'P 1'


loop_
_space_group_symop_operation_xyz
  'x, y, z' 

loop_
_atom_site_label
_atom_site_fract_x
_atom_site_fract_y
_atom_site_fract_z
_atom_site_type_symbol
H       0.0029   0.6514   0.3351     H
C       0.0046     0.58   0.6529     C
N       0.0049   0.9872   0.6518     N
H       0.0089   0.0038   0.3514     H
O       0.0108   0.6362   0.7057     O
H       0.0112   0.7955   0.8367     H
C       0.0117   0.5434   0.1855     C
H       0.0159   0.3902   0.9311     H
C        0.017   0.9384   0.5832     C
C       0.0186   0.6247   0.2878     C
H       0.0325   0.3808   0.3324     H
N       0.0326   0.0653   0.2511     N
O       0.0354   0.5044   0.6585     O
H       0.0405   0.9946    0.969     H
C       0.0431   0.1055   0.9212     C
H       0.0431   0.8751   0.8851     H
C       0.0602   0.0504   0.9766     C
H        0.061    0.162   0.9278     H
C       0.0631   0.8214   0.8624     C
C       0.0658   0.0484   0.6485     C
H       0.0721   0.4432   0.3964     H
H       0.0731   0.0899   0.6874     H
C       0.0851    0.974   0.5415     C
C       0.0859    0.394   0.3636     C
Zn     0.08806  0.47161  0.76249    Zn
N       0.0903   0.5849   0.1797     N
C       0.0936   0.7628     0.93     C
C       0.0958   0.6384   0.2465     C
H       0.1006   0.8487   0.0172     H
H       0.1024   0.7503   0.7157     H
H       0.1031   0.6576   0.8615     H
H       0.1037   0.2287   0.3287     H
C       0.1058   0.7908    0.006     C
H       0.1074   0.9546   0.4932     H
C       0.1076   0.6772   0.9134     C
C       0.1083    0.319   0.4159     C
C         0.11   0.0703   0.0528     C
C       0.1142   0.2364   0.3826     C
N       0.1158   0.0442   0.5829     N
H       0.1198   0.3812   0.5168     H
O       0.1233   0.0073   0.0975     O
C       0.1243   0.3272   0.4942     C
O       0.1243   0.3519   0.7429     O
C        0.126   0.7333   0.0672     C
C       0.1287   0.6196   0.9751     C
N       0.1307   0.8399   0.8021     N
O       0.1324   0.1466    0.069     O
H       0.1326   0.7533   0.1188     H
C       0.1357   0.1665     0.43     C
C       0.1358   0.6497   0.0518     C
H       0.1364   0.1119   0.4082     H
H       0.1377    0.562   0.9642     H
C       0.1382   0.7955   0.7329     C
H       0.1394   0.3424   0.2103     H
H       0.1427   0.6754   0.2595     H
C       0.1473   0.2587   0.5428     C
Zn     0.15374  0.02468  0.20973    Zn
C       0.1562   0.1777   0.5097     C
H       0.1566    0.267   0.5967     H
C       0.1573   0.5849   0.1163     C
H       0.1601   0.5283    0.093     H
N       0.1617    0.415     0.31     N
C       0.1624   0.3166   0.8013     C
O       0.1695   0.3516   0.8683     O
O       0.1761   0.9457   0.3635     O
C       0.1769     0.38   0.2375     C
C       0.1877   0.1031   0.5591     C
C       0.1925   0.8997   0.8014     C
O       0.1941   0.9099   0.2374     O
H       0.1963   0.2095   0.7338     H
H       0.1995   0.9393    0.842     H
C          0.2   0.8945   0.3114     C
C       0.2055   0.2324    0.784     C
N       0.2078    0.533   0.7709     N
C       0.2101   0.8319   0.6941     C
H       0.2104    0.601   0.6649     H
H       0.2163   0.5976   0.1385     H
H        0.217   0.1249   0.6064     H
C       0.2316   0.4668   0.3272     C
H       0.2325    0.814   0.6453     H
H       0.2327   0.0714   0.5292     H
H       0.2362   0.4987   0.3735     H
H       0.2366   0.7917    0.385     H
C       0.2395   0.5879   0.7123     C
N        0.244   0.8985   0.7376     N
C       0.2445   0.8122   0.3337     C
C       0.2555   0.1878   0.8337     C
N        0.256   0.1015   0.2376     N
C       0.2605   0.4121   0.2123     C
H       0.2634   0.2083    0.885     H
H       0.2638   0.5013   0.8735     H
H       0.2673   0.9286   0.0292     H
H       0.2675    0.186   0.1453     H
C       0.2684   0.5332   0.8272     C
H        0.283   0.8751   0.1064     H
H       0.2837   0.4024   0.6385     H
H       0.2896    0.399   0.1649     H
C       0.2899   0.1681   0.1941     C
N       0.2922    0.467   0.2709     N
C       0.2945   0.7676    0.284     C
C          0.3   0.1055   0.8114     C
H       0.3005   0.0607    0.342     H
H       0.3037   0.7905   0.2338     H
O       0.3059   0.0901   0.7374     O
C       0.3075   0.1003   0.3014     C
C       0.3123   0.8969   0.0591     C
C       0.3231     0.62   0.7375     C
O       0.3239   0.0543   0.8635     O
O       0.3305   0.6484   0.3683     O
C       0.3376   0.6834   0.3013     C
N       0.3383    0.585     0.81     N
H       0.3399   0.4717    0.593     H
C       0.3427   0.4151   0.6163     C
H       0.3434    0.733   0.0967     H
C       0.3438   0.8223   0.0097     C
Zn     0.34626  0.97532  0.70973    Zn
C       0.3527   0.7413   0.0428     C
H       0.3573   0.3246   0.7595     H
H       0.3606   0.6576   0.7103     H
C       0.3618   0.2045   0.2329     C
H       0.3623    0.438   0.4642     H
H       0.3636   0.8881   0.9082     H
C       0.3642   0.3503   0.5518     C
C       0.3643   0.8335     0.93     C
H       0.3674   0.2467   0.6188     H
O       0.3676   0.8534    0.569     O
N       0.3693   0.1601   0.3021     N
C       0.3713   0.3804   0.4751     C
C        0.374   0.2667   0.5672     C
O       0.3757   0.6481   0.2429     O
C       0.3757   0.6728   0.9942     C
O       0.3767   0.9927   0.5975     O
H       0.3802   0.6188   0.0168     H
N       0.3842   0.9558   0.0829     N
C       0.3858   0.7636   0.8826     C
C         0.39   0.9297   0.5528     C
C       0.3917    0.681   0.9159     C
C       0.3924   0.3228   0.4134     C
H       0.3926   0.0454   0.9932     H
C       0.3942   0.2092    0.506     C
H       0.3963   0.7713   0.8287     H
H       0.3969   0.3424   0.3615     H
H       0.3976   0.2497   0.2157     H
H       0.3994   0.1513   0.5172     H
C       0.4042   0.3616   0.7465     C
C       0.4064   0.2372     0.43     C
N       0.4097   0.4151   0.6797     N
Zn     0.41194  0.52839  0.26249    Zn
C       0.4141    0.606   0.8636     C
C       0.4149    0.026   0.0415     C
H       0.4269   0.9101   0.1874     H
H       0.4279   0.5568   0.8964     H
C       0.4342   0.9516   0.1485     C
C       0.4369   0.1786   0.3624     C
H        0.439    0.838   0.4278     H
C       0.4398   0.9496   0.4766     C
H       0.4569   0.1249   0.3851     H
C       0.4569   0.8945   0.4212     C
H       0.4595   0.0054    0.469     H
O       0.4646   0.4956   0.1585     O
N       0.4674   0.9347   0.7511     N
H       0.4675   0.6192   0.8324     H
C       0.4814   0.3753   0.7878     C
C        0.483   0.0616   0.0832     C
H       0.4841   0.6098   0.4311     H
C       0.4883   0.4566   0.6855     C
H       0.4888   0.2045   0.3367     H
O       0.4892   0.3638   0.2057     O
H       0.4911   0.9962   0.8514     H
N       0.4951   0.0128   0.1518     N
C       0.4954     0.42   0.1529     C
H       0.4971   0.3486   0.8351     H
H       0.5029   0.8486   0.6649     H
C       0.5046     0.92   0.3471     C
N       0.5049   0.5128   0.3482     N
H       0.5089   0.4962   0.6486     H
O       0.5108   0.8638   0.2943     O
H       0.5112   0.7045   0.1633     H
C       0.5117   0.9566   0.8145     C
H       0.5159   0.1098   0.0689     H
C        0.517   0.5616   0.4168     C
C       0.5186   0.8753   0.7122     C
H       0.5325   0.1192   0.6676     H
N       0.5326   0.4347   0.7489     N
O       0.5354   0.9956   0.3415     O
H       0.5405   0.5054    0.031     H
C       0.5431   0.3945   0.0788     C
H       0.5431   0.6249   0.1149     H
C       0.5602   0.4496   0.0234     C
H        0.561    0.338   0.0722     H
C       0.5631   0.6786   0.1376     C
C       0.5658   0.4516   0.3515     C
H       0.5721   0.0568   0.6036     H
H       0.5731   0.4101   0.3126     H
C       0.5851    0.526   0.4585     C
C       0.5859    0.106   0.6364     C
Zn     0.58806  0.02839  0.23751    Zn
N       0.5903   0.9151   0.8203     N
C       0.5936   0.7372     0.07     C
C       0.5958   0.8616   0.7535     C
H       0.6006   0.6513   0.9828     H
H       0.6024   0.7497   0.2843     H
H       0.6031   0.8424   0.1385     H
H       0.6037   0.2713   0.6713     H
C       0.6058   0.7092    0.994     C
H       0.6074   0.5454   0.5068     H
C       0.6076   0.8228   0.0866     C
C       0.6083    0.181   0.5841     C
C         0.61   0.4297   0.9472     C
C       0.6142   0.2636   0.6174     C
N       0.6158   0.4558   0.4171     N
H       0.6198   0.1188   0.4832     H
O       0.6233   0.4927   0.9025     O
O       0.6243   0.1481   0.2571     O
C       0.6243   0.1728   0.5058     C
C        0.626   0.7667   0.9328     C
C       0.6287   0.8804   0.0249     C
N       0.6307   0.6601   0.1979     N
O       0.6324   0.3534    0.931     O
H       0.6326   0.7467   0.8812     H
C       0.6357   0.3335     0.57     C
C       0.6358   0.8503   0.9482     C
H       0.6364   0.3881   0.5918     H
H       0.6377    0.938   0.0358     H
C       0.6382   0.7045   0.2671     C
H       0.6394   0.1576   0.7897     H
H       0.6427   0.8246   0.7405     H
C       0.6473   0.2413   0.4572     C
Zn     0.65374  0.47532  0.79027    Zn
C       0.6562   0.3223   0.4903     C
H       0.6566    0.233   0.4033     H
C       0.6573   0.9151   0.8837     C
H       0.6601   0.9717    0.907     H
N       0.6617    0.085     0.69     N
C       0.6624   0.1834   0.1987     C
O       0.6695   0.1484   0.1317     O
O       0.6761   0.5543   0.6365     O
C       0.6769     0.12   0.7625     C
C       0.6877   0.3969   0.4409     C
C       0.6925   0.6003   0.1986     C
O       0.6941   0.5901   0.7626     O
H       0.6963   0.2905   0.2662     H
H       0.6995   0.5607    0.158     H
C          0.7   0.6055   0.6886     C
C       0.7055   0.2676    0.216     C
N       0.7078    0.967   0.2291     N
C       0.7101   0.6681   0.3059     C
H       0.7104    0.899   0.3351     H
H       0.7163   0.9024   0.8615     H
H        0.717   0.3751   0.3936     H
C       0.7316   0.0332   0.6728     C
H       0.7325    0.686   0.3547     H
H       0.7327   0.4286   0.4708     H
H       0.7362   0.0013   0.6265     H
H       0.7366   0.7083    0.615     H
C       0.7395   0.9121   0.2877     C
N        0.744   0.6015   0.2624     N
C       0.7445   0.6878   0.6663     C
C       0.7555   0.3122   0.1663     C
N        0.756   0.3985   0.7624     N
C       0.7605   0.0879   0.7877     C
H       0.7634   0.2917    0.115     H
H       0.7638   0.9987   0.1265     H
H       0.7673   0.5714   0.9708     H
H       0.7675    0.314   0.8547     H
C       0.7684   0.9668   0.1728     C
H        0.783   0.6249   0.8936     H
H       0.7837   0.0976   0.3615     H
H       0.7896    0.101   0.8351     H
C       0.7899   0.3319   0.8059     C
N       0.7922    0.033   0.7291     N
C       0.7945   0.7324    0.716     C
C          0.8   0.3945   0.1886     C
H       0.8005   0.4393    0.658     H
H       0.8037   0.7095   0.7662     H
O       0.8059   0.4099   0.2626     O
C       0.8075   0.3997   0.6986     C
C       0.8123   0.6031   0.9409     C
C       0.8231     0.88   0.2625     C
O       0.8239   0.4457   0.1365     O
O       0.8305   0.8516   0.6317     O
C       0.8376   0.8166   0.6987     C
N       0.8383    0.915     0.19     N
H       0.8399   0.0283    0.407     H
C       0.8427   0.0849   0.3837     C
H       0.8434    0.767   0.9033     H
C       0.8438   0.6777   0.9903     C
Zn     0.84626  0.52468  0.29027    Zn
C       0.8527   0.7587   0.9572     C
H       0.8573   0.1754   0.2405     H
H       0.8606   0.8424   0.2897     H
C       0.8618   0.2955   0.7671     C
H       0.8623    0.062   0.5358     H
H       0.8636   0.6119   0.0918     H
C       0.8642   0.1497   0.4482     C
C       0.8643   0.6665     0.07     C
H       0.8674   0.2533   0.3812     H
O       0.8676   0.6466    0.431     O
N       0.8693   0.3399   0.6979     N
C       0.8713   0.1196   0.5249     C
C        0.874   0.2333   0.4328     C
C       0.8757   0.8272   0.0058     C
O       0.8757   0.8519   0.7571     O
O       0.8767   0.5073   0.4025     O
H       0.8802   0.8812   0.9832     H
N       0.8842   0.5442   0.9171     N
C       0.8858   0.7364   0.1174     C
C         0.89   0.5703   0.4472     C
C       0.8917    0.819   0.0841     C
C       0.8924   0.1772   0.5866     C
H       0.8926   0.4546   0.0068     H
C       0.8942   0.2908    0.494     C
H       0.8963   0.7287   0.1713     H
H       0.8969   0.1576   0.6385     H
H       0.8976   0.2503   0.7843     H
H       0.8994   0.3487   0.4828     H
C       0.9042   0.1384   0.2535     C
C       0.9064   0.2628     0.57     C
N       0.9097   0.0849   0.3203     N
Zn     0.91194  0.97161  0.73751    Zn
C       0.9141    0.894   0.1364     C
C       0.9149    0.474   0.9585     C
H       0.9269   0.5899   0.8126     H
H       0.9279   0.9432   0.1036     H
C       0.9342   0.5484   0.8515     C
C       0.9369   0.3214   0.6376     C
H        0.939    0.662   0.5722     H
C       0.9398   0.5504   0.5234     C
H       0.9569   0.3751   0.6149     H
C       0.9569   0.6055   0.5788     C
H       0.9595   0.4946    0.531     H
O       0.9646   0.0044   0.8415     O
N       0.9674   0.5653   0.2489     N
H       0.9675   0.8808   0.1676     H
C       0.9814   0.1247   0.2122     C
C        0.983   0.4384   0.9168     C
H       0.9841   0.8902   0.5689     H
C       0.9883   0.0434   0.3145     C
H       0.9888   0.2955   0.6633     H
O       0.9892   0.1362   0.7943     O
H       0.9911   0.5038   0.1486     H
N       0.9951   0.4872   0.8482     N
C       0.9954     0.08   0.8471     C
H       0.9971   0.1514   0.1649     H
