data_I
_chemical_name_common  '/home/zhangsd/repos/MofS-CGCNN/ML/data/SSD/clean_cifs/XOJPES_clean'
_cell_length_a 14.87700
_cell_length_b  8.55450
_cell_length_c  7.40810
_cell_angle_alpha 90.00000
_cell_angle_beta  118.77800
_cell_angle_gamma 90.00000
_space_group_name_H-M_alt      'P 1'


loop_
_space_group_symop_operation_xyz
  'x, y, z' 

loop_
_atom_site_label
_atom_site_fract_x
_atom_site_fract_y
_atom_site_fract_z
_atom_site_type_symbol
C       0.0414   0.1503   0.2646     C
C       0.0414   0.8497   0.7646     C
Cu     0.18239  0.18084  0.31816    Cu
Cu     0.18239  0.81916  0.81816    Cu
C      0.23315   0.3863   0.2988     C
C      0.23315   0.6137   0.7988     C
N      0.24293   0.0007   0.7473     N
N      0.24293   0.9993   0.2473     N
N      0.25707   0.4993   0.2527     N
N      0.25707   0.5007   0.7527     N
C      0.26685   0.1137   0.7012     C
C      0.26685   0.8863   0.2012     C
Cu     0.31761  0.31916  0.68184    Cu
Cu     0.31761  0.68084  0.18184    Cu
C       0.4586   0.3497   0.7354     C
C       0.4586   0.6503   0.2354     C
C       0.5414   0.3497   0.7646     C
C       0.5414   0.6503   0.2646     C
Cu     0.68239  0.31916  0.81816    Cu
Cu     0.68239  0.68084  0.31816    Cu
C      0.73315   0.1137   0.7988     C
C      0.73315   0.8863   0.2988     C
N      0.74293   0.4993   0.2473     N
N      0.74293   0.5007   0.7473     N
N      0.75707   0.0007   0.7527     N
N      0.75707   0.9993   0.2527     N
C      0.76685   0.3863   0.2012     C
C      0.76685   0.6137   0.7012     C
Cu     0.81761  0.18084  0.18184    Cu
Cu     0.81761  0.81916  0.68184    Cu
C       0.9586   0.1503   0.2354     C
C       0.9586   0.8497   0.7354     C
