data_I
_chemical_name_common  '/home/zhangsd/repos/MofS-CGCNN/ML/data/SSD/clean_cifs/XOPKOD_clean'
_cell_length_a 13.83400
_cell_length_b 13.83400
_cell_length_c  6.16200
_cell_angle_alpha 90.00000
_cell_angle_beta  90.00000
_cell_angle_gamma 90.00000
_space_group_name_H-M_alt      'P 1'


loop_
_space_group_symop_operation_xyz
  'x, y, z' 

loop_
_atom_site_label
_atom_site_fract_x
_atom_site_fract_y
_atom_site_fract_z
_atom_site_type_symbol
C      0.00366  0.53364   0.5907     C
S      0.02702  0.89804  0.23856     S
C      0.02731  0.34311   0.1639     C
C      0.03364  0.99634   0.4093     C
C      0.05812  0.39397   0.3491     C
C       0.0588  0.62203   0.9138     C
H       0.0612   0.2921   0.1017     H
S      0.10196  0.52702  0.76144     S
C      0.10603  0.05812   0.3491     C
C       0.1095   0.6531   0.1014     C
H       0.1149   0.3798   0.4232     H
H       0.1202   0.1149   0.4232     H
C      0.12203   0.9412   0.0862     C
N      0.15123  0.67681   0.2527     N
C       0.1531   0.8905   0.8986     C
C      0.15689  0.02731   0.1639     C
N      0.17681  0.84877   0.7473     N
H       0.2079   0.0612   0.1017     H
Ag        0.25     0.75      0.5    Ag
H       0.2921   0.4388   0.1017     H
N      0.32319  0.65123   0.7473     N
C      0.34311  0.47269   0.1639     C
C       0.3469   0.6095   0.8986     C
N      0.34877  0.82319   0.2527     N
C      0.37797   0.5588   0.0862     C
H       0.3798   0.3851   0.4232     H
H       0.3851   0.1202   0.4232     H
C       0.3905   0.8469   0.1014     C
C      0.39397  0.44188   0.3491     C
S      0.39804  0.97298  0.76144     S
H       0.4388   0.2079   0.1017     H
C       0.4412  0.87797   0.9138     C
C      0.44188  0.10603   0.3491     C
C      0.46636  0.50366   0.4093     C
C      0.47269  0.15689   0.1639     C
S      0.47298  0.60196  0.23856     S
C      0.49634  0.96636   0.5907     C
C      0.50366  0.03364   0.4093     C
S      0.52702  0.39804  0.76144     S
C      0.52731  0.84311   0.8361     C
C      0.53364  0.49634   0.5907     C
C      0.55812  0.89397   0.6509     C
C       0.5588  0.12203   0.0862     C
H       0.5612   0.7921   0.8983     H
S      0.60196  0.02702  0.23856     S
C      0.60603  0.55812   0.6509     C
C       0.6095   0.1531   0.8986     C
H       0.6149   0.8798   0.5768     H
H       0.6202   0.6149   0.5768     H
C      0.62203   0.4412   0.9138     C
N      0.65123  0.17681   0.7473     N
C       0.6531   0.3905   0.1014     C
C      0.65689  0.52731   0.8361     C
N      0.67681  0.34877   0.2527     N
H       0.7079   0.5612   0.8983     H
Ag        0.75     0.25      0.5    Ag
H       0.7921   0.9388   0.8983     H
N      0.82319  0.15123   0.2527     N
C      0.84311  0.97269   0.8361     C
C       0.8469   0.1095   0.1014     C
N      0.84877  0.32319   0.7473     N
C      0.87797   0.0588   0.9138     C
H       0.8798   0.8851   0.5768     H
H       0.8851   0.6202   0.5768     H
C       0.8905   0.3469   0.8986     C
C      0.89397  0.94188   0.6509     C
S      0.89804  0.47298  0.23856     S
H       0.9388   0.7079   0.8983     H
C       0.9412  0.37797   0.0862     C
C      0.94188  0.60603   0.6509     C
C      0.96636  0.00366   0.5907     C
C      0.97269  0.65689   0.8361     C
S      0.97298  0.10196  0.76144     S
C      0.99634  0.46636   0.4093     C
