data_I
_chemical_name_common  '/home/zhangsd/repos/MofS-CGCNN/ML/data/SSD/clean_cifs/XOPKIX_clean'
_cell_length_a 13.63760
_cell_length_b 13.63760
_cell_length_c  6.20540
_cell_angle_alpha 90.00000
_cell_angle_beta  90.00000
_cell_angle_gamma 90.00000
_space_group_name_H-M_alt      'P 1'


loop_
_space_group_symop_operation_xyz
  'x, y, z' 

loop_
_atom_site_label
_atom_site_fract_x
_atom_site_fract_y
_atom_site_fract_z
_atom_site_type_symbol
C       0.0033   0.5329   0.5922     C
S      0.02738  0.89569  0.24374     S
C       0.0309   0.3474   0.1546     C
C       0.0329   0.9967   0.4078     C
C       0.0584   0.6197   0.9156     C
C       0.0613   0.3966   0.3417     C
H       0.0677   0.2974   0.0852     H
C       0.1034   0.0613   0.3417     C
S      0.10431  0.52738  0.75626     S
C       0.1103   0.6503   0.1016     C
H       0.1176   0.1207    0.415     H
C       0.1197   0.9416   0.0844     C
H       0.1207   0.3824    0.415     H
C       0.1503   0.8897   0.8984     C
C       0.1526   0.0309   0.1546     C
N       0.1527   0.6737   0.2502     N
N       0.1737   0.8473   0.7498     N
H       0.2026   0.0677   0.0852     H
Ag        0.25     0.75      0.5    Ag
H       0.2974   0.4323   0.0852     H
N       0.3263   0.6527   0.7498     N
N       0.3473   0.8263   0.2502     N
C       0.3474   0.4691   0.1546     C
C       0.3497   0.6103   0.8984     C
H       0.3793   0.1176    0.415     H
C       0.3803   0.5584   0.0844     C
H       0.3824   0.3793    0.415     H
C       0.3897   0.8497   0.1016     C
S      0.39569  0.97262  0.75626     S
C       0.3966   0.4387   0.3417     C
H       0.4323   0.2026   0.0852     H
C       0.4387   0.1034   0.3417     C
C       0.4416   0.8803   0.9156     C
C       0.4671   0.5033   0.4078     C
C       0.4691   0.1526   0.1546     C
S      0.47262  0.60431  0.24374     S
C       0.4967   0.9671   0.5922     C
C       0.5033   0.0329   0.4078     C
S      0.52738  0.39569  0.75626     S
C       0.5309   0.8474   0.8454     C
C       0.5329   0.4967   0.5922     C
C       0.5584   0.1197   0.0844     C
C       0.5613   0.8966   0.6583     C
H       0.5677   0.7974   0.9148     H
C       0.6034   0.5613   0.6583     C
S      0.60431  0.02738  0.24374     S
C       0.6103   0.1503   0.8984     C
H       0.6176   0.6207    0.585     H
C       0.6197   0.4416   0.9156     C
H       0.6207   0.8824    0.585     H
C       0.6503   0.3897   0.1016     C
C       0.6526   0.5309   0.8454     C
N       0.6527   0.1737   0.7498     N
N       0.6737   0.3473   0.2502     N
H       0.7026   0.5677   0.9148     H
Ag        0.75     0.25      0.5    Ag
H       0.7974   0.9323   0.9148     H
N       0.8263   0.1527   0.2502     N
N       0.8473   0.3263   0.7498     N
C       0.8474   0.9691   0.8454     C
C       0.8497   0.1103   0.1016     C
H       0.8793   0.6176    0.585     H
C       0.8803   0.0584   0.9156     C
H       0.8824   0.8793    0.585     H
C       0.8897   0.3497   0.8984     C
S      0.89569  0.47262  0.24374     S
C       0.8966   0.9387   0.6583     C
H       0.9323   0.7026   0.9148     H
C       0.9387   0.6034   0.6583     C
C       0.9416   0.3803   0.0844     C
C       0.9671   0.0033   0.5922     C
C       0.9691   0.6526   0.8454     C
S      0.97262  0.10431  0.75626     S
C       0.9967   0.4671   0.4078     C
