data_I
_chemical_name_common  '/home/zhangsd/repos/MofS-CGCNN/ML/data/SSD/clean_cifs/XOVPUU_clean'
_cell_length_a 15.95680
_cell_length_b 29.32900
_cell_length_c 28.65700
_cell_angle_alpha 90.00000
_cell_angle_beta  90.00000
_cell_angle_gamma 90.00000
_space_group_name_H-M_alt      'P 1'


loop_
_space_group_symop_operation_xyz
  'x, y, z' 

loop_
_atom_site_label
_atom_site_fract_x
_atom_site_fract_y
_atom_site_fract_z
_atom_site_type_symbol
H          0.0   0.3484     0.25     H
H          0.0   0.3484     0.75     H
C          0.0  0.38008     0.25     C
C          0.0  0.38008     0.75     C
C          0.0  0.47427     0.25     C
C          0.0  0.47427     0.75     C
C          0.0  0.52573     0.25     C
C          0.0  0.52573     0.75     C
C          0.0  0.61992     0.25     C
C          0.0  0.61992     0.75     C
H          0.0   0.6516     0.25     H
H          0.0   0.6516     0.75     H
H       0.0183   0.3289   0.3314     H
H       0.0183   0.3289   0.6686     H
H       0.0183   0.6711   0.1686     H
H       0.0183   0.6711   0.8314     H
C       0.0327  0.33813   0.1562     C
C       0.0327  0.33813   0.8438     C
C       0.0327  0.66187   0.3438     C
C       0.0327  0.66187   0.6562     C
C        0.034  0.45006  0.21432     C
C        0.034  0.45006  0.78568     C
C        0.034  0.54994  0.28568     C
C        0.034  0.54994  0.71432     C
C       0.0364  0.40236  0.21307     C
C       0.0364  0.40236  0.78693     C
C       0.0364  0.59764  0.28693     C
C       0.0364  0.59764  0.71307     C
H       0.0422   0.2877   0.1078     H
H       0.0422   0.2877   0.8922     H
H       0.0422   0.7123   0.3922     H
H       0.0422   0.7123   0.6078     H
C       0.0701  0.31303  0.11967     C
C       0.0701  0.31303  0.88033     C
C       0.0701  0.68697  0.38033     C
C       0.0701  0.68697  0.61967     C
O       0.0724  0.47183  0.17709     O
O       0.0724  0.47183  0.82291     O
O       0.0724  0.52817  0.32291     O
O       0.0724  0.52817  0.67709     O
C       0.0728  0.37699  0.17363     C
C       0.0728  0.37699  0.82637     C
C       0.0728  0.62301  0.32637     C
C       0.0728  0.62301  0.67363     C
O        0.142  0.26355  0.04804     O
O        0.142  0.26355  0.95196     O
O        0.142  0.73645  0.45196     O
O        0.142  0.73645  0.54804     O
C       0.1463  0.32489   0.1012     C
C       0.1463  0.32489   0.8988     C
C       0.1463  0.67511   0.3988     C
C       0.1463  0.67511   0.6012     C
C       0.1493  0.38909  0.15466     C
C       0.1493  0.38909  0.84534     C
C       0.1493  0.61091  0.34534     C
C       0.1493  0.61091  0.65466     C
H       0.1774   0.4145   0.1663     H
H       0.1774   0.4145   0.8337     H
H       0.1774   0.5855   0.3337     H
H       0.1774   0.5855   0.6663     H
Cu     0.18503   0.2227      0.0    Cu
Cu     0.18503   0.7773      0.5    Cu
C       0.1851  0.29853  0.06211     C
C       0.1851  0.29853  0.93789     C
C       0.1851  0.70147  0.43789     C
C       0.1851  0.70147  0.56211     C
C       0.1854  0.36386  0.11829     C
C       0.1854  0.36386  0.88171     C
C       0.1854  0.63614  0.38171     C
C       0.1854  0.63614  0.61829     C
H        0.236   0.3733   0.1054     H
H        0.236   0.3733   0.8946     H
H        0.236   0.6267   0.3946     H
H        0.236   0.6267   0.6054     H
O       0.2457  0.18981  0.04801     O
O       0.2457  0.18981  0.95199     O
O       0.2457  0.81019  0.45199     O
O       0.2457  0.81019  0.54801     O
O       0.2543  0.31019  0.04801     O
O       0.2543  0.31019  0.95199     O
O       0.2543  0.68981  0.45199     O
O       0.2543  0.68981  0.54801     O
H        0.264   0.1267   0.1054     H
H        0.264   0.1267   0.8946     H
H        0.264   0.8733   0.3946     H
H        0.264   0.8733   0.6054     H
C       0.3146  0.13614  0.11829     C
C       0.3146  0.13614  0.88171     C
C       0.3146  0.86386  0.38171     C
C       0.3146  0.86386  0.61829     C
C       0.3149  0.20147  0.06211     C
C       0.3149  0.20147  0.93789     C
C       0.3149  0.79853  0.43789     C
C       0.3149  0.79853  0.56211     C
Cu     0.31497   0.2773      0.0    Cu
Cu     0.31497   0.7227      0.5    Cu
H       0.3226   0.0855   0.1663     H
H       0.3226   0.0855   0.8337     H
H       0.3226   0.9145   0.3337     H
H       0.3226   0.9145   0.6663     H
C       0.3507  0.11091  0.15466     C
C       0.3507  0.11091  0.84534     C
C       0.3507  0.88909  0.34534     C
C       0.3507  0.88909  0.65466     C
C       0.3537  0.17511   0.1012     C
C       0.3537  0.17511   0.8988     C
C       0.3537  0.82489   0.3988     C
C       0.3537  0.82489   0.6012     C
O        0.358  0.23645  0.04804     O
O        0.358  0.23645  0.95196     O
O        0.358  0.76355  0.45196     O
O        0.358  0.76355  0.54804     O
C       0.4272  0.12301  0.17363     C
C       0.4272  0.12301  0.82637     C
C       0.4272  0.87699  0.32637     C
C       0.4272  0.87699  0.67363     C
O       0.4276  0.02817  0.17709     O
O       0.4276  0.02817  0.82291     O
O       0.4276  0.97183  0.32291     O
O       0.4276  0.97183  0.67709     O
C       0.4299  0.18697  0.11967     C
C       0.4299  0.18697  0.88033     C
C       0.4299  0.81303  0.38033     C
C       0.4299  0.81303  0.61967     C
H       0.4578   0.2123   0.1078     H
H       0.4578   0.2123   0.8922     H
H       0.4578   0.7877   0.3922     H
H       0.4578   0.7877   0.6078     H
C       0.4636  0.09764  0.21307     C
C       0.4636  0.09764  0.78693     C
C       0.4636  0.90236  0.28693     C
C       0.4636  0.90236  0.71307     C
C        0.466  0.04994  0.21432     C
C        0.466  0.04994  0.78568     C
C        0.466  0.95006  0.28568     C
C        0.466  0.95006  0.71432     C
C       0.4673  0.16187   0.1562     C
C       0.4673  0.16187   0.8438     C
C       0.4673  0.83813   0.3438     C
C       0.4673  0.83813   0.6562     C
H       0.4817   0.1711   0.3314     H
H       0.4817   0.1711   0.6686     H
H       0.4817   0.8289   0.1686     H
H       0.4817   0.8289   0.8314     H
C          0.5  0.02573     0.25     C
C          0.5  0.02573     0.75     C
C          0.5  0.11992     0.25     C
C          0.5  0.11992     0.75     C
H          0.5   0.1516     0.25     H
H          0.5   0.1516     0.75     H
H          0.5   0.8484     0.25     H
H          0.5   0.8484     0.75     H
C          0.5  0.88008     0.25     C
C          0.5  0.88008     0.75     C
C          0.5  0.97427     0.25     C
C          0.5  0.97427     0.75     C
H       0.5183   0.1711   0.1686     H
H       0.5183   0.1711   0.8314     H
H       0.5183   0.8289   0.3314     H
H       0.5183   0.8289   0.6686     H
C       0.5327  0.16187   0.3438     C
C       0.5327  0.16187   0.6562     C
C       0.5327  0.83813   0.1562     C
C       0.5327  0.83813   0.8438     C
C        0.534  0.04994  0.28568     C
C        0.534  0.04994  0.71432     C
C        0.534  0.95006  0.21432     C
C        0.534  0.95006  0.78568     C
C       0.5364  0.09764  0.28693     C
C       0.5364  0.09764  0.71307     C
C       0.5364  0.90236  0.21307     C
C       0.5364  0.90236  0.78693     C
H       0.5422   0.2123   0.3922     H
H       0.5422   0.2123   0.6078     H
H       0.5422   0.7877   0.1078     H
H       0.5422   0.7877   0.8922     H
C       0.5701  0.18697  0.38033     C
C       0.5701  0.18697  0.61967     C
C       0.5701  0.81303  0.11967     C
C       0.5701  0.81303  0.88033     C
O       0.5724  0.02817  0.32291     O
O       0.5724  0.02817  0.67709     O
O       0.5724  0.97183  0.17709     O
O       0.5724  0.97183  0.82291     O
C       0.5728  0.12301  0.32637     C
C       0.5728  0.12301  0.67363     C
C       0.5728  0.87699  0.17363     C
C       0.5728  0.87699  0.82637     C
O        0.642  0.23645  0.45196     O
O        0.642  0.23645  0.54804     O
O        0.642  0.76355  0.04804     O
O        0.642  0.76355  0.95196     O
C       0.6463  0.17511   0.3988     C
C       0.6463  0.17511   0.6012     C
C       0.6463  0.82489   0.1012     C
C       0.6463  0.82489   0.8988     C
C       0.6493  0.11091  0.34534     C
C       0.6493  0.11091  0.65466     C
C       0.6493  0.88909  0.15466     C
C       0.6493  0.88909  0.84534     C
H       0.6774   0.0855   0.3337     H
H       0.6774   0.0855   0.6663     H
H       0.6774   0.9145   0.1663     H
H       0.6774   0.9145   0.8337     H
Cu     0.68503   0.2773      0.5    Cu
Cu     0.68503   0.7227      0.0    Cu
C       0.6851  0.20147  0.43789     C
C       0.6851  0.20147  0.56211     C
C       0.6851  0.79853  0.06211     C
C       0.6851  0.79853  0.93789     C
C       0.6854  0.13614  0.38171     C
C       0.6854  0.13614  0.61829     C
C       0.6854  0.86386  0.11829     C
C       0.6854  0.86386  0.88171     C
H        0.736   0.1267   0.3946     H
H        0.736   0.1267   0.6054     H
H        0.736   0.8733   0.1054     H
H        0.736   0.8733   0.8946     H
O       0.7457  0.31019  0.45199     O
O       0.7457  0.31019  0.54801     O
O       0.7457  0.68981  0.04801     O
O       0.7457  0.68981  0.95199     O
O       0.7543  0.18981  0.45199     O
O       0.7543  0.18981  0.54801     O
O       0.7543  0.81019  0.04801     O
O       0.7543  0.81019  0.95199     O
H        0.764   0.3733   0.3946     H
H        0.764   0.3733   0.6054     H
H        0.764   0.6267   0.1054     H
H        0.764   0.6267   0.8946     H
C       0.8146  0.36386  0.38171     C
C       0.8146  0.36386  0.61829     C
C       0.8146  0.63614  0.11829     C
C       0.8146  0.63614  0.88171     C
C       0.8149  0.29853  0.43789     C
C       0.8149  0.29853  0.56211     C
C       0.8149  0.70147  0.06211     C
C       0.8149  0.70147  0.93789     C
Cu     0.81497   0.2227      0.5    Cu
Cu     0.81497   0.7773      0.0    Cu
H       0.8226   0.4145   0.3337     H
H       0.8226   0.4145   0.6663     H
H       0.8226   0.5855   0.1663     H
H       0.8226   0.5855   0.8337     H
C       0.8507  0.38909  0.34534     C
C       0.8507  0.38909  0.65466     C
C       0.8507  0.61091  0.15466     C
C       0.8507  0.61091  0.84534     C
C       0.8537  0.32489   0.3988     C
C       0.8537  0.32489   0.6012     C
C       0.8537  0.67511   0.1012     C
C       0.8537  0.67511   0.8988     C
O        0.858  0.26355  0.45196     O
O        0.858  0.26355  0.54804     O
O        0.858  0.73645  0.04804     O
O        0.858  0.73645  0.95196     O
C       0.9272  0.37699  0.32637     C
C       0.9272  0.37699  0.67363     C
C       0.9272  0.62301  0.17363     C
C       0.9272  0.62301  0.82637     C
O       0.9276  0.47183  0.32291     O
O       0.9276  0.47183  0.67709     O
O       0.9276  0.52817  0.17709     O
O       0.9276  0.52817  0.82291     O
C       0.9299  0.31303  0.38033     C
C       0.9299  0.31303  0.61967     C
C       0.9299  0.68697  0.11967     C
C       0.9299  0.68697  0.88033     C
H       0.9578   0.2877   0.3922     H
H       0.9578   0.2877   0.6078     H
H       0.9578   0.7123   0.1078     H
H       0.9578   0.7123   0.8922     H
C       0.9636  0.40236  0.28693     C
C       0.9636  0.40236  0.71307     C
C       0.9636  0.59764  0.21307     C
C       0.9636  0.59764  0.78693     C
C        0.966  0.45006  0.28568     C
C        0.966  0.45006  0.71432     C
C        0.966  0.54994  0.21432     C
C        0.966  0.54994  0.78568     C
C       0.9673  0.33813   0.3438     C
C       0.9673  0.33813   0.6562     C
C       0.9673  0.66187   0.1562     C
C       0.9673  0.66187   0.8438     C
H       0.9817   0.3289   0.1686     H
H       0.9817   0.3289   0.8314     H
H       0.9817   0.6711   0.3314     H
H       0.9817   0.6711   0.6686     H
