data_I
_chemical_name_common  '/home/zhangsd/repos/MofS-CGCNN/ML/data/SSD/clean_cifs/XUJPIC_clean'
_cell_length_a 10.78100
_cell_length_b 13.90300
_cell_length_c 18.74000
_cell_angle_alpha 90.00000
_cell_angle_beta  98.17000
_cell_angle_gamma 90.00000
_space_group_name_H-M_alt      'P 1'


loop_
_space_group_symop_operation_xyz
  'x, y, z' 

loop_
_atom_site_label
_atom_site_fract_x
_atom_site_fract_y
_atom_site_fract_z
_atom_site_type_symbol
C      0.00095  0.24298  0.03389     C
C      0.00095  0.25702  0.53389     C
C      0.00552  0.65881  0.95325     C
C      0.00552  0.84119  0.45325     C
O      0.04346  0.03904   0.4115     O
O      0.04346  0.46096   0.9115     O
H       0.0693   0.1222   0.5573     H
H       0.0693   0.3778   0.0573     H
H       0.1041   0.6223   0.4904     H
H       0.1041   0.8777   0.9904     H
C      0.10848  0.68947   0.4816     C
C      0.10848  0.81053   0.9816     C
C      0.12141  0.61411  0.95588     C
C      0.12141  0.88589  0.45588     C
C      0.12539  0.19571  0.02747     C
C      0.12539  0.30429  0.52747     C
O      0.12778  0.11733  0.99559     O
O      0.12778  0.38267  0.49559     O
C        0.128  0.50852   0.9422     C
C        0.128  0.99148   0.4422     C
O      0.22311  0.24152  0.05638     O
O      0.22311  0.25848  0.55638     O
C      0.22437  0.73416  0.48423     C
C      0.22437  0.76584  0.98423     C
C      0.23083  0.66763  0.97138     C
C      0.23083  0.83237  0.47138     C
O      0.24047  0.02809  0.46774     O
O      0.24047  0.47191  0.96774     O
O      0.30724  0.13285  0.65334     O
O      0.30724  0.36715  0.15334     O
H         0.31   0.6371   0.9732     H
H         0.31   0.8629   0.4732     H
O       0.3252  0.19236  0.43304     O
O       0.3252  0.30764  0.93304     O
C        0.347  0.68159  0.49522     C
C        0.347  0.81841  0.99522     C
O       0.3478  0.59207  0.48495     O
O       0.3478  0.90793  0.98495     O
O      0.35962  0.10296  0.96792     O
O      0.35962  0.39704  0.46792     O
C      0.36551  0.21399  0.37393     C
C      0.36551  0.28601  0.87393     C
O       0.3657   0.2031  0.84911     O
O       0.3657   0.2969  0.34911     O
H       0.3855   0.1989    0.236     H
H       0.3855   0.3011    0.736     H
Ni      0.3943  0.23079  0.02375    Ni
Ni      0.3943  0.26921  0.52375    Ni
C      0.40828  0.10068  0.62766     C
C      0.40828  0.39932  0.12766     C
C      0.41856  0.13272  0.33398     C
C      0.41856  0.36728  0.83398     C
C      0.42044  0.14309  0.26037     C
C      0.42044  0.35691  0.76037     C
H       0.4328   0.0552   0.7679     H
H       0.4328   0.4448   0.2679     H
O      0.44118  0.73453  0.51307     O
O      0.44118  0.76547  0.01307     O
O      0.44515  0.13484  0.57404     O
O      0.44515  0.36516  0.07404     O
O      0.45855  0.16943  0.11916     O
O      0.45855  0.33057  0.61916     O
H       0.4661   0.0428   0.4196     H
H       0.4661   0.4572   0.9196     H
C       0.4692  0.08395    0.141     C
C       0.4692  0.41605    0.641     C
C      0.46971   0.0511  0.36957     C
C      0.46971   0.4489  0.86957     C
C      0.47175  0.00776  0.74213     C
C      0.47175  0.49224  0.24213     C
C      0.47347  0.07183  0.22234     C
C      0.47347  0.42817  0.72234     C
C      0.47371   0.0184  0.66854     C
C      0.47371   0.4816  0.16854     C
O      0.47995  0.00897  0.10542     O
O      0.47995  0.49103  0.60542     O
Ni         0.5      0.0      0.0    Ni
Ni         0.5      0.5      0.5    Ni
O      0.52005  0.50897  0.39458     O
O      0.52005  0.99103  0.89458     O
C      0.52629   0.5184  0.83146     C
C      0.52629   0.9816  0.33146     C
C      0.52653  0.57183  0.27766     C
C      0.52653  0.92817  0.77766     C
C      0.52825  0.50776  0.75787     C
C      0.52825  0.99224  0.25787     C
C      0.53029   0.5511  0.13043     C
C      0.53029   0.9489  0.63043     C
C       0.5308  0.58395    0.359     C
C       0.5308  0.91605    0.859     C
H       0.5339   0.5428   0.0804     H
H       0.5339   0.9572   0.5804     H
O      0.54145  0.66943  0.38084     O
O      0.54145  0.83057  0.88084     O
O      0.55485  0.63484  0.92596     O
O      0.55485  0.86516  0.42596     O
O      0.55882  0.23453  0.98693     O
O      0.55882  0.26547  0.48693     O
H       0.5672   0.5552   0.7321     H
H       0.5672   0.9448   0.2321     H
C      0.57956  0.64309  0.23963     C
C      0.57956  0.85691  0.73963     C
C      0.58144  0.63272  0.16602     C
C      0.58144  0.86728  0.66602     C
C      0.59172  0.60068  0.87234     C
C      0.59172  0.89932  0.37234     C
Ni      0.6057  0.73079  0.47625    Ni
Ni      0.6057  0.76921  0.97625    Ni
H       0.6145   0.6989    0.264     H
H       0.6145   0.8011    0.764     H
O       0.6343   0.7031  0.65089     O
O       0.6343   0.7969  0.15089     O
C      0.63449  0.71399  0.12607     C
C      0.63449  0.78601  0.62607     C
O      0.64038  0.60296  0.53208     O
O      0.64038  0.89704  0.03208     O
O       0.6522  0.09207  0.01505     O
O       0.6522  0.40793  0.51505     O
C        0.653  0.18159  0.00478     C
C        0.653  0.31841  0.50478     C
O       0.6748  0.69236  0.06696     O
O       0.6748  0.80764  0.56696     O
H         0.69   0.1371   0.5268     H
H         0.69   0.3629   0.0268     H
O      0.69276  0.63285  0.84666     O
O      0.69276  0.86715  0.34666     O
O      0.75953  0.52809  0.03226     O
O      0.75953  0.97191  0.53226     O
C      0.76917  0.16763  0.52862     C
C      0.76917  0.33237  0.02862     C
C      0.77563  0.23416  0.01577     C
C      0.77563  0.26584  0.51577     C
O      0.77689  0.74152  0.44362     O
O      0.77689  0.75848  0.94362     O
C        0.872  0.00852   0.5578     C
C        0.872  0.49148   0.0578     C
O      0.87222  0.61733  0.50441     O
O      0.87222  0.88267  0.00441     O
C      0.87461  0.69571  0.47253     C
C      0.87461  0.80429  0.97253     C
C      0.87859  0.11411  0.54412     C
C      0.87859  0.38589  0.04412     C
C      0.89152  0.18947   0.0184     C
C      0.89152  0.31053   0.5184     C
H       0.8959   0.1223   0.0096     H
H       0.8959   0.3777   0.5096     H
H       0.9307   0.6222   0.9427     H
H       0.9307   0.8778   0.4427     H
O      0.95654  0.53904   0.0885     O
O      0.95654  0.96096   0.5885     O
C      0.99448  0.15881  0.54675     C
C      0.99448  0.34119  0.04675     C
C      0.99905  0.74298  0.46611     C
C      0.99905  0.75702  0.96611     C
