data_I
_chemical_name_common  '/home/zhangsd/repos/MofS-CGCNN/ML/data/SSD/clean_cifs/XUWVUG_clean_h'
_cell_length_a  3.68900
_cell_length_b 17.64000
_cell_length_c 12.38500
_cell_angle_alpha 91.24700
_cell_angle_beta  90.00000
_cell_angle_gamma 90.00000
_space_group_name_H-M_alt      'P 1'


loop_
_space_group_symop_operation_xyz
  'x, y, z' 

loop_
_atom_site_label
_atom_site_fract_x
_atom_site_fract_y
_atom_site_fract_z
_atom_site_type_symbol
H      0.01656  0.27105  0.36619     H
C        0.045    0.412    0.267     C
C        0.085    0.336    0.219     C
O        0.105    0.088     0.24     O
C         0.14    0.274    0.282     C
O         0.16    0.151    0.391     O
O         0.19    0.794    0.075     O
C         0.23    0.337    0.114     C
O        0.235    0.813    0.456     O
O        0.235    0.952    0.554     O
O         0.24    0.949    0.322     O
Eu        0.25   0.0949   0.5515    Eu
Eu        0.25   0.4592   0.6312    Eu
O         0.25    0.561    0.496     O
O         0.25    0.596    0.281     O
Eu        0.25   0.7327   0.2905    Eu
O        0.255    0.171    0.716     O
O        0.255    0.315    0.606     O
H      0.26107  0.39484  0.07575     H
C         0.27    0.138    0.303     C
O         0.28    0.553    0.779     O
O        0.295    0.286     0.87     O
O        0.305    0.457    0.299     O
C         0.33    0.274    0.059     C
C        0.354    0.213    0.241     C
C         0.37    0.205     0.13     C
H      0.41337  0.14642  0.09147     H
C         0.48    0.262    0.959     C
H      0.51656  0.72895  0.63381     H
C        0.545    0.588    0.733     C
C        0.585    0.664    0.781     C
O        0.605    0.912     0.76     O
C         0.64    0.726    0.718     C
O         0.66    0.849    0.609     O
O         0.69    0.206    0.925     O
C         0.73    0.663    0.886     C
O        0.735    0.048    0.446     O
O        0.735    0.187    0.544     O
O         0.74    0.051    0.678     O
Eu        0.75   0.2673   0.7095    Eu
O         0.75    0.404    0.719     O
O         0.75    0.439    0.504     O
Eu        0.75   0.5408   0.3688    Eu
Eu        0.75   0.9051   0.4485    Eu
O        0.755    0.685    0.394     O
O        0.755    0.829    0.284     O
H      0.76107  0.60516  0.92425     H
C         0.77    0.862    0.697     C
O         0.78    0.447    0.221     O
O        0.795    0.714     0.13     O
O        0.805    0.543    0.701     O
C         0.83    0.726    0.941     C
C        0.854    0.787    0.759     C
C         0.87    0.795     0.87     C
H      0.91337  0.85358  0.90853     H
C         0.98    0.738    0.041     C
