data_I
_chemical_name_common  '/home/zhangsd/repos/MofS-CGCNN/ML/data/SSD/clean_cifs/YEKXUJ_clean'
_cell_length_a 16.63070
_cell_length_b 16.63070
_cell_length_c 16.30710
_cell_angle_alpha 90.00000
_cell_angle_beta  90.00000
_cell_angle_gamma 90.00000
_space_group_name_H-M_alt      'P 1'


loop_
_space_group_symop_operation_xyz
  'x, y, z' 

loop_
_atom_site_label
_atom_site_fract_x
_atom_site_fract_y
_atom_site_fract_z
_atom_site_type_symbol
O      0.00696  0.60478   0.8364     O
O      0.00696  0.89522   0.4136     O
O      0.01571  0.60622  0.66603     O
O      0.01571  0.89378  0.58397     O
H       0.0213   0.7014   0.9479     H
H       0.0213   0.7986   0.3021     H
H       0.0558    0.711   0.5603     H
H       0.0558    0.789   0.6897     H
Cu     0.05587  0.05587      0.5    Cu
Cu     0.05587  0.44413     0.75    Cu
C        0.071   0.6854   0.9682     C
C        0.071   0.8146   0.2818     C
C       0.0718   0.5766  0.86231     C
C       0.0718   0.9234  0.38769     C
H       0.0759   0.7311   0.1957     H
H       0.0759   0.7689   0.0543     H
C       0.0766   0.5718  0.63769     C
C       0.0766   0.9282  0.61231     C
C        0.099   0.6839   0.5369     C
C        0.099   0.8161   0.7131     C
C       0.1036   0.7258   0.0314     C
C       0.1036   0.7742   0.2186     C
O      0.10478  0.50696   0.6636     O
O      0.10478  0.99304   0.5864     O
O      0.10622  0.51571  0.83397     O
O      0.10622  0.98429  0.41603     O
C       0.1098   0.6207  0.93261     C
C       0.1098   0.8793  0.31739     C
C       0.1207   0.6098  0.56739     C
C       0.1207   0.8902  0.68261     C
H       0.1251   0.7309   0.7975     H
H       0.1251   0.7691   0.4525     H
C       0.1401   0.7189   0.4723     C
C       0.1401   0.7811   0.7777     C
C       0.1772   0.7046   0.0628     C
C       0.1772   0.7954   0.1872     C
C       0.1839    0.599   0.9631     C
C       0.1839    0.901   0.2869     C
C       0.1854    0.571   0.5318     C
C       0.1854    0.929   0.7182     C
H       0.2014   0.5213   0.5521     H
H       0.2014   0.9787   0.6979     H
C       0.2046   0.6772   0.4372     C
C       0.2046   0.8228   0.8128     C
H        0.211   0.5558   0.9397     H
H        0.211   0.9442   0.3103     H
H       0.2152   0.7499   0.9014     H
H       0.2152   0.7501   0.3486     H
N       0.2176     0.75    0.125     N
C       0.2189   0.6401   0.0277     C
C       0.2189   0.8599   0.2223     C
C       0.2258   0.6036   0.4686     C
C       0.2258   0.8964   0.7814     C
H       0.2309   0.6251   0.7025     H
H       0.2309   0.8749   0.5475     H
H       0.2311   0.5759   0.3043     H
H       0.2311   0.9241   0.9457     H
H       0.2499   0.7152   0.5986     H
H       0.2499   0.7848   0.6514     H
N         0.25   0.7176    0.375     N
N         0.25   0.7824    0.875     N
H       0.2501   0.7152   0.1514     H
H       0.2501   0.7848   0.0986     H
H       0.2689   0.5759   0.4457     H
H       0.2689   0.9241   0.8043     H
H       0.2691   0.6251   0.0475     H
H       0.2691   0.8749   0.2025     H
C       0.2742   0.6036   0.2814     C
C       0.2742   0.8964   0.9686     C
C       0.2811   0.6401   0.7223     C
C       0.2811   0.8599   0.5277     C
N       0.2824     0.75    0.625     N
H       0.2848   0.7499   0.8486     H
H       0.2848   0.7501   0.4014     H
H        0.289   0.5558   0.8103     H
H        0.289   0.9442   0.4397     H
C       0.2954   0.6772   0.3128     C
C       0.2954   0.8228   0.9372     C
H       0.2986   0.5213   0.1979     H
H       0.2986   0.9787   0.0521     H
C       0.3146    0.571   0.2182     C
C       0.3146    0.929   0.0318     C
C       0.3161    0.599   0.7869     C
C       0.3161    0.901   0.4631     C
C       0.3228   0.7046   0.6872     C
C       0.3228   0.7954   0.5628     C
C       0.3599   0.7189   0.2777     C
C       0.3599   0.7811   0.9723     C
H       0.3749   0.7309   0.9525     H
H       0.3749   0.7691   0.2975     H
C       0.3793   0.6098  0.18261     C
C       0.3793   0.8902  0.06739     C
C       0.3902   0.6207  0.81739     C
C       0.3902   0.8793  0.43261     C
O      0.39378  0.51571  0.91603     O
O      0.39378  0.98429  0.33397     O
O      0.39522  0.50696   0.0864     O
O      0.39522  0.99304   0.1636     O
C       0.3964   0.7258   0.7186     C
C       0.3964   0.7742   0.5314     C
C        0.401   0.6839   0.2131     C
C        0.401   0.8161   0.0369     C
C       0.4234   0.5718  0.11231     C
C       0.4234   0.9282  0.13769     C
H       0.4241   0.7311   0.5543     H
H       0.4241   0.7689   0.6957     H
C       0.4282   0.5766  0.88769     C
C       0.4282   0.9234  0.36231     C
C        0.429   0.6854   0.7818     C
C        0.429   0.8146   0.4682     C
Cu     0.44413  0.05587     0.25    Cu
Cu     0.44413  0.44413      0.0    Cu
H       0.4442    0.711   0.1897     H
H       0.4442    0.789   0.0603     H
H       0.4787   0.7014   0.8021     H
H       0.4787   0.7986   0.4479     H
O      0.48429  0.60622  0.08397     O
O      0.48429  0.89378  0.16603     O
O      0.49304  0.60478   0.9136     O
O      0.49304  0.89522   0.3364     O
O      0.50696  0.10478   0.3364     O
O      0.50696  0.39522   0.9136     O
O      0.51571  0.10622  0.16603     O
O      0.51571  0.39378  0.08397     O
H       0.5213   0.2014   0.4479     H
H       0.5213   0.2986   0.8021     H
H       0.5558    0.211   0.0603     H
H       0.5558    0.289   0.1897     H
Cu     0.55587  0.55587      0.0    Cu
Cu     0.55587  0.94413     0.25    Cu
C        0.571   0.1854   0.4682     C
C        0.571   0.3146   0.7818     C
C       0.5718   0.0766  0.36231     C
C       0.5718   0.4234  0.88769     C
H       0.5759   0.2311   0.6957     H
H       0.5759   0.2689   0.5543     H
C       0.5766   0.0718  0.13769     C
C       0.5766   0.4282  0.11231     C
C        0.599   0.1839   0.0369     C
C        0.599   0.3161   0.2131     C
C       0.6036   0.2258   0.5314     C
C       0.6036   0.2742   0.7186     C
O      0.60478  0.00696   0.1636     O
O      0.60478  0.49304   0.0864     O
O      0.60622  0.01571  0.33397     O
O      0.60622  0.48429  0.91603     O
C       0.6098   0.1207  0.43261     C
C       0.6098   0.3793  0.81739     C
C       0.6207   0.1098  0.06739     C
C       0.6207   0.3902  0.18261     C
H       0.6251   0.2309   0.2975     H
H       0.6251   0.2691   0.9525     H
C       0.6401   0.2189   0.9723     C
C       0.6401   0.2811   0.2777     C
C       0.6772   0.2046   0.5628     C
C       0.6772   0.2954   0.6872     C
C       0.6839    0.099   0.4631     C
C       0.6839    0.401   0.7869     C
C       0.6854    0.071   0.0318     C
C       0.6854    0.429   0.2182     C
H       0.7014   0.0213   0.0521     H
H       0.7014   0.4787   0.1979     H
C       0.7046   0.1772   0.9372     C
C       0.7046   0.3228   0.3128     C
H        0.711   0.0558   0.4397     H
H        0.711   0.4442   0.8103     H
H       0.7152   0.2499   0.4014     H
H       0.7152   0.2501   0.8486     H
N       0.7176     0.25    0.625     N
C       0.7189   0.1401   0.5277     C
C       0.7189   0.3599   0.7223     C
C       0.7258   0.1036   0.9686     C
C       0.7258   0.3964   0.2814     C
H       0.7309   0.1251   0.2025     H
H       0.7309   0.3749   0.0475     H
H       0.7311   0.0759   0.8043     H
H       0.7311   0.4241   0.4457     H
H       0.7499   0.2152   0.0986     H
H       0.7499   0.2848   0.1514     H
N         0.75   0.2176    0.875     N
N         0.75   0.2824    0.375     N
H       0.7501   0.2152   0.6514     H
H       0.7501   0.2848   0.5986     H
H       0.7689   0.0759   0.9457     H
H       0.7689   0.4241   0.3043     H
H       0.7691   0.1251   0.5475     H
H       0.7691   0.3749   0.7025     H
C       0.7742   0.1036   0.7814     C
C       0.7742   0.3964   0.4686     C
C       0.7811   0.1401   0.2223     C
C       0.7811   0.3599   0.0277     C
N       0.7824     0.25    0.125     N
H       0.7848   0.2499   0.3486     H
H       0.7848   0.2501   0.9014     H
H        0.789   0.0558   0.3103     H
H        0.789   0.4442   0.9397     H
C       0.7954   0.1772   0.8128     C
C       0.7954   0.3228   0.4372     C
H       0.7986   0.0213   0.6979     H
H       0.7986   0.4787   0.5521     H
C       0.8146    0.071   0.7182     C
C       0.8146    0.429   0.5318     C
C       0.8161    0.099   0.2869     C
C       0.8161    0.401   0.9631     C
C       0.8228   0.2046   0.1872     C
C       0.8228   0.2954   0.0628     C
C       0.8599   0.2189   0.7777     C
C       0.8599   0.2811   0.4723     C
H       0.8749   0.2309   0.4525     H
H       0.8749   0.2691   0.7975     H
C       0.8793   0.1098  0.68261     C
C       0.8793   0.3902  0.56739     C
C       0.8902   0.1207  0.31739     C
C       0.8902   0.3793  0.93261     C
O      0.89378  0.01571  0.41603     O
O      0.89378  0.48429  0.83397     O
O      0.89522  0.00696   0.5864     O
O      0.89522  0.49304   0.6636     O
C       0.8964   0.2258   0.2186     C
C       0.8964   0.2742   0.0314     C
C        0.901   0.1839   0.7131     C
C        0.901   0.3161   0.5369     C
C       0.9234   0.0718  0.61231     C
C       0.9234   0.4282  0.63769     C
H       0.9241   0.2311   0.0543     H
H       0.9241   0.2689   0.1957     H
C       0.9282   0.0766  0.38769     C
C       0.9282   0.4234  0.86231     C
C        0.929   0.1854   0.2818     C
C        0.929   0.3146   0.9682     C
Cu     0.94413  0.55587     0.75    Cu
Cu     0.94413  0.94413      0.5    Cu
H       0.9442    0.211   0.6897     H
H       0.9442    0.289   0.5603     H
H       0.9787   0.2014   0.3021     H
H       0.9787   0.2986   0.9479     H
O      0.98429  0.10622  0.58397     O
O      0.98429  0.39378  0.66603     O
O      0.99304  0.10478   0.4136     O
O      0.99304  0.39522   0.8364     O
