data_I
_chemical_name_common  '/home/zhangsd/repos/MofS-CGCNN/ML/data/SSD/clean_cifs/YEZFIU_clean'
_cell_length_a 13.04780
_cell_length_b 15.06930
_cell_length_c 15.06930
_cell_angle_alpha 67.97260
_cell_angle_beta  73.22480
_cell_angle_gamma 106.77500
_space_group_name_H-M_alt      'P 1'


loop_
_space_group_symop_operation_xyz
  'x, y, z' 

loop_
_atom_site_label
_atom_site_fract_x
_atom_site_fract_y
_atom_site_fract_z
_atom_site_type_symbol
H       0.0091   0.2747   0.4782     H
C       0.0098   0.7745   0.5482     C
H       0.0099   0.0247    0.779     H
C       0.0129   0.2682   0.9676     C
H       0.0148   0.8037   0.9753     H
C       0.0195   0.0324   0.2358     C
O      0.02043  0.90854  0.39175     O
H       0.0286   0.2665   0.9014     H
N       0.0294   0.4501   0.2494     N
Zn     0.03013  0.28551  0.19119    Zn
N       0.0315   0.5023   0.7249     N
N       0.0336   0.6212   0.7733     N
H       0.0562   0.6231   0.0653     H
H       0.0576   0.7572   0.5846     H
H         0.07   0.0986   0.1679     H
C       0.0835   0.8888   0.4534     C
C       0.0838   0.6955   0.0093     C
C        0.084    0.958   0.7006     C
N      0.09285   0.8686  0.72025     N
C       0.0931   0.0093   0.2952     C
H       0.0968   0.9395   0.4789     H
C       0.1046    0.241   0.3728     C
O      0.11189  0.69971  0.90854     O
H       0.1215   0.0653   0.3116     H
C        0.126   0.3414    0.958     C
N       0.1331  0.27082  0.27062     N
C       0.1364   0.6138    0.759     C
N      0.13772  0.54144  0.72918     N
N       0.1412   0.3469   0.0394     N
H       0.1548    0.742   0.0072     H
H       0.1573   0.5816   0.9395     H
H       0.1607   0.8976   0.4097     H
N       0.1613   0.3595   0.5357     N
H        0.162   0.0072   0.2508     H
N       0.1717   0.4228   0.5744     N
N       0.1806   0.0394   0.6137     N
N       0.1869  0.27975  0.58885     N
N       0.1931   0.2267   0.3945     N
C       0.1947   0.6578   0.8888     C
N       0.1982   0.8952   0.6405     N
N       0.2057   0.3863   0.6531     N
H       0.2111    0.221   0.8037     H
C       0.2154   0.2994   0.6586     C
Zn     0.22132  0.19119   0.5233    Zn
N      0.22425  0.41115   0.8686     N
C       0.2353   0.6773   0.7745     C
H       0.2379   0.1679   0.7335     H
N       0.2436   0.2751   0.2272     N
N       0.2511   0.9972   0.5772     N
N       0.2539   0.4256   0.9972     N
C       0.2553   0.2358   0.7318     C
Zn     0.25538   0.4767  0.71449    Zn
H       0.2631   0.6927   0.8976     H
H       0.2656   0.7529   0.7253     H
N       0.2788   0.2494   0.3005     N
H       0.3004   0.6582   0.7572     H
N        0.303   0.4643   0.8952     N
H       0.3578   0.4154   0.3418     H
C       0.3883   0.2952   0.6955     C
N      0.40372  0.27062  0.45856     N
O      0.41218  0.39175  0.69971     O
N       0.4124   0.6055   0.6212     N
H       0.4128   0.2508    0.742     H
N       0.4207   0.6995   0.5499     N
H       0.4243   0.5211   0.4184     H
H       0.4296   0.5903   0.3073     H
H       0.4331   0.3116   0.6231     H
C        0.442   0.4518   0.3227     C
C       0.4631   0.5466   0.3422     C
N       0.4708   0.2272   0.4977     N
C       0.4774   0.3728   0.3862     C
H       0.4873   0.4782   0.2471     H
H       0.5127   0.5218   0.7529     H
C       0.5226   0.6272   0.6138     C
N       0.5292   0.7728   0.5023     N
C       0.5369   0.4534   0.6578     C
C        0.558   0.5482   0.6773     C
H       0.5669   0.6884   0.3769     H
H       0.5704   0.4097   0.6927     H
H       0.5757   0.4789   0.5816     H
N       0.5793   0.3005   0.4501     N
H       0.5872   0.7492    0.258     H
N       0.5876   0.3945   0.3788     N
O      0.58782  0.60825  0.30029     O
N      0.59628  0.72938  0.54144     N
C       0.6117   0.7048   0.3045     C
H       0.6422   0.5846   0.6582     H
N        0.697   0.5357   0.1048     N
H       0.6996   0.3418   0.2428     H
N       0.7212   0.7506   0.6995     N
H       0.7344   0.2471   0.2747     H
H       0.7369   0.3073   0.1024     H
Zn     0.74462   0.5233  0.28551    Zn
C       0.7447   0.7642   0.2682     C
N       0.7461   0.5744   0.0028     N
N       0.7489   0.0028   0.4228     N
N       0.7564   0.7249   0.7728     N
H       0.7621   0.8321   0.2665     H
C       0.7647   0.3227   0.2255     C
N      0.77575  0.58885   0.1314     N
Zn     0.77868  0.80881   0.4767    Zn
C       0.7846   0.7006   0.3414     C
H       0.7889    0.779   0.1963     H
N       0.7943   0.6137   0.3469     N
N       0.8018   0.1048   0.3595     N
C       0.8053   0.3422   0.1112     C
N       0.8069   0.7733   0.6055     N
N       0.8131  0.72025  0.41115     N
N       0.8194   0.9606   0.3863     N
N       0.8283   0.5772   0.4256     N
H        0.838   0.9928   0.7492     H
N       0.8387   0.6405   0.4643     N
H       0.8393   0.1024   0.5903     H
H       0.8427   0.4184   0.0605     H
H       0.8452    0.258   0.9928     H
N       0.8588   0.6531   0.9606     N
N      0.86228  0.45856  0.27082     N
C       0.8636   0.3862    0.241     C
N       0.8669  0.72918  0.72938     N
C        0.874   0.6586    0.042     C
H       0.8785   0.9347   0.6884     H
O      0.88811  0.30029  0.09146     O
C       0.8954    0.759   0.6272     C
H       0.9032   0.0605   0.5211     H
C       0.9069   0.9907   0.7048     C
N      0.90715   0.1314  0.27975     N
C        0.916    0.042   0.2994     C
C       0.9162   0.3045   0.9907     C
C       0.9165   0.1112   0.5466     C
H         0.93   0.9014   0.8321     H
H       0.9424   0.2428   0.4154     H
H       0.9438   0.3769   0.9347     H
N       0.9664   0.3788   0.2267     N
N       0.9685   0.4977   0.2751     N
Zn     0.96987  0.71449  0.80881    Zn
N       0.9706   0.5499   0.7506     N
H       0.9714   0.7335   0.0986     H
O      0.97957  0.09146  0.60825     O
C       0.9805   0.9676   0.7642     C
H       0.9852   0.1963   0.0247     H
C       0.9871   0.7318   0.0324     C
H       0.9901   0.9753    0.221     H
C       0.9902   0.2255   0.4518     C
H       0.9909   0.7253   0.5218     H
