data_I
_chemical_name_common  '/home/zhangsd/repos/MofS-CGCNN/ML/data/SSD/clean_cifs/YICREI_clean'
_cell_length_a  6.79920
_cell_length_b 11.55300
_cell_length_c 17.05800
_cell_angle_alpha 92.49000
_cell_angle_beta  90.00000
_cell_angle_gamma 90.00000
_space_group_name_H-M_alt      'P 1'


loop_
_space_group_symop_operation_xyz
  'x, y, z' 

loop_
_atom_site_label
_atom_site_fract_x
_atom_site_fract_y
_atom_site_fract_z
_atom_site_type_symbol
C       0.0106    0.073    0.067     C
C       0.0194    0.154   0.1385     C
Pb     0.05058  0.65715  0.74307    Pb
O       0.0843   0.5698   0.8738     O
C         0.09   0.9381   0.5583     C
C       0.1109   0.0401   0.4385     C
O       0.1301   0.8356   0.8196     O
O       0.1459   0.1291   0.3161     O
H       0.1501   0.8969   0.5974     H
C       0.1589   0.9908   0.9496     C
H       0.1655   0.4626   0.9945     H
C       0.1676   0.0638   0.0161     C
O       0.1779   0.2095  0.15181     O
C       0.2002   0.9776   0.4969     C
H       0.2193   0.6071   0.5265     H
H       0.2335   0.4845   0.4161     H
C       0.2338   0.0823   0.3726     C
C       0.2662   0.5823   0.8726     C
H       0.2665   0.9845   0.9161     H
H       0.2807   0.1071   0.0265     H
C       0.2998   0.4776   0.9969     C
O       0.3221   0.7095  0.65181     O
C       0.3324   0.5638   0.5161     C
H       0.3345   0.9626   0.4945     H
C       0.3411   0.4908   0.4496     C
H       0.3499   0.3969   0.0974     H
O       0.3541   0.6291   0.8161     O
O       0.3699   0.3356   0.3196     O
C       0.3891   0.5401   0.9385     C
C         0.41   0.4381   0.0583     C
O       0.4157   0.0698   0.3738     O
Pb     0.44942  0.15715  0.24307    Pb
C       0.4806    0.654   0.6385     C
C       0.4894    0.573    0.567     C
C       0.5106    0.427    0.433     C
C       0.5194    0.346   0.3615     C
Pb     0.55058  0.84285  0.75693    Pb
O       0.5843   0.9302   0.6262     O
C         0.59   0.5619   0.9417     C
C       0.6109   0.4599   0.0615     C
O       0.6301   0.6644   0.6804     O
O       0.6459   0.3709   0.1839     O
H       0.6501   0.6031   0.9026     H
C       0.6589   0.5092   0.5504     C
H       0.6655   0.0374   0.5055     H
C       0.6676   0.4362   0.4839     C
O       0.6779   0.2905  0.34819     O
C       0.7002   0.5224   0.0031     C
H       0.7193   0.8929   0.9735     H
H       0.7335   0.0155   0.0839     H
C       0.7338   0.4177   0.1274     C
C       0.7662   0.9177   0.6274     C
H       0.7665   0.5155   0.5839     H
H       0.7807   0.3929   0.4735     H
C       0.7998   0.0224   0.5031     C
O       0.8221   0.7905  0.84819     O
C       0.8324   0.9362   0.9839     C
H       0.8345   0.5374   0.0055     H
C       0.8411   0.0092   0.0504     C
H       0.8499   0.1031   0.4026     H
O       0.8541   0.8709   0.6839     O
O       0.8699   0.1644   0.1804     O
C       0.8891   0.9599   0.5615     C
C         0.91   0.0619   0.4417     C
O       0.9157   0.4302   0.1262     O
Pb     0.94942  0.34285  0.25693    Pb
C       0.9806    0.846   0.8615     C
C       0.9894    0.927    0.933     C
