data_I
_chemical_name_common  '/home/zhangsd/repos/MofS-CGCNN/ML/data/SSD/clean_cifs/YINCEF_clean'
_cell_length_a  9.52370
_cell_length_b 17.67270
_cell_length_c 17.67270
_cell_angle_alpha 103.47200
_cell_angle_beta  103.79900
_cell_angle_gamma 76.20080
_space_group_name_H-M_alt      'P 1'


loop_
_space_group_symop_operation_xyz
  'x, y, z' 

loop_
_atom_site_label
_atom_site_fract_x
_atom_site_fract_y
_atom_site_fract_z
_atom_site_type_symbol
Mn         0.0      0.5      0.0    Mn
C       0.0083  0.65268  0.40732     C
C       0.0091  0.61033  0.52507     C
C       0.0241  0.16426  0.22934     C
C       0.0243  0.90639  0.79521     C
H        0.031   0.9791   0.2145     H
H       0.0563   0.6542   0.3678     H
O       0.0604  0.53155  0.90445     O
H       0.0607   0.6609   0.8713     H
C       0.0616  0.02745  0.23255     C
Mn     0.06422   0.3223  0.81274    Mn
O       0.0643  0.77525  0.80839     O
C        0.066  0.69636  0.77144     C
C       0.0662  0.64327  0.81813     C
H       0.0694   0.7082    0.662     H
C         0.07  0.67195  0.69265     C
C       0.0738  0.50462  0.83398     C
C       0.0747  0.56418  0.78482     C
C       0.0749  0.59251  0.65889     C
C       0.0788  0.53887  0.70533     C
C       0.0813  0.61092  0.46608     C
O       0.0835   0.5637  0.58064     O
H       0.0842   0.4855   0.6829     H
O       0.0883  0.43368   0.8002     O
O       0.0947   0.3646  0.95954     O
H       0.1139   0.9094     0.83     H
C        0.134  0.35027  0.47553     C
C       0.1363  0.30719  0.59421     C
O       0.1547   0.6553  0.22842     O
O       0.1553  0.26195  0.71397     O
C       0.1554  0.17011  0.28169     C
H       0.1752   0.3482   0.1082     H
H       0.1777   0.5835   0.4663     H
H       0.1818   0.3523   0.4361     H
H       0.1881   0.2179   0.2969     H
C       0.1928  0.03139  0.28681     C
H       0.1984   0.5326   0.2802     H
C       0.2059  0.30821  0.53339     C
C       0.2133  0.31373  0.95807     C
C       0.2168  0.26357  0.66003     C
C       0.2378  0.10394  0.31126     C
O       0.2439  0.89362  0.28222     O
O       0.2561  0.28222  0.89362     O
C       0.2622  0.31126  0.10394     C
C       0.2832  0.66003  0.26357     C
C       0.2867  0.95807  0.31373     C
C       0.2941  0.53339  0.30821     C
H       0.3016   0.2802   0.5326     H
C       0.3072  0.28681  0.03139     C
H       0.3119   0.2969   0.2179     H
H       0.3182   0.4361   0.3523     H
H       0.3223   0.4663   0.5835     H
H       0.3248   0.1082   0.3482     H
C       0.3446  0.28169  0.17011     C
O       0.3447  0.71397  0.26195     O
O       0.3453  0.22842   0.6553     O
C       0.3637  0.59421  0.30719     C
C        0.366  0.47553  0.35027     C
H       0.3861     0.83   0.9094     H
O       0.4053  0.95954   0.3646     O
O       0.4117   0.8002  0.43368     O
H       0.4158   0.6829   0.4855     H
O       0.4165  0.58064   0.5637     O
C       0.4187  0.46608  0.61092     C
C       0.4212  0.70533  0.53887     C
C       0.4251  0.65889  0.59251     C
C       0.4253  0.78482  0.56418     C
C       0.4262  0.83398  0.50462     C
C         0.43  0.69265  0.67195     C
H       0.4306    0.662   0.7082     H
C       0.4338  0.81813  0.64327     C
C        0.434  0.77144  0.69636     C
O       0.4357  0.80839  0.77525     O
Mn     0.43578  0.81274   0.3223    Mn
C       0.4384  0.23255  0.02745     C
H       0.4393   0.8713   0.6609     H
O       0.4396  0.90445  0.53155     O
H       0.4437   0.3678   0.6542     H
H        0.469   0.2145   0.9791     H
C       0.4757  0.79521  0.90639     C
C       0.4759  0.22934  0.16426     C
C       0.4909  0.52507  0.61033     C
C       0.4917  0.40732  0.65268     C
Mn         0.5      0.0      0.5    Mn
C       0.5083  0.59268  0.34732     C
C       0.5091  0.47493  0.38967     C
C       0.5241  0.77066  0.83574     C
C       0.5243  0.20479  0.09361     C
H        0.531   0.7855   0.0209     H
H       0.5563   0.6322   0.3458     H
O       0.5604  0.09555  0.46845     O
H       0.5607   0.1287   0.3391     H
C       0.5616  0.76745  0.97255     C
Mn     0.56422  0.18726   0.6777    Mn
O       0.5643  0.19161  0.22475     O
C        0.566  0.22856  0.30364     C
C       0.5662  0.18187  0.35673     C
H       0.5694    0.338   0.2918     H
C         0.57  0.30735  0.32805     C
C       0.5738  0.16602  0.49538     C
C       0.5747  0.21518  0.43582     C
C       0.5749  0.34111  0.40749     C
C       0.5788  0.29467  0.46113     C
C       0.5813  0.53392  0.38908     C
O       0.5835  0.41936   0.4363     O
H       0.5842   0.3171   0.5145     H
O       0.5883   0.1998  0.56632     O
O       0.5947  0.04046   0.6354     O
H       0.6139     0.17   0.0906     H
C        0.634  0.52447  0.64973     C
C       0.6363  0.40579  0.69281     C
O       0.6547  0.77158   0.3447     O
O       0.6553  0.28603  0.73805     O
C       0.6554  0.71831  0.82989     C
H       0.6752   0.8918   0.6518     H
H       0.6777   0.5337   0.4165     H
H       0.6818   0.5639   0.6477     H
H       0.6881   0.7031   0.7821     H
C       0.6928  0.71319  0.96861     C
H       0.6984   0.7198   0.4674     H
C       0.7059  0.46661  0.69179     C
C       0.7133  0.04193  0.68627     C
C       0.7168  0.33997  0.73643     C
C       0.7378  0.68874  0.89606     C
O       0.7439  0.71778  0.10638     O
O       0.7561  0.10638  0.71778     O
C       0.7622  0.89606  0.68874     C
C       0.7832  0.73643  0.33997     C
C       0.7867  0.68627  0.04193     C
C       0.7941  0.69179  0.46661     C
H       0.8016   0.4674   0.7198     H
C       0.8072  0.96861  0.71319     C
H       0.8119   0.7821   0.7031     H
H       0.8182   0.6477   0.5639     H
H       0.8223   0.4165   0.5337     H
H       0.8248   0.6518   0.8918     H
C       0.8446  0.82989  0.71831     C
O       0.8447  0.73805  0.28603     O
O       0.8453   0.3447  0.77158     O
C       0.8637  0.69281  0.40579     C
C        0.866  0.64973  0.52447     C
H       0.8861   0.0906     0.17     H
O       0.9053   0.6354  0.04046     O
O       0.9117  0.56632   0.1998     O
H       0.9158   0.5145   0.3171     H
O       0.9165   0.4363  0.41936     O
C       0.9187  0.38908  0.53392     C
C       0.9212  0.46113  0.29467     C
C       0.9251  0.40749  0.34111     C
C       0.9253  0.43582  0.21518     C
C       0.9262  0.49538  0.16602     C
C         0.93  0.32805  0.30735     C
H       0.9306   0.2918    0.338     H
C       0.9338  0.35673  0.18187     C
C        0.934  0.30364  0.22856     C
O       0.9357  0.22475  0.19161     O
Mn     0.93578   0.6777  0.18726    Mn
C       0.9384  0.97255  0.76745     C
H       0.9393   0.3391   0.1287     H
O       0.9396  0.46845  0.09555     O
H       0.9437   0.3458   0.6322     H
H        0.969   0.0209   0.7855     H
C       0.9757  0.09361  0.20479     C
C       0.9759  0.83574  0.77066     C
C       0.9909  0.38967  0.47493     C
C       0.9917  0.34732  0.59268     C
