data_I
_chemical_name_common  '/home/zhangsd/repos/MofS-CGCNN/ML/data/SSD/clean_cifs/YINCIJ_clean'
_cell_length_a  9.51500
_cell_length_b 17.54660
_cell_length_c 17.54660
_cell_angle_alpha 103.60400
_cell_angle_beta  102.77300
_cell_angle_gamma 77.22660
_space_group_name_H-M_alt      'P 1'


loop_
_space_group_symop_operation_xyz
  'x, y, z' 

loop_
_atom_site_label
_atom_site_fract_x
_atom_site_fract_y
_atom_site_fract_z
_atom_site_type_symbol
Mn         0.0      0.0      0.5    Mn
C       0.0084   0.1576   0.9046     C
C        0.011   0.1107   0.0213     C
C       0.0172   0.6633   0.7325     C
H       0.0181   0.4774   0.7274     H
C       0.0386   0.4074    0.287     C
O       0.0472  0.03184  0.39956     O
C       0.0508   0.5259   0.7419     C
H       0.0557     0.16   0.8644     H
Mn     0.06499  0.82066  0.31296    Mn
H       0.0662   0.1627   0.3689     H
C       0.0675   0.1973   0.2679     C
C       0.0689   0.1447   0.3149     C
O       0.0689  0.27624  0.30576     O
C       0.0698   0.0045   0.3301     C
C       0.0728   0.1736   0.1894     C
H       0.0735     0.21   0.1586     H
C       0.0746   0.0637   0.2809     C
C        0.077   0.0934   0.1558     C
C       0.0786   0.0385   0.2013     C
H       0.0823   0.9848    0.178     H
C       0.0824    0.115   0.9628     C
O       0.0844  0.06368  0.07632     O
O       0.0921  0.93215  0.29745     O
O       0.1036  0.86345  0.45895     O
H       0.1309   0.4104   0.3178     H
C       0.1332   0.8523   0.9777     C
C       0.1359    0.803   0.0952     C
C         0.15    0.669   0.7808     C
O       0.1539   0.1518   0.7256     O
O       0.1586  0.75613  0.21447     O
H       0.1769    0.845    0.606     H
H       0.1792   0.0898   0.9624     H
H       0.1806   0.8567   0.9383     H
C       0.1838   0.5304   0.7906     C
H       0.1849   0.7168   0.7936     H
H        0.197   0.0345   0.7835     H
C       0.2065   0.8089   0.0355     C
C       0.2186   0.7592   0.1584     C
C       0.2225   0.8137   0.4569     C
C       0.2337    0.602    0.811     C
O       0.2377  0.39171  0.78109     O
O       0.2623  0.78109  0.39171     O
C       0.2663    0.811    0.602     C
C       0.2775   0.4569   0.8137     C
C       0.2814   0.1584   0.7592     C
C       0.2935   0.0355   0.8089     C
H        0.303   0.7835   0.0345     H
H       0.3151   0.7936   0.7168     H
C       0.3162   0.7906   0.5304     C
H       0.3194   0.9383   0.8567     H
H       0.3208   0.9624   0.0898     H
H       0.3231    0.606    0.845     H
O       0.3414  0.21447  0.75613     O
O       0.3461   0.7256   0.1518     O
C         0.35   0.7808    0.669     C
C       0.3641   0.0952    0.803     C
C       0.3668   0.9777   0.8523     C
H       0.3691   0.3178   0.4104     H
O       0.3964  0.45895  0.86345     O
O       0.4079  0.29745  0.93215     O
O       0.4156  0.07632  0.06368     O
C       0.4176   0.9628    0.115     C
H       0.4177    0.178   0.9848     H
C       0.4214   0.2013   0.0385     C
C        0.423   0.1558   0.0934     C
C       0.4254   0.2809   0.0637     C
H       0.4265   0.1586     0.21     H
C       0.4272   0.1894   0.1736     C
C       0.4302   0.3301   0.0045     C
O       0.4311  0.30576  0.27624     O
C       0.4311   0.3149   0.1447     C
C       0.4325   0.2679   0.1973     C
H       0.4338   0.3689   0.1627     H
Mn     0.43501  0.31296  0.82066    Mn
H       0.4443   0.8644     0.16     H
C       0.4492   0.7419   0.5259     C
O       0.4528  0.39956  0.03184     O
C       0.4614    0.287   0.4074     C
H       0.4819   0.7274   0.4774     H
C       0.4828   0.7325   0.6633     C
C        0.489   0.0213   0.1107     C
C       0.4916   0.9046   0.1576     C
Mn         0.5      0.5      0.0    Mn
C       0.5084   0.0954   0.8424     C
C        0.511   0.9787   0.8893     C
C       0.5172   0.2675   0.3367     C
H       0.5181   0.2726   0.5226     H
C       0.5386    0.713   0.5926     C
O       0.5472  0.60044  0.96816     O
C       0.5508   0.2581   0.4741     C
H       0.5557   0.1356     0.84     H
Mn     0.56499  0.68704  0.17934    Mn
H       0.5662   0.6311   0.8373     H
C       0.5675   0.7321   0.8027     C
C       0.5689   0.6851   0.8553     C
O       0.5689  0.69424  0.72376     O
C       0.5698   0.6699   0.9955     C
C       0.5728   0.8106   0.8264     C
H       0.5735   0.8414     0.79     H
C       0.5746   0.7191   0.9363     C
C        0.577   0.8442   0.9066     C
C       0.5786   0.7987   0.9615     C
H       0.5823    0.822   0.0152     H
C       0.5824   0.0372    0.885     C
O       0.5844  0.92368  0.93632     O
O       0.5921  0.70255  0.06785     O
O       0.6036  0.54105  0.13655     O
H       0.6309   0.6822   0.5896     H
C       0.6332   0.0223   0.1477     C
C       0.6359   0.9048    0.197     C
C         0.65   0.2192    0.331     C
O       0.6539   0.2744   0.8482     O
O       0.6586  0.78553  0.24387     O
H       0.6769    0.394    0.155     H
H       0.6792   0.0376   0.9102     H
H       0.6806   0.0617   0.1433     H
C       0.6838   0.2094   0.4696     C
H       0.6849   0.2064   0.2832     H
H        0.697   0.2165   0.9655     H
C       0.7065   0.9645   0.1911     C
C       0.7186   0.8416   0.2408     C
C       0.7225   0.5431   0.1863     C
C       0.7337    0.189    0.398     C
O       0.7377  0.21891  0.60829     O
O       0.7623  0.60829  0.21891     O
C       0.7663    0.398    0.189     C
C       0.7775   0.1863   0.5431     C
C       0.7814   0.2408   0.8416     C
C       0.7935   0.1911   0.9645     C
H        0.803   0.9655   0.2165     H
H       0.8151   0.2832   0.2064     H
C       0.8162   0.4696   0.2094     C
H       0.8194   0.1433   0.0617     H
H       0.8208   0.9102   0.0376     H
H       0.8231    0.155    0.394     H
O       0.8414  0.24387  0.78553     O
O       0.8461   0.8482   0.2744     O
C         0.85    0.331   0.2192     C
C       0.8641    0.197   0.9048     C
C       0.8668   0.1477   0.0223     C
H       0.8691   0.5896   0.6822     H
O       0.8964  0.13655  0.54105     O
O       0.9079  0.06785  0.70255     O
O       0.9156  0.93632  0.92368     O
C       0.9176    0.885   0.0372     C
H       0.9177   0.0152    0.822     H
C       0.9214   0.9615   0.7987     C
C        0.923   0.9066   0.8442     C
C       0.9254   0.9363   0.7191     C
H       0.9265     0.79   0.8414     H
C       0.9272   0.8264   0.8106     C
C       0.9302   0.9955   0.6699     C
O       0.9311  0.72376  0.69424     O
C       0.9311   0.8553   0.6851     C
C       0.9325   0.8027   0.7321     C
H       0.9338   0.8373   0.6311     H
Mn     0.93501  0.17934  0.68704    Mn
H       0.9443     0.84   0.1356     H
C       0.9492   0.4741   0.2581     C
O       0.9528  0.96816  0.60044     O
C       0.9614   0.5926    0.713     C
H       0.9819   0.5226   0.2726     H
C       0.9828   0.3367   0.2675     C
C        0.989   0.8893   0.9787     C
C       0.9916   0.8424   0.0954     C
