data_I
_chemical_name_common  '/home/zhangsd/repos/MofS-CGCNN/ML/data/SSD/clean_cifs/YINDOQ_clean'
_cell_length_a 12.54970
_cell_length_b 17.74720
_cell_length_c 21.78300
_cell_angle_alpha 90.00000
_cell_angle_beta  90.00000
_cell_angle_gamma 97.50700
_space_group_name_H-M_alt      'P 1'


loop_
_space_group_symop_operation_xyz
  'x, y, z' 

loop_
_atom_site_label
_atom_site_fract_x
_atom_site_fract_y
_atom_site_fract_z
_atom_site_type_symbol
C       0.0082   0.0463   0.8395     C
C       0.0082   0.5463   0.6605     C
H       0.0093   0.2585    0.577     H
O       0.0093    0.374    0.114     O
H       0.0093   0.7585    0.923     H
O       0.0093    0.874    0.386     O
O       0.0262   0.4183   0.4434     O
O       0.0262   0.9183   0.0566     O
H       0.0306   0.1187   0.0642     H
H       0.0306   0.6187   0.4358     H
C       0.0324   0.3408   0.4388     C
C       0.0324   0.8408   0.0612     C
O       0.0349   0.0607   0.4048     O
O       0.0349   0.5607   0.0952     O
C       0.0366   0.2867   0.9153     C
C       0.0366   0.7867   0.5847     C
C       0.0382   0.0122   0.7318     C
C       0.0382   0.5122   0.7682     C
C       0.0387   0.0506   0.8999     C
C       0.0387   0.5506   0.6001     C
C       0.0484   0.2106    0.914     C
C       0.0484   0.7106    0.586     C
C       0.0522   0.1878   0.4431     C
C       0.0522   0.6878   0.0569     C
H       0.0554   0.4367    0.327     H
H       0.0554   0.9367    0.173     H
C        0.057   0.1044   0.4503     C
C        0.057   0.6044   0.0497     C
C       0.0597   0.2305   0.0853     C
C       0.0597   0.7305   0.4147     C
O       0.0601   0.4873  0.22172     O
O       0.0601   0.9873  0.27828     O
C       0.0734   0.0162   0.7974     C
C       0.0734   0.5162   0.7026     C
C        0.083   0.1569    0.078     C
C        0.083   0.6569    0.422     C
H       0.0889   0.3217   0.8972     H
H       0.0889   0.8217   0.6028     H
O       0.0891   0.0817    0.501     O
O       0.0891   0.5817    0.999     O
Mn     0.09004  0.03984  0.59418    Mn
Mn     0.09004  0.53984  0.90582    Mn
C        0.107   0.3678   0.1111     C
C        0.107   0.8678   0.3889     C
O       0.1083   0.0092   0.6909     O
O       0.1083   0.5092   0.8091     O
H       0.1092   0.1942   0.8969     H
H       0.1092   0.6942   0.6031     H
C       0.1243    0.318   0.4639     C
C       0.1243    0.818   0.0361     C
C       0.1303   0.0225   0.9205     C
C       0.1303   0.5225   0.5795     C
C       0.1337   0.2413   0.4669     C
C       0.1337   0.7413   0.0331     C
C       0.1384   0.2884    0.105     C
C       0.1384   0.7884    0.395     C
H       0.1448   0.3495   0.6408     H
H       0.1448   0.8495   0.8592     H
H       0.1498   0.0251   0.9617     H
H       0.1498   0.5251   0.5383     H
H       0.1651   0.2223   0.6402     H
H       0.1651   0.7223   0.8598     H
C       0.1672   0.4897   0.6843     C
C       0.1672   0.9897   0.8157     C
Mn     0.17232  0.03271  0.34599    Mn
Mn     0.17232  0.53271  0.15401    Mn
H       0.1791   0.3538   0.4785     H
H       0.1791   0.8538   0.0215     H
O       0.1826   0.4225   0.1127     O
O       0.1826   0.9225   0.3873     O
O        0.183   0.4592   0.9592     O
O        0.183   0.9592   0.5408     O
C       0.1851   0.1409   0.0916     C
C       0.1851   0.6409   0.4084     C
C       0.1915   0.4905   0.6226     C
C       0.1915   0.9905   0.8774     C
H       0.1942   0.2253   0.4848     H
H       0.1942   0.7253   0.0152     H
O       0.2021    0.067   0.0771     O
O       0.2021    0.567   0.4229     O
C       0.2079   0.3338   0.6261     C
C       0.2079   0.8338   0.8739     C
H       0.2128   0.4718   0.7129     H
H       0.2128   0.9718   0.7871     H
H       0.2131   0.4335   0.9351     H
H       0.2131   0.9335   0.5649     H
C       0.2208   0.2577   0.6259     C
C       0.2208   0.7577   0.8741     C
C       0.2395   0.2698   0.1188     C
C       0.2395   0.7698   0.3812     C
O        0.241    0.103   0.6126     O
O        0.241    0.603   0.8874     O
H       0.2413   0.0551   0.1939     H
H       0.2413   0.5551   0.3061     H
C       0.2633   0.1958   0.1115     C
C       0.2633   0.6958   0.3885     C
O       0.2792   0.0775    0.424     O
O       0.2792   0.5775    0.076     O
C       0.2836   0.0347   0.1064     C
C       0.2836   0.5347   0.3936     C
O       0.2856   0.4636   0.6006     O
O       0.2856   0.9636   0.8994     O
C       0.2887   0.0321   0.1697     C
C       0.2887   0.5321   0.3303     C
C       0.2897    0.386   0.6045     C
C       0.2897    0.886   0.8955     C
H       0.2924   0.3073   0.1331     H
H       0.2924   0.8073   0.3669     H
O       0.3138   0.0216   0.2971     O
O       0.3138   0.5216   0.2029     O
C       0.3145   0.2324    0.605     C
C       0.3145   0.7324    0.895     C
H        0.319   0.2567   0.9728     H
H        0.319   0.7567   0.5272     H
C       0.3244   0.1494   0.6063     C
C       0.3244   0.6494   0.8937     C
H       0.3318   0.1842   0.1201     H
H       0.3318   0.6842   0.3799     H
H        0.339   0.1299   0.9744     H
H        0.339   0.6299   0.5256     H
H       0.3423   0.0782   0.4139     H
H       0.3423   0.5782   0.0861     H
H       0.3466   0.0016    0.027     H
H       0.3466   0.5016    0.473     H
C       0.3528   0.0001   0.0695     C
C       0.3528   0.5001   0.4305     C
O       0.3641   0.3979   0.9524     O
O       0.3641   0.8979   0.5476     O
C       0.3679   0.4934   0.3038     C
C       0.3679   0.9934   0.1962     C
H       0.3738   0.3215   0.3937     H
H       0.3738   0.8215   0.1063     H
C       0.3764    0.489   0.2341     C
C       0.3764    0.989   0.2659     C
C       0.3796   0.2407   0.9551     C
C       0.3796   0.7407   0.5449     C
C       0.3831    0.362    0.583     C
C       0.3831    0.862    0.917     C
C       0.3924   0.1651   0.9576     C
C       0.3924   0.6651   0.5424     C
C       0.3965   0.2861   0.5836     C
C       0.3965   0.7861   0.9164     C
H        0.404   0.1969    0.385     H
H        0.404   0.6969    0.115     H
O       0.4166   0.1299   0.6022     O
O       0.4166   0.6299   0.8978     O
C       0.4301   0.4637   0.4037     C
C       0.4301   0.9637   0.0963     C
C       0.4372   0.3064   0.4085     C
C       0.4372   0.8064   0.0915     C
C       0.4377   0.3744    0.924     C
C       0.4377   0.8744    0.576     C
H       0.4378   0.3976   0.5678     H
H       0.4378   0.8976   0.9322     H
C       0.4409    0.462   0.3404     C
C       0.4409    0.962   0.1596     C
O       0.4488   0.4531   0.2131     O
O       0.4488   0.9531   0.2869     O
C       0.4534   0.2929   0.9273     C
C       0.4534   0.7929   0.5727     C
C       0.4552   0.2317   0.4042     C
C       0.4552   0.7317   0.0958     C
H       0.4604   0.2709   0.5697     H
H       0.4604   0.7709   0.9303     H
Mn     0.47253  0.02939  0.62938    Mn
Mn     0.47253  0.52939  0.87062    Mn
C       0.4857   0.1421   0.9349     C
C       0.4857   0.6421   0.5651     C
H       0.4968     0.44   0.3226     H
H       0.4968     0.94   0.1774     H
O       0.4979   0.0823   0.3916     O
O       0.4979   0.5823   0.1084     O
O       0.4983   0.0661  0.94161     O
O       0.4983   0.5661  0.55839     O
O       0.5017   0.4339  0.44161     O
O       0.5017   0.9339  0.05839     O
O       0.5021   0.4177   0.8916     O
O       0.5021   0.9177   0.6084     O
H       0.5032     0.06   0.8226     H
H       0.5032     0.56   0.6774     H
C       0.5143   0.3579   0.4349     C
C       0.5143   0.8579   0.0651     C
Mn     0.52747  0.47061  0.12938    Mn
Mn     0.52747  0.97061  0.37062    Mn
H       0.5396   0.2291   0.0697     H
H       0.5396   0.7291   0.4303     H
C       0.5448   0.2683   0.9042     C
C       0.5448   0.7683   0.5958     C
C       0.5466   0.2071   0.4273     C
C       0.5466   0.7071   0.0727     C
O       0.5512   0.0469   0.7131     O
O       0.5512   0.5469   0.7869     O
C       0.5591    0.038   0.8404     C
C       0.5591    0.538   0.6596     C
H       0.5622   0.1024   0.0678     H
H       0.5622   0.6024   0.4322     H
C       0.5623   0.1256    0.424     C
C       0.5623   0.6256    0.076     C
C       0.5628   0.1936   0.9085     C
C       0.5628   0.6936   0.5915     C
C       0.5699   0.0363   0.9037     C
C       0.5699   0.5363   0.5963     C
O       0.5834   0.3701   0.1022     O
O       0.5834   0.8701   0.3978     O
H        0.596   0.3031    0.885     H
H        0.596   0.8031    0.615     H
C       0.6035   0.2139   0.0836     C
C       0.6035   0.7139   0.4164     C
C       0.6076   0.3349   0.4576     C
C       0.6076   0.8349   0.0424     C
C       0.6169    0.138    0.083     C
C       0.6169    0.638    0.417     C
C       0.6204   0.2593   0.4551     C
C       0.6204   0.7593   0.0449     C
C       0.6236    0.011   0.7341     C
C       0.6236    0.511   0.7659     C
H       0.6262   0.1785   0.8937     H
H       0.6262   0.6785   0.6063     H
C       0.6321   0.0066   0.8038     C
C       0.6321   0.5066   0.6962     C
O       0.6359   0.1021   0.4524     O
O       0.6359   0.6021   0.0476     O
C       0.6472   0.4999   0.5695     C
C       0.6472   0.9999   0.9305     C
H       0.6534   0.4984    0.527     H
H       0.6534   0.9984    0.973     H
H       0.6577   0.4218   0.9139     H
H       0.6577   0.9218   0.5861     H
H        0.661   0.3701   0.4744     H
H        0.661   0.8701   0.0256     H
H       0.6682   0.3158   0.6201     H
H       0.6682   0.8158   0.8799     H
C       0.6756   0.3506   0.1063     C
C       0.6756   0.8506   0.3937     C
H        0.681   0.2433   0.4728     H
H        0.681   0.7433   0.0272     H
C       0.6855   0.2676    0.105     C
C       0.6855   0.7676    0.395     C
O       0.6862   0.4784   0.7971     O
O       0.6862   0.9784   0.7029     O
H       0.7076   0.1927   0.6331     H
H       0.7076   0.6927   0.8669     H
C       0.7103    0.114   0.1045     C
C       0.7103    0.614   0.3955     C
C       0.7113   0.4679   0.6697     C
C       0.7113   0.9679   0.8303     C
O       0.7144   0.0364   0.1006     O
O       0.7144   0.5364   0.3994     O
C       0.7164   0.4653   0.6064     C
C       0.7164   0.9653   0.8936     C
O       0.7208   0.4225    0.924     O
O       0.7208   0.9225    0.576     O
C       0.7367   0.3042   0.6115     C
C       0.7367   0.8042   0.8885     C
H       0.7587   0.4449   0.6939     H
H       0.7587   0.9449   0.8061     H
O        0.759    0.397   0.1126     O
O        0.759    0.897   0.3874     O
C       0.7605   0.2302   0.6188     C
C       0.7605   0.7302   0.8812     C
C       0.7792   0.2423   0.1259     C
C       0.7792   0.7423   0.3741     C
H       0.7869   0.0665   0.4351     H
H       0.7869   0.5665   0.0649     H
H       0.7872   0.0282   0.2129     H
H       0.7872   0.5282   0.2871     H
C       0.7921   0.1662   0.1261     C
C       0.7921   0.6662   0.3739     C
O       0.7979    0.433   0.5771     O
O       0.7979    0.933   0.9229     O
H       0.8058   0.2747   0.9848     H
H       0.8058   0.7747   0.5152     H
C       0.8085   0.0095   0.1226     C
C       0.8085   0.5095   0.3774     C
C       0.8149   0.3591   0.5916     C
C       0.8149   0.8591   0.9084     C
O        0.817   0.0408   0.4592     O
O        0.817   0.5408   0.0408     O
O       0.8174   0.0775   0.6127     O
O       0.8174   0.5775   0.8873     O
H       0.8209   0.1462   0.9785     H
H       0.8209   0.6462   0.5215     H
Mn     0.82768  0.46729  0.84599    Mn
Mn     0.82768  0.96729  0.65401    Mn
C       0.8328   0.0103   0.1843     C
C       0.8328   0.5103   0.3157     C
H       0.8349   0.2777   0.1402     H
H       0.8349   0.7777   0.3598     H
H       0.8502   0.4749   0.4617     H
H       0.8502   0.9749   0.0383     H
H       0.8552   0.1505   0.1408     H
H       0.8552   0.6505   0.3592     H
C       0.8616   0.2116    0.605     C
C       0.8616   0.7116    0.895     C
C       0.8663   0.2587   0.9669     C
C       0.8663   0.7587   0.5331     C
C       0.8697   0.4775   0.4205     C
C       0.8697   0.9775   0.0795     C
C       0.8757    0.182   0.9639     C
C       0.8757    0.682   0.5361     C
H       0.8908   0.3058   0.3969     H
H       0.8908   0.8058   0.1031     H
O       0.8917   0.4908   0.1909     O
O       0.8917   0.9908   0.3091     O
C        0.893   0.1322   0.6111     C
C        0.893   0.6322   0.8889     C
Mn     0.90996  0.46016  0.09418    Mn
Mn     0.90996  0.96016  0.40582    Mn
O       0.9109   0.4183    0.001     O
O       0.9109   0.9183    0.499     O
H       0.9111   0.1783   0.3972     H
H       0.9111   0.6783   0.1028     H
C        0.917   0.3431    0.578     C
C        0.917   0.8431    0.922     C
C       0.9266   0.4838   0.2974     C
C       0.9266   0.9838   0.2026     C
O       0.9399   0.0127  0.72172     O
O       0.9399   0.5127  0.77828     O
C       0.9403   0.2695   0.5853     C
C       0.9403   0.7695   0.9147     C
C        0.943   0.3956   0.9503     C
C        0.943   0.8956   0.5497     C
H       0.9446   0.0633    0.827     H
H       0.9446   0.5633    0.673     H
C       0.9478   0.3122   0.9431     C
C       0.9478   0.8122   0.5569     C
C       0.9516   0.2894    0.414     C
C       0.9516   0.7894    0.086     C
C       0.9613   0.4494   0.3999     C
C       0.9613   0.9494   0.1001     C
C       0.9618   0.4878   0.2318     C
C       0.9618   0.9878   0.2682     C
C       0.9634   0.2133   0.4153     C
C       0.9634   0.7133   0.0847     C
O       0.9651   0.4393   0.9048     O
O       0.9651   0.9393   0.5952     O
C       0.9676   0.1592   0.9388     C
C       0.9676   0.6592   0.5612     C
H       0.9694   0.3813   0.5642     H
H       0.9694   0.8813   0.9358     H
O       0.9738   0.0817   0.9434     O
O       0.9738   0.5817   0.5566     O
O       0.9907    0.126    0.614     O
H       0.9907   0.2415    0.077     H
O       0.9907    0.626    0.886     O
H       0.9907   0.7415    0.423     H
C       0.9918   0.4537   0.3395     C
C       0.9918   0.9537   0.1605     C
