data_I
_chemical_name_common  '/home/zhangsd/repos/MofS-CGCNN/ML/data/SSD/clean_cifs/YIRHOY_clean'
_cell_length_a 13.41540
_cell_length_b 13.41540
_cell_length_c 13.41540
_cell_angle_alpha 90.00000
_cell_angle_beta  90.00000
_cell_angle_gamma 90.00000
_space_group_name_H-M_alt      'P 1'


loop_
_space_group_symop_operation_xyz
  'x, y, z' 

loop_
_atom_site_label
_atom_site_fract_x
_atom_site_fract_y
_atom_site_fract_z
_atom_site_type_symbol
O          0.0     0.25   0.3932     O
O          0.0     0.75   0.1068     O
O       0.0065    0.097   0.8743     O
O       0.0065    0.903   0.6257     O
O       0.0284   0.3866   0.6919     O
O       0.0284   0.6134   0.8081     O
Er     0.03164  0.46836  0.53164    Er
Er     0.03164  0.53164  0.96836    Er
P        0.052   0.1045   0.7714     P
P        0.052   0.8955   0.7286     P
O        0.097   0.1257   0.4935     O
O        0.097   0.8743   0.0065     O
P       0.1045   0.2286    0.448     P
P       0.1045   0.7714    0.052     P
O       0.1068      0.0     0.75     O
O       0.1134   0.3081   0.5284     O
O       0.1134   0.6919   0.9716     O
O       0.1257   0.4935    0.097     O
O       0.1257   0.5065    0.403     O
O         0.13   0.1817   0.7626     O
O         0.13   0.8183   0.7374     O
O       0.1817   0.2374     0.37     O
O       0.1817   0.7626     0.13     O
Er     0.18513  0.31487  0.68513    Er
Er     0.18513  0.68513  0.81487    Er
O       0.1919   0.4716   0.6134     O
O       0.1919   0.5284   0.8866     O
P       0.2286    0.448   0.1045     P
P       0.2286    0.552   0.3955     P
O       0.2374     0.37   0.1817     O
O       0.2374     0.63   0.3183     O
O         0.25   0.3932      0.0     O
O         0.25   0.6068      0.5     O
O       0.2626     0.37   0.8183     O
O       0.2626     0.63   0.6817     O
P       0.2714    0.448   0.8955     P
P       0.2714    0.552   0.6045     P
O       0.3081   0.4716   0.3866     O
O       0.3081   0.5284   0.1134     O
Er     0.31487  0.31487  0.31487    Er
Er     0.31487  0.68513  0.18513    Er
O       0.3183   0.2374     0.63     O
O       0.3183   0.7626     0.87     O
O         0.37   0.1817   0.2374     O
O         0.37   0.8183   0.2626     O
O       0.3743   0.4935    0.903     O
O       0.3743   0.5065    0.597     O
O       0.3866   0.3081   0.4716     O
O       0.3866   0.6919   0.0284     O
O       0.3932      0.0     0.25     O
P       0.3955   0.2286    0.552     P
P       0.3955   0.7714    0.948     P
O        0.403   0.1257   0.5065     O
O        0.403   0.8743   0.9935     O
P        0.448   0.1045   0.2286     P
P        0.448   0.8955   0.2714     P
Er     0.46836  0.46836  0.46836    Er
Er     0.46836  0.53164  0.03164    Er
O       0.4716   0.3866   0.3081     O
O       0.4716   0.6134   0.1919     O
O       0.4935    0.097   0.1257     O
O       0.4935    0.903   0.3743     O
O          0.5     0.25   0.6068     O
O          0.5     0.75   0.8932     O
O       0.5065    0.403   0.1257     O
O       0.5065    0.597   0.3743     O
O       0.5284   0.1134   0.3081     O
O       0.5284   0.8866   0.1919     O
Er     0.53164  0.03164  0.46836    Er
Er     0.53164  0.96836  0.03164    Er
P        0.552   0.3955   0.2286     P
P        0.552   0.6045   0.2714     P
O        0.597   0.3743   0.5065     O
O        0.597   0.6257   0.9935     O
P       0.6045   0.2714    0.552     P
P       0.6045   0.7286    0.948     P
O       0.6068      0.5     0.25     O
O       0.6134   0.1919   0.4716     O
O       0.6134   0.8081   0.0284     O
O       0.6257   0.0065    0.903     O
O       0.6257   0.9935    0.597     O
O         0.63   0.3183   0.2374     O
O         0.63   0.6817   0.2626     O
O       0.6817   0.2626     0.63     O
O       0.6817   0.7374     0.87     O
Er     0.68513  0.18513  0.31487    Er
Er     0.68513  0.81487  0.18513    Er
O       0.6919   0.0284   0.3866     O
O       0.6919   0.9716   0.1134     O
P       0.7286    0.052   0.8955     P
P       0.7286    0.948   0.6045     P
O       0.7374     0.13   0.8183     O
O       0.7374     0.87   0.6817     O
O         0.75   0.1068      0.0     O
O         0.75   0.8932      0.5     O
O       0.7626     0.13   0.1817     O
O       0.7626     0.87   0.3183     O
P       0.7714    0.052   0.1045     P
P       0.7714    0.948   0.3955     P
O       0.8081   0.0284   0.6134     O
O       0.8081   0.9716   0.8866     O
Er     0.81487  0.18513  0.68513    Er
Er     0.81487  0.81487  0.81487    Er
O       0.8183   0.2626     0.37     O
O       0.8183   0.7374     0.13     O
O         0.87   0.3183   0.7626     O
O         0.87   0.6817   0.7374     O
O       0.8743   0.0065    0.097     O
O       0.8743   0.9935    0.403     O
O       0.8866   0.1919   0.5284     O
O       0.8866   0.8081   0.9716     O
O       0.8932      0.5     0.75     O
P       0.8955   0.2714    0.448     P
P       0.8955   0.7286    0.052     P
O        0.903   0.3743   0.4935     O
O        0.903   0.6257   0.0065     O
P        0.948   0.3955   0.7714     P
P        0.948   0.6045   0.7286     P
Er     0.96836  0.03164  0.53164    Er
Er     0.96836  0.96836  0.96836    Er
O       0.9716   0.1134   0.6919     O
O       0.9716   0.8866   0.8081     O
O       0.9935    0.403   0.8743     O
O       0.9935    0.597   0.6257     O
