data_I
_chemical_name_common  '/home/zhangsd/repos/MofS-CGCNN/ML/data/SSD/clean_cifs/YIZGEV_clean'
_cell_length_a 18.71190
_cell_length_b 18.71190
_cell_length_c  9.39910
_cell_angle_alpha 90.00000
_cell_angle_beta  90.00000
_cell_angle_gamma 90.00000
_space_group_name_H-M_alt      'P 1'


loop_
_space_group_symop_operation_xyz
  'x, y, z' 

loop_
_atom_site_label
_atom_site_fract_x
_atom_site_fract_y
_atom_site_fract_z
_atom_site_type_symbol
O      0.00071  0.34132  0.49261     O
O      0.00176  0.85918  0.22132     O
O      0.00461  0.01487  0.17445     O
O      0.00651  0.62645   0.2064     O
O      0.01487  0.49539  0.17445     O
O      0.01982  0.15932  0.51118     O
Al     0.04488   0.3354  0.66142    Al
Si     0.05072  0.16759  0.65958    Si
P      0.05259   0.5617  0.16585     P
O      0.05779  0.63462  0.74275     O
Al     0.05814  0.93016  0.15934    Al
P       0.0617  0.94741  0.83415     P
O      0.06204  0.24758  0.69365     O
Si     0.06507  0.66733  0.59263    Si
Al     0.06625  0.83449   0.5917    Al
O      0.06803  0.88203  0.74783     O
Al     0.06984  0.55814  0.84066    Al
O      0.07864   0.5798  0.00746     O
O      0.07963  0.74802  0.62086     O
O       0.0798  0.92136  0.99254     O
O      0.11797  0.56803  0.25217     O
O      0.11837  0.12997  0.65408     O
O      0.12645  0.99349   0.7936     O
O      0.12997  0.38163  0.65408     O
O      0.13049  0.63561  0.52128     O
O      0.13462  0.94221  0.25725     O
O      0.13561  0.86951  0.47872     O
O      0.14082  0.50176  0.77868     O
O      0.15868  0.00071  0.49261     O
O      0.15932  0.48018  0.51118     O
Al      0.1646  0.04488  0.66142    Al
Al     0.16551  0.56625   0.4083    Al
Si     0.16733  0.93493  0.40737    Si
Si     0.16759  0.44928  0.65958    Si
O      0.24758  0.43796  0.69365     O
O      0.24802  0.92037  0.37914     O
O      0.25198  0.57963  0.37914     O
O      0.25242  0.06204  0.69365     O
Si     0.33241  0.05072  0.65958    Si
Si     0.33267  0.56507  0.40737    Si
Al     0.33449  0.93375   0.4083    Al
Al      0.3354  0.45512  0.66142    Al
O      0.34068  0.01982  0.51118     O
O      0.34132  0.49929  0.49261     O
O      0.35918  0.99824  0.77868     O
O      0.36439  0.63049  0.47872     O
O      0.36538  0.55779  0.25725     O
O      0.36951  0.86439  0.52128     O
O      0.37003  0.11837  0.65408     O
O      0.37355  0.50651   0.7936     O
O      0.38163  0.37003  0.65408     O
O      0.38203  0.93197  0.25217     O
O       0.4202  0.57864  0.99254     O
O      0.42037  0.75198  0.62086     O
O      0.42136   0.9202  0.00746     O
Al     0.43016  0.94186  0.84066    Al
O      0.43197  0.61797  0.74783     O
Al     0.43375  0.66551   0.5917    Al
Si     0.43493  0.83267  0.59263    Si
O      0.43796  0.25242  0.69365     O
P       0.4383  0.55259  0.83415     P
Al     0.44186  0.56984  0.15934    Al
O      0.44221  0.86538  0.74275     O
P      0.44741   0.9383  0.16585     P
Si     0.44928  0.33241  0.65958    Si
Al     0.45512   0.1646  0.66142    Al
O      0.48018  0.34068  0.51118     O
O      0.48513  0.00461  0.17445     O
O      0.49349  0.87355   0.2064     O
O      0.49539  0.48513  0.17445     O
O      0.49824  0.64082  0.22132     O
O      0.49929  0.15868  0.49261     O
O      0.50071  0.84132  0.50739     O
O      0.50176  0.35918  0.77868     O
O      0.50461  0.51487  0.82555     O
O      0.50651  0.12645   0.7936     O
O      0.51487  0.99539  0.82555     O
O      0.51982  0.65932  0.48882     O
Al     0.54488   0.8354  0.33858    Al
Si     0.55072  0.66759  0.34042    Si
P      0.55259   0.0617  0.83415     P
O      0.55779  0.13462  0.25725     O
Al     0.55814  0.43016  0.84066    Al
P       0.5617  0.44741  0.16585     P
O      0.56204  0.74758  0.30635     O
Si     0.56507  0.16733  0.40737    Si
Al     0.56625  0.33449   0.4083    Al
O      0.56803  0.38203  0.25217     O
Al     0.56984  0.05814  0.15934    Al
O      0.57864   0.0798  0.99254     O
O      0.57963  0.24802  0.37914     O
O       0.5798  0.42136  0.00746     O
O      0.61797  0.06803  0.74783     O
O      0.61837  0.62997  0.34592     O
O      0.62645  0.49349   0.2064     O
O      0.62997  0.88163  0.34592     O
O      0.63049  0.13561  0.47872     O
O      0.63462  0.44221  0.74275     O
O      0.63561  0.36951  0.52128     O
O      0.64082  0.00176  0.22132     O
O      0.65868  0.50071  0.50739     O
O      0.65932  0.98018  0.48882     O
Al      0.6646  0.54488  0.33858    Al
Al     0.66551  0.06625   0.5917    Al
Si     0.66733  0.43493  0.59263    Si
Si     0.66759  0.94928  0.34042    Si
O      0.74758  0.93796  0.30635     O
O      0.74802  0.42037  0.62086     O
O      0.75198  0.07963  0.62086     O
O      0.75242  0.56204  0.30635     O
Si     0.83241  0.55072  0.34042    Si
Si     0.83267  0.06507  0.59263    Si
Al     0.83449  0.43375   0.5917    Al
Al      0.8354  0.95512  0.33858    Al
O      0.84068  0.51982  0.48882     O
O      0.84132  0.99929  0.50739     O
O      0.85918  0.49824  0.22132     O
O      0.86439  0.13049  0.52128     O
O      0.86538  0.05779  0.74275     O
O      0.86951  0.36439  0.47872     O
O      0.87003  0.61837  0.34592     O
O      0.87355  0.00651   0.2064     O
O      0.88163  0.87003  0.34592     O
O      0.88203  0.43197  0.74783     O
O       0.9202  0.07864  0.00746     O
O      0.92037  0.25198  0.37914     O
O      0.92136   0.4202  0.99254     O
Al     0.93016  0.44186  0.15934    Al
O      0.93197  0.11797  0.25217     O
Al     0.93375  0.16551   0.4083    Al
Si     0.93493  0.33267  0.40737    Si
O      0.93796  0.75242  0.30635     O
P       0.9383  0.05259  0.16585     P
Al     0.94186  0.06984  0.84066    Al
O      0.94221  0.36538  0.25725     O
P      0.94741   0.4383  0.83415     P
Si     0.94928  0.83241  0.34042    Si
Al     0.95512   0.6646  0.33858    Al
O      0.98018  0.84068  0.48882     O
O      0.98513  0.50461  0.82555     O
O      0.99349  0.37355   0.7936     O
O      0.99539  0.98513  0.82555     O
O      0.99824  0.14082  0.77868     O
O      0.99929  0.65868  0.50739     O
