data_I
_chemical_name_common  '/home/zhangsd/repos/MofS-CGCNN/ML/data/SSD/clean_cifs/YOYBUL_clean'
_cell_length_a 11.44240
_cell_length_b 15.13520
_cell_length_c 15.21410
_cell_angle_alpha 112.00200
_cell_angle_beta  96.43300
_cell_angle_gamma 98.57400
_space_group_name_H-M_alt      'P 1'


loop_
_space_group_symop_operation_xyz
  'x, y, z' 

loop_
_atom_site_label
_atom_site_fract_x
_atom_site_fract_y
_atom_site_fract_z
_atom_site_type_symbol
C       0.0032   0.2192   0.7997     C
H       0.0175   0.7299   0.1515     H
C       0.0445   0.9154    0.345     C
C       0.0772   0.0879   0.6591     C
C       0.0846    0.852   0.2704     C
H        0.099   0.9608   0.3987     H
H       0.1012   0.0431   0.6071     H
C       0.1214   0.2148   0.7973     C
N       0.1608   0.1488   0.7299     N
H       0.1785   0.2625   0.8475     H
H       0.2062   0.7098   0.2043     H
C       0.2138   0.8552   0.2699     C
C       0.2581   0.7704   0.2319     C
H       0.2701   0.0005   0.3385     H
O       0.2741  0.98325   0.5465     O
C       0.2959   0.9425   0.3103     C
C       0.2961   0.9476   0.6056     C
H       0.3023   0.8238   0.4326     H
C       0.3045   0.8416   0.5708     C
C       0.3078   0.7922   0.4744     C
C       0.3143   0.7939   0.6311     C
H       0.3148    0.827   0.6965     H
O       0.3155  0.99482  0.69685     O
C       0.3192   0.6957   0.4396     C
H       0.3219   0.6635   0.3747     H
C       0.3233    0.697   0.5958     C
H       0.3239   0.5149   0.5778     H
C       0.3265   0.6469   0.4996     C
H       0.3274   0.6652   0.6375     H
C        0.337   0.4883   0.5147     C
C       0.3396   0.5431   0.4593     C
H       0.3437   0.4344   0.6586     H
H       0.3455   0.3423    0.745     H
C        0.349   0.3695   0.6282     C
Zn      0.3504  0.13899  0.73096    Zn
H       0.3504   0.2362   0.1931     H
C       0.3504   0.3136   0.6801     C
C       0.3545   0.3921   0.4747     C
C       0.3553   0.3328   0.5324     C
N       0.3556  0.50767  0.36818     N
N       0.3583  0.22076  0.64422     N
H       0.3648   0.1861   0.0323     H
C       0.3651   0.2365   0.4959     C
C        0.366   0.1841   0.5516     C
C       0.3679   0.2822   0.1671     C
C         0.37   0.4155   0.3281     C
C       0.3706    0.357   0.3788     C
H       0.3712   0.2065   0.4314     H
H       0.3724   0.1193   0.5233     H
C       0.3774   0.2523   0.0705     C
O       0.3798  0.19461  0.87507     O
C       0.3801    0.778   0.2359     C
H       0.3819   0.2937   0.3491     H
C       0.3845   0.3813   0.2253     C
C       0.4051   0.3184   0.0302     C
C       0.4084   0.2857   0.9237     C
H       0.4086   0.7208   0.2114     H
C        0.412   0.4462   0.1834     C
C       0.4168   0.9437   0.3086     C
H       0.4233   0.5126   0.2208     H
C       0.4236   0.4162   0.0871     C
O       0.4388   0.3469  0.89092     O
H       0.4437   0.4621   0.0614     H
N         0.46  0.86229  0.27282     N
H       0.4704   0.0035   0.3333     H
H       0.5296   0.9965   0.6667     H
N         0.54  0.13771  0.72718     N
H       0.5563   0.5379   0.9386     H
O       0.5612   0.6531  0.10908     O
C       0.5764   0.5838   0.9129     C
H       0.5767   0.4874   0.7792     H
C       0.5832   0.0563   0.6914     C
C        0.588   0.5538   0.8166     C
H       0.5914   0.2792   0.7886     H
C       0.5916   0.7143   0.0763     C
C       0.5949   0.6816   0.9698     C
C       0.6155   0.6187   0.7747     C
H       0.6181   0.7063   0.6509     H
C       0.6199    0.222   0.7641     C
O       0.6202  0.80539  0.12493     O
C       0.6226   0.7477   0.9295     C
H       0.6276   0.8807   0.4767     H
H       0.6288   0.7935   0.5686     H
C       0.6294    0.643   0.6212     C
C         0.63   0.5845   0.6719     C
C       0.6321   0.7178   0.8329     C
C        0.634   0.8159   0.4484     C
C       0.6349   0.7635   0.5041     C
H       0.6352   0.8139   0.9677     H
N       0.6417  0.77924  0.35578     N
N       0.6444  0.49233  0.63182     N
C       0.6447   0.6672   0.4676     C
C       0.6455   0.6079   0.5253     C
C       0.6496   0.6864   0.3199     C
H       0.6496   0.7638   0.8069     H
Zn      0.6496  0.86101  0.26904    Zn
C        0.651   0.6305   0.3718     C
H       0.6545   0.6577    0.255     H
H       0.6563   0.5656   0.3414     H
C       0.6604   0.4569   0.5407     C
C        0.663   0.5117   0.4853     C
H       0.6726   0.3348   0.3625     H
C       0.6735   0.3531   0.5004     C
H       0.6761   0.4851   0.4222     H
C       0.6767    0.303   0.4042     C
H       0.6781   0.3365   0.6253     H
C       0.6808   0.3043   0.5604     C
O       0.6845  0.00518  0.30315     O
H       0.6852    0.173   0.3035     H
C       0.6857   0.2061   0.3689     C
C       0.6922   0.2078   0.5256     C
C       0.6955   0.1584   0.4292     C
H       0.6977   0.1762   0.5674     H
C       0.7039   0.0524   0.3944     C
C       0.7041   0.0575   0.6897     C
O       0.7259  0.01675   0.4535     O
H       0.7299   0.9995   0.6615     H
C       0.7419   0.2296   0.7681     C
C       0.7862   0.1448   0.7301     C
H       0.7938   0.2902   0.7957     H
H       0.8215   0.7375   0.1525     H
N       0.8392   0.8512   0.2701     N
C       0.8786   0.7852   0.2027     C
H       0.8988   0.9569   0.3929     H
H        0.901   0.0392   0.6013     H
C       0.9154    0.148   0.7296     C
C       0.9228   0.9121   0.3409     C
C       0.9555   0.0846    0.655     C
H       0.9825   0.2701   0.8485     H
C       0.9968   0.7808   0.2003     C
