data_I
_chemical_name_common  '/home/zhangsd/repos/MofS-CGCNN/ML/data/SSD/clean_cifs/YOYWEQ01_clean'
_cell_length_a 26.19340
_cell_length_b 26.19340
_cell_length_c  9.39780
_cell_angle_alpha 90.00000
_cell_angle_beta  90.00000
_cell_angle_gamma 120.00000
_space_group_name_H-M_alt      'P 1'


loop_
_space_group_symop_operation_xyz
  'x, y, z' 

loop_
_atom_site_label
_atom_site_fract_x
_atom_site_fract_y
_atom_site_fract_z
_atom_site_type_symbol
Au         0.0  0.29377      0.0    Au
Fe         0.0      0.5      0.0    Fe
Au         0.0  0.70623      0.0    Au
N      0.00223  0.44757  0.85597     N
N      0.00223  0.55467  0.85597     N
H       0.0095   0.1442   0.6616     H
H       0.0095   0.8653   0.6616     H
C      0.00983  0.41617  0.78277     C
C      0.00983  0.59367  0.78277     C
C      0.02905   0.0581   0.3339     C
C      0.02905  0.97095   0.3339     C
N      0.03025   0.0605   0.6675     N
N      0.03025  0.96975   0.6675     N
C       0.0315   0.1541   0.3379     C
C       0.0315   0.8774   0.3379     C
Au     0.03956   0.3729  0.66667    Au
Au     0.03956  0.66667  0.66667    Au
H       0.0435   0.2361   0.3429     H
H       0.0435   0.8074   0.3429     H
C       0.0581  0.02905   0.6661     C
N       0.0605  0.03025   0.3325     N
C      0.06095   0.1219   0.3353     C
C      0.06095  0.93905   0.3353     C
C       0.0638   0.2153   0.3397     C
C       0.0638   0.8485   0.3397     C
C        0.073   0.3235   0.1161     C
C        0.073   0.7495   0.1161     C
C      0.08283  0.34317  0.55057     C
C      0.08283  0.73967  0.55057     C
N      0.08767  0.54383  0.00353     N
H      0.09723  0.47407  0.00957     H
H      0.09723  0.62317  0.00957     H
N        0.112   0.3311   0.1893     N
N        0.112   0.7809   0.1893     N
N      0.11423  0.33557  0.47737     N
N      0.11423  0.77867  0.47737     N
C      0.11803  0.51517  0.00637     C
C      0.11803  0.60287  0.00637     C
C       0.1219  0.06095   0.6647     C
C       0.1226   0.1541   0.3379     C
C       0.1226   0.9685   0.3379     C
N      0.12283  0.24567  0.33687     N
N      0.12283  0.87717  0.33687     N
H       0.1347   0.1442   0.6616     H
H       0.1347   0.9905   0.6616     H
H      0.14073  0.43057  0.32377     H
H      0.14073  0.71017  0.32377     H
H       0.1442   0.0095   0.3384     H
H       0.1442   0.1347   0.3384     H
C       0.1515   0.2153   0.3397     C
C       0.1515   0.9362   0.3397     C
C       0.1541   0.0315   0.6621     C
C       0.1541   0.1226   0.6621     C
Fe     0.16667  0.33333  0.33333    Fe
Fe     0.16667  0.83333  0.33333    Fe
C      0.17923  0.54407  0.00457     C
C      0.17923  0.63517  0.00457     C
C      0.18183  0.45137  0.32697     C
C      0.18183  0.73047  0.32697     C
H      0.18913  0.53197  0.32827     H
H      0.18913  0.65717  0.32827     H
H       0.1926   0.2361   0.3429     H
H       0.1926   0.9565   0.3429     H
H      0.19863  0.52247  0.00507     H
H      0.19863  0.67617  0.00507     H
N       0.2105    0.421   0.3298     N
N       0.2105   0.7895   0.3298     N
C      0.21073  0.51257  0.32877     C
C      0.21073  0.69817  0.32877     C
C      0.21143  0.60572  0.00197     C
C       0.2153   0.0638   0.6603     C
C       0.2153   0.1515   0.6603     C
N       0.2191   0.3311   0.1893     N
N       0.2191    0.888   0.1893     N
N      0.22133  0.33557  0.47737     N
N      0.22133  0.88577  0.47737     N
H       0.2361   0.0435   0.6571     H
H       0.2361   0.1926   0.6571     H
N      0.24567  0.12283  0.66313     N
C       0.2505   0.3235   0.1161     C
C       0.2505    0.927   0.1161     C
C      0.26033  0.34317  0.55057     C
C      0.26033  0.91717  0.55057     C
C      0.26953  0.45137  0.32697     C
C      0.26953  0.81817  0.32697     C
C      0.27238  0.54477  0.33137     C
C      0.27238  0.72762  0.33137     C
N      0.27283  0.63642  0.33417     N
C      0.27523  0.63762  0.00057     C
H      0.28983  0.43057  0.32377     H
H      0.28983  0.85927  0.32377     H
Au     0.29377      0.0      0.0    Au
Au     0.29377  0.29377      0.0    Au
C      0.30183  0.51257  0.32877     C
C      0.30183  0.78927  0.32877     C
N      0.30308  0.60617  0.99917     N
N      0.30308  0.69692  0.99917     N
C      0.30428  0.60857  0.33277     C
C      0.30428  0.69572  0.33277     C
C       0.3235    0.073   0.8839     C
C       0.3235   0.2505   0.8839     C
H      0.32383  0.52247  0.00507     H
H      0.32383  0.80137  0.00507     H
N       0.3311    0.112   0.8107     N
N       0.3311   0.2191   0.8107     N
Fe     0.33333  0.16667  0.66667    Fe
Au     0.33333   0.3729  0.66667    Au
Au     0.33333  0.96044  0.66667    Au
N      0.33557  0.11423  0.52263     N
N      0.33557  0.22133  0.52263     N
H      0.34283  0.53197  0.32827     H
H      0.34283  0.81087  0.32827     H
C      0.34317  0.08283  0.44943     C
C      0.34317  0.26033  0.44943     C
C      0.36238  0.63762  0.00057     C
C      0.36238  0.72477  0.00057     C
N      0.36358  0.63642  0.33417     N
N      0.36358  0.72717  0.33417     N
C      0.36483  0.54407  0.00457     C
C      0.36483  0.82077  0.00457     C
Au      0.3729  0.03956  0.33333    Au
Au      0.3729  0.33333  0.33333    Au
H      0.37683  0.47407  0.00957     H
H      0.37683  0.90277  0.00957     H
C      0.39143  0.69572  0.33277     C
N      0.39383  0.69692  0.99917     N
C      0.39428  0.60572  0.00197     C
C      0.39428  0.78857  0.00197     C
C      0.39713  0.51517  0.00637     C
C      0.39713  0.88197  0.00637     C
C      0.40633  0.41617  0.78277     C
C      0.40633  0.99017  0.78277     C
C      0.41617  0.00983  0.21723     C
C      0.41617  0.40633  0.21723     C
N        0.421   0.2105   0.6702     N
H      0.43057  0.14073  0.67623     H
H      0.43057  0.28983  0.67623     H
N      0.44533  0.44757  0.85597     N
N      0.44533  0.99777  0.85597     N
N      0.44757  0.00223  0.14403     N
N      0.44757  0.44533  0.14403     N
C      0.45137  0.18183  0.67303     C
C      0.45137  0.26953  0.67303     C
C      0.45523  0.72762  0.33137     C
C      0.45593  0.63517  0.00457     C
C      0.45593  0.82077  0.00457     C
N      0.45617  0.54383  0.00353     N
N      0.45617  0.91233  0.00353     N
H      0.46803  0.65717  0.32827     H
H      0.46803  0.81087  0.32827     H
H      0.47407  0.09723  0.99043     H
H      0.47407  0.37683  0.99043     H
H      0.47753  0.67617  0.00507     H
H      0.47753  0.80137  0.00507     H
C      0.48483  0.60287  0.00637     C
C      0.48483  0.88197  0.00637     C
C      0.48743  0.69817  0.32877     C
C      0.48743  0.78927  0.32877     C
Fe         0.5      0.0      0.0    Fe
Fe         0.5      0.5      0.0    Fe
C      0.51257  0.21073  0.67123     C
C      0.51257  0.30183  0.67123     C
C      0.51517  0.11803  0.99363     C
C      0.51517  0.39713  0.99363     C
H      0.52247  0.19863  0.99493     H
H      0.52247  0.32383  0.99493     H
H      0.52593  0.62317  0.00957     H
H      0.52593  0.90277  0.00957     H
H      0.53197  0.18913  0.67173     H
H      0.53197  0.34283  0.67173     H
N      0.54383  0.08767  0.99647     N
N      0.54383  0.45617  0.99647     N
C      0.54407  0.17923  0.99543     C
C      0.54407  0.36483  0.99543     C
C      0.54477  0.27238  0.66863     C
C      0.54863  0.73047  0.32697     C
C      0.54863  0.81817  0.32697     C
N      0.55243  0.55467  0.85597     N
N      0.55243  0.99777  0.85597     N
N      0.55467  0.00223  0.14403     N
N      0.55467  0.55243  0.14403     N
H      0.56943  0.71017  0.32377     H
H      0.56943  0.85927  0.32377     H
N        0.579   0.7895   0.3298     N
C      0.58383  0.59367  0.78277     C
C      0.58383  0.99017  0.78277     C
C      0.59367  0.00983  0.21723     C
C      0.59367  0.58383  0.21723     C
C      0.60287  0.11803  0.99363     C
C      0.60287  0.48483  0.99363     C
C      0.60572  0.21143  0.99803     C
C      0.60572  0.39428  0.99803     C
N      0.60617  0.30308  0.00083     N
C      0.60857  0.30428  0.66723     C
H      0.62317  0.09723  0.99043     H
H      0.62317  0.52593  0.99043     H
Au      0.6271  0.66667  0.66667    Au
Au      0.6271  0.96044  0.66667    Au
C      0.63517  0.17923  0.99543     C
C      0.63517  0.45593  0.99543     C
N      0.63642  0.27283  0.66583     N
N      0.63642  0.36358  0.66583     N
C      0.63762  0.27523  0.99943     C
C      0.63762  0.36238  0.99943     C
C      0.65683  0.73967  0.55057     C
C      0.65683  0.91717  0.55057     C
H      0.65717  0.18913  0.67173     H
H      0.65717  0.46803  0.67173     H
N      0.66443  0.77867  0.47737     N
N      0.66443  0.88577  0.47737     N
Au     0.66667  0.03956  0.33333    Au
Au     0.66667   0.6271  0.33333    Au
Fe     0.66667  0.83333  0.33333    Fe
N       0.6689   0.7809   0.1893     N
N       0.6689    0.888   0.1893     N
H      0.67617  0.19863  0.99493     H
H      0.67617  0.47753  0.99493     H
C       0.6765   0.7495   0.1161     C
C       0.6765    0.927   0.1161     C
C      0.69572  0.30428  0.66723     C
C      0.69572  0.39143  0.66723     C
N      0.69692  0.30308  0.00083     N
N      0.69692  0.39383  0.00083     N
C      0.69817  0.21073  0.67123     C
C      0.69817  0.48743  0.67123     C
Au     0.70623      0.0      0.0    Au
Au     0.70623  0.70623      0.0    Au
H      0.71017  0.14073  0.67623     H
H      0.71017  0.56943  0.67623     H
C      0.72477  0.36238  0.99943     C
N      0.72717  0.36358  0.66583     N
C      0.72762  0.27238  0.66863     C
C      0.72762  0.45523  0.66863     C
C      0.73047  0.18183  0.67303     C
C      0.73047  0.54863  0.67303     C
C      0.73967  0.08283  0.44943     C
C      0.73967  0.65683  0.44943     C
C       0.7495    0.073   0.8839     C
C       0.7495   0.6765   0.8839     C
N      0.75433  0.87717  0.33687     N
H       0.7639   0.8074   0.3429     H
H       0.7639   0.9565   0.3429     H
N      0.77867  0.11423  0.52263     N
N      0.77867  0.66443  0.52263     N
N       0.7809    0.112   0.8107     N
N       0.7809   0.6689   0.8107     N
C       0.7847   0.8485   0.3397     C
C       0.7847   0.9362   0.3397     C
C      0.78857  0.39428  0.99803     C
C      0.78927  0.30183  0.67123     C
C      0.78927  0.48743  0.67123     C
N       0.7895   0.2105   0.6702     N
N       0.7895    0.579   0.6702     N
H      0.80137  0.32383  0.99493     H
H      0.80137  0.47753  0.99493     H
H       0.8074   0.0435   0.6571     H
H       0.8074   0.7639   0.6571     H
H      0.81087  0.34283  0.67173     H
H      0.81087  0.46803  0.67173     H
C      0.81817  0.26953  0.67303     C
C      0.81817  0.54863  0.67303     C
C      0.82077  0.36483  0.99543     C
C      0.82077  0.45593  0.99543     C
Fe     0.83333  0.16667  0.66667    Fe
Fe     0.83333  0.66667  0.66667    Fe
C       0.8459   0.8774   0.3379     C
C       0.8459   0.9685   0.3379     C
C       0.8485   0.0638   0.6603     C
C       0.8485   0.7847   0.6603     C
H       0.8558   0.8653   0.6616     H
H       0.8558   0.9905   0.6616     H
H      0.85927  0.28983  0.67623     H
H      0.85927  0.56943  0.67623     H
H       0.8653   0.0095   0.3384     H
H       0.8653   0.8558   0.3384     H
N      0.87717  0.12283  0.66313     N
N      0.87717  0.75433  0.66313     N
C       0.8774   0.0315   0.6621     C
C       0.8774   0.8459   0.6621     C
C       0.8781  0.93905   0.3353     C
C      0.88197  0.39713  0.99363     C
C      0.88197  0.48483  0.99363     C
N      0.88577  0.22133  0.52263     N
N      0.88577  0.66443  0.52263     N
N        0.888   0.2191   0.8107     N
N        0.888   0.6689   0.8107     N
H      0.90277  0.37683  0.99043     H
H      0.90277  0.52593  0.99043     H
N      0.91233  0.45617  0.99647     N
C      0.91717  0.26033  0.44943     C
C      0.91717  0.65683  0.44943     C
C        0.927   0.2505   0.8839     C
C        0.927   0.6765   0.8839     C
C       0.9362   0.1515   0.6603     C
C       0.9362   0.7847   0.6603     C
C      0.93905  0.06095   0.6647     C
C      0.93905   0.8781   0.6647     C
N       0.9395  0.96975   0.6675     N
C       0.9419  0.97095   0.3339     C
H       0.9565   0.1926   0.6571     H
H       0.9565   0.7639   0.6571     H
Au     0.96044  0.33333  0.33333    Au
Au     0.96044   0.6271  0.33333    Au
C       0.9685   0.1226   0.6621     C
C       0.9685   0.8459   0.6621     C
N      0.96975  0.03025   0.3325     N
N      0.96975   0.9395   0.3325     N
C      0.97095  0.02905   0.6661     C
C      0.97095   0.9419   0.6661     C
C      0.99017  0.40633  0.21723     C
C      0.99017  0.58383  0.21723     C
H       0.9905   0.1347   0.3384     H
H       0.9905   0.8558   0.3384     H
N      0.99777  0.44533  0.14403     N
N      0.99777  0.55243  0.14403     N
