data_I
_chemical_name_common  '/home/zhangsd/repos/MofS-CGCNN/ML/data/SSD/clean_cifs/YOYZET_clean'
_cell_length_a 26.60400
_cell_length_b 18.11300
_cell_length_c 18.92500
_cell_angle_alpha 90.00000
_cell_angle_beta  118.24000
_cell_angle_gamma 90.00000
_space_group_name_H-M_alt      'P 1'


loop_
_space_group_symop_operation_xyz
  'x, y, z' 

loop_
_atom_site_label
_atom_site_fract_x
_atom_site_fract_y
_atom_site_fract_z
_atom_site_type_symbol
Co     0.00352   0.0809  0.22107    Co
N       0.0254   0.2185   0.8852     N
B       0.0276   0.9513   0.6893     B
N       0.0299   0.0883   0.7005     N
N       0.0331   0.9465   0.3339     N
H        0.038   0.1954    0.675     H
N       0.0383   0.0772   0.1437     N
B       0.0387    0.213   0.1427     B
H       0.0388   0.9126   0.6617     H
N       0.0404   0.0285   0.6701     N
C       0.0427   0.1452   0.6647     C
H       0.0498   0.9711   0.1206     H
N       0.0507   0.1678   0.8565     N
H       0.0509    0.254   0.1189     H
N       0.0514   0.1387    0.117     N
C       0.0539   0.0219   0.1118     C
N       0.0554   0.9931   0.8349     N
C       0.0568   0.0523   0.6134     C
N       0.0578   0.9942   0.3012     N
H       0.0583   0.3142   0.9482     H
N       0.0613   0.9428   0.7819     N
N        0.062   0.1256   0.6146     N
H       0.0634   0.0204   0.5787     H
N       0.0638   0.1654   0.2813     N
C       0.0642   0.2725   0.9228     C
H       0.0689   0.8631   0.4135     H
N         0.07   0.2185   0.2343     N
C       0.0745   0.9007    0.383     C
C       0.0756   0.1199   0.0692     C
N       0.0765   0.0472   0.0647     N
H       0.0893   0.1536   0.0438     H
C       0.0909   0.9652   0.9039     C
H        0.094    0.594   0.4396     H
C       0.0949   0.1904   0.3561     C
H       0.0977   0.5113   0.4908     H
C       0.0984   0.8884   0.8268     C
H       0.0998   0.9911   0.9521     H
H       0.1006   0.1633   0.4023     H
C       0.1016   0.1937   0.8831     C
C       0.1024    0.274   0.2824     C
H       0.1087   0.5785    0.852     H
C       0.1106   0.9737   0.3363     C
H        0.111   0.8488   0.8063     H
H       0.1127   0.3175   0.2644     H
N       0.1133   0.2582   0.9188     N
N       0.1144   0.9005   0.9064     N
N       0.1178   0.2581   0.3595     N
H       0.1197   0.5471   0.5778     H
H       0.1207   0.5613   0.3862     H
H        0.121   0.6903   0.7944     H
H       0.1224   0.6483    0.402     H
C       0.1247   0.5993   0.4253     C
N       0.1252   0.9135   0.3847     N
C       0.1279   0.5101   0.5467     C
H       0.1293    0.461   0.5692     H
H       0.1299   0.1667    0.877     H
H       0.1344   0.6309   0.9292     H
H       0.1365   0.5431   0.9399     H
H       0.1369   0.6217   0.7555     H
H       0.1384      0.0   0.3284     H
C        0.139   0.5838   0.9075     C
H       0.1454   0.6701   0.5395     H
C       0.1511   0.6678   0.7857     C
H       0.1518   0.7301   0.1326     H
H       0.1621   0.7018   0.7552     H
H       0.1621    0.727   0.2609     H
H       0.1679   0.5116   0.8132     H
O       0.1682   0.4109   0.4761     O
C       0.1685   0.2874   0.6969     C
H       0.1705   0.1858   0.6051     H
O       0.1711    0.776   0.4878     O
C       0.1725   0.4797   0.2511     C
H        0.176   0.6465   0.1445     H
O       0.1772   0.7575   0.9151     O
C       0.1786   0.5912   0.4956     C
O       0.1795   0.4041   0.9006     O
C       0.1829   0.6966   0.1681     C
C       0.1831   0.5267   0.5503     C
C       0.1843   0.4785   0.1467     C
C       0.1847   0.6591    0.548     C
H       0.1876   0.1731   0.6975     H
H       0.1882   0.6452   0.2737     H
O       0.1905    0.377   0.0488     O
Cu     0.19168   0.3169   0.4498    Cu
C       0.1919   0.6963    0.258     C
H       0.1932   0.6384   0.6582     H
Cu     0.19417  0.31547  0.96655    Cu
O       0.1962   0.3683   0.3625     O
O       0.1963   0.2737   0.5455     O
Cu     0.19695  0.85002  0.97582    Cu
O       0.1984   0.7976   0.0673     O
C       0.1995   0.5819   0.9097     C
C       0.1995   0.6524   0.8613     C
C       0.2019   0.1739   0.6583     C
Cu     0.20283  0.86262   0.4615    Cu
C       0.2051    0.518   0.8631     C
C       0.2054    0.728   0.5294     C
C       0.2063   0.4553   0.5269     C
O       0.2105   0.2634   0.8892     O
H       0.2106   0.1411   0.1088     H
O        0.211   0.7999   0.3808     O
H       0.2117   0.0236   0.1257     H
O        0.215   0.9123   0.5624     O
H       0.2153   0.0771    0.999     H
C       0.2164    0.998   0.7919     C
C       0.2168   0.6325   0.6309     C
C       0.2171   0.7242   0.9126     C
O       0.2171   0.8923   0.8938     O
H       0.2176   0.1254   0.6567     H
C       0.2181   0.4481   0.9102     C
H       0.2184   0.5639   0.4262     H
C       0.2281   0.3246   0.2323     C
C       0.2287    0.593   0.4747     C
H         0.23   0.0537   0.3631     H
O       0.2302   0.2383   0.0466     O
O       0.2308    0.936   0.0459     O
H       0.2319   0.5331   0.6796     H
C       0.2319   0.5587   0.6334     C
C       0.2327   0.2782   0.7361     C
C       0.2343   0.3993   0.1019     C
C       0.2346   0.4445   0.2992     C
H       0.2361   0.6442   0.4655     H
C       0.2369   0.4416   0.1726     C
H       0.2369   0.9856   0.6833     H
H        0.237   0.0722   0.4806     H
H       0.2393   0.5305   0.7826     H
O       0.2399   0.9408   0.4384     O
O       0.2407   0.2343    0.442     O
C       0.2407   0.4053   0.3739     C
C       0.2409   0.7258   0.1864     C
H       0.2416   0.5395   0.0271     H
C       0.2425   0.2697   0.6086     C
C       0.2447   0.7651   0.1155     C
C       0.2455   0.2285    0.681     C
H       0.2458   0.6275   0.0251     H
C       0.2461   0.3941   0.2442     C
C       0.2474   0.5815   0.9991     C
C       0.2475   0.1256   0.1542     C
H       0.2483   0.1626     0.34     H
C       0.2486   0.8514   0.2506     C
H        0.249   0.6484   0.7961     H
C       0.2495   0.0452   0.1615     C
C       0.2505   0.5452   0.8385     C
H        0.251   0.1484   0.2039     H
C       0.2514   0.3514   0.7494     C
H       0.2517   0.6626     0.66     H
C       0.2525   0.6256   0.8458     C
C       0.2526   0.0815   0.0009     C
C       0.2539   0.8941   0.7558     C
H       0.2542   0.1275   0.9749     H
C       0.2545   0.7285    0.319     C
C       0.2553   0.2651   0.8845     C
C       0.2575   0.7697   0.3914     C
H       0.2584   0.0395   0.9729     H
C       0.2591   0.2258   0.8136     C
O       0.2593   0.7343    0.558     O
C       0.2593   0.9053   0.6261     C
O       0.2601   0.4408   0.5616     O
H       0.2607   0.0305   0.2174     H
H        0.263   0.5722   0.5194     H
H       0.2631   0.4856   0.3167     H
C       0.2631   0.9416   0.8274     C
H       0.2639   0.1442   0.5345     H
C       0.2654   0.9445   0.7008     C
C       0.2657   0.8993   0.8981     C
C       0.2673   0.7782   0.2639     C
H       0.2681   0.0331   0.3204     H
C       0.2681   0.0587   0.3666     C
O       0.2692    0.436   0.9541     O
O       0.2698   0.7383   0.9534     O
H         0.27   0.5537   0.6369     H
C       0.2713    0.093   0.5253     C
C       0.2719   0.8246   0.7677     C
H       0.2816   0.0639   0.5738     H
C       0.2819   0.9481   0.0898     C
H       0.2824   0.6254   0.3433     H
C       0.2829   0.2242   0.0874     C
O       0.2829   0.3923   0.1062     O
C       0.2832   0.1325   0.3691     C
C       0.2836    0.498   0.2081     C
H       0.2847   0.5771    0.001     H
O        0.285   0.4123   0.4376     O
H       0.2883   0.5236   0.8743     H
O        0.289   0.2999   0.6192     O
H       0.2894   0.6411   0.8912     H
O       0.2895   0.7634   0.1108     O
C       0.2937   0.9553   0.4731     C
C       0.2946    0.228   0.4706     C
C       0.2949    0.018   0.1369     C
Cu     0.29717  0.36262   0.5385    Cu
C       0.2981   0.6739   0.3417     C
C       0.3005   0.0819   0.0903     C
C       0.3005   0.1524   0.1387     C
O       0.3016   0.2976   0.9327     O
Cu     0.30305  0.35002  0.02418    Cu
O       0.3037   0.7737   0.4545     O
O       0.3038   0.8683   0.6375     O
Cu     0.30583  0.81547  0.03345    Cu
H       0.3068   0.1384   0.3418     H
C       0.3081   0.1963    0.742     C
Cu     0.30832   0.8169   0.5502    Cu
O       0.3095    0.877   0.9512     O
H       0.3118   0.1452   0.7263     H
H       0.3124   0.6731   0.3025     H
C       0.3153   0.1591    0.452     C
C       0.3157   0.9785   0.8533     C
C       0.3169   0.0267   0.4497     C
C       0.3171   0.1966   0.8319     C
O       0.3205   0.9041   0.0994     O
C       0.3214   0.0912   0.5044     C
O       0.3228   0.2575   0.0849     O
H        0.324   0.1465   0.8555     H
C       0.3275   0.9797   0.7489     C
O       0.3289    0.276   0.5122     O
H       0.3295   0.6858   0.3949     H
C       0.3315   0.7874   0.3031     C
O       0.3318   0.9109   0.5239     O
H       0.3321   0.0116   0.1868     H
H       0.3379   0.2018   0.2448     H
H       0.3379    0.227   0.7391     H
H       0.3482   0.2301   0.8674     H
C       0.3489   0.1678   0.2143     C
H       0.3546   0.1701   0.4605     H
C        0.361   0.0838   0.0925     C
H       0.3616      0.5   0.6716     H
H       0.3631   0.1217   0.2445     H
H       0.3635   0.0431   0.0601     H
H       0.3656   0.1309   0.0708     H
H       0.3701   0.6667    0.123     H
H       0.3707    0.961   0.4308     H
C       0.3721   0.0101   0.4533     C
N       0.3748   0.4135   0.6153     N
C       0.3753   0.0993   0.5747     C
H       0.3776   0.1483    0.598     H
H        0.379   0.1903   0.2056     H
H       0.3793   0.0613   0.6138     H
H       0.3803   0.0471   0.4222     H
N       0.3822   0.7581   0.6405     N
N       0.3856   0.4005   0.0936     N
N       0.3867   0.7582   0.0812     N
H       0.3873   0.8175   0.7356     H
H        0.389   0.3488   0.1937     H
C       0.3894   0.4737   0.6637     C
H       0.3913   0.0785    0.148     H
C       0.3976    0.774   0.7176     C
C       0.3984   0.6937   0.1169     C
H       0.3994   0.6633   0.5977     H
H       0.4002   0.4911   0.0479     H
C       0.4016   0.3884   0.1732     C
H       0.4023   0.0113   0.5092     H
C       0.4051   0.6904   0.6439     C
H        0.406    0.094   0.5604     H
C       0.4091   0.4652   0.0961     C
H       0.4107   0.6536   0.9562     H
N       0.4235   0.5472   0.9353     N
C       0.4244   0.6199   0.9308     C
C       0.4255   0.4007    0.617     C
N         0.43   0.7185   0.7657     N
H       0.4311   0.3631   0.5865     H
C       0.4358   0.7725   0.0772     C
N       0.4362   0.6654   0.7187     N
H       0.4366   0.5204   0.4213     H
N        0.438   0.6256   0.3854     N
N       0.4387   0.4428   0.2181     N
H       0.4417   0.8142   0.0518     H
N       0.4422   0.4942   0.6988     N
C       0.4432   0.5523   0.3866     C
N       0.4446   0.4931   0.1651     N
C       0.4461   0.5219   0.8882     C
N       0.4486   0.6387    0.883     N
H       0.4491    0.754   0.8811     H
N       0.4493   0.6678   0.1435     N
H       0.4502   0.4711   0.8794     H
C       0.4573   0.6452   0.3353     C
N       0.4596   0.5285   0.3299     N
H       0.4612   0.4126   0.3383     H
B       0.4613    0.713   0.8573     B
N       0.4617   0.5772   0.8563     N
H        0.462   0.6954    0.325     H
N       0.4669   0.4465   0.6661     N
N       0.4701   0.5883   0.2995     N
B       0.4724   0.4513   0.3107     B
N       0.4746   0.7185   0.1148     N
Co     0.49648   0.5809  0.77893    Co
Co     0.50352   0.5809  0.22107    Co
N       0.5254   0.7185   0.8852     N
B       0.5276   0.4513   0.6893     B
N       0.5299   0.5883   0.7005     N
N       0.5331   0.4465   0.3339     N
H        0.538   0.6954    0.675     H
N       0.5383   0.5772   0.1437     N
B       0.5387    0.713   0.1427     B
H       0.5388   0.4126   0.6617     H
N       0.5404   0.5285   0.6701     N
C       0.5427   0.6452   0.6647     C
H       0.5498   0.4711   0.1206     H
N       0.5507   0.6678   0.8565     N
H       0.5509    0.754   0.1189     H
N       0.5514   0.6387    0.117     N
C       0.5539   0.5219   0.1118     C
N       0.5554   0.4931   0.8349     N
C       0.5568   0.5523   0.6134     C
N       0.5578   0.4942   0.3012     N
H       0.5583   0.8142   0.9482     H
N       0.5613   0.4428   0.7819     N
N        0.562   0.6256   0.6146     N
H       0.5634   0.5204   0.5787     H
N       0.5638   0.6654   0.2813     N
C       0.5642   0.7725   0.9228     C
H       0.5689   0.3631   0.4135     H
N         0.57   0.7185   0.2343     N
C       0.5745   0.4007    0.383     C
C       0.5756   0.6199   0.0692     C
N       0.5765   0.5472   0.0647     N
H       0.5893   0.6536   0.0438     H
C       0.5909   0.4652   0.9039     C
H        0.594    0.094   0.4396     H
C       0.5949   0.6904   0.3561     C
H       0.5977   0.0113   0.4908     H
C       0.5984   0.3884   0.8268     C
H       0.5998   0.4911   0.9521     H
H       0.6006   0.6633   0.4023     H
C       0.6016   0.6937   0.8831     C
C       0.6024    0.774   0.2824     C
H       0.6087   0.0785    0.852     H
C       0.6106   0.4737   0.3363     C
H        0.611   0.3488   0.8063     H
H       0.6127   0.8175   0.2644     H
N       0.6133   0.7582   0.9188     N
N       0.6144   0.4005   0.9064     N
N       0.6178   0.7581   0.3595     N
H       0.6197   0.0471   0.5778     H
H       0.6207   0.0613   0.3862     H
H        0.621   0.1903   0.7944     H
H       0.6224   0.1483    0.402     H
C       0.6247   0.0993   0.4253     C
N       0.6252   0.4135   0.3847     N
C       0.6279   0.0101   0.5467     C
H       0.6293    0.961   0.5692     H
H       0.6299   0.6667    0.877     H
H       0.6344   0.1309   0.9292     H
H       0.6365   0.0431   0.9399     H
H       0.6369   0.1217   0.7555     H
H       0.6384      0.5   0.3284     H
C        0.639   0.0838   0.9075     C
H       0.6454   0.1701   0.5395     H
C       0.6511   0.1678   0.7857     C
H       0.6518   0.2301   0.1326     H
H       0.6621   0.2018   0.7552     H
H       0.6621    0.227   0.2609     H
H       0.6679   0.0116   0.8132     H
O       0.6682   0.9109   0.4761     O
C       0.6685   0.7874   0.6969     C
H       0.6705   0.6858   0.6051     H
O       0.6711    0.276   0.4878     O
C       0.6725   0.9797   0.2511     C
H        0.676   0.1465   0.1445     H
O       0.6772   0.2575   0.9151     O
C       0.6786   0.0912   0.4956     C
O       0.6795   0.9041   0.9006     O
C       0.6829   0.1966   0.1681     C
C       0.6831   0.0267   0.5503     C
C       0.6843   0.9785   0.1467     C
C       0.6847   0.1591    0.548     C
H       0.6876   0.6731   0.6975     H
H       0.6882   0.1452   0.2737     H
O       0.6905    0.877   0.0488     O
Cu     0.69168   0.8169   0.4498    Cu
C       0.6919   0.1963    0.258     C
H       0.6932   0.1384   0.6582     H
Cu     0.69417  0.81547  0.96655    Cu
O       0.6962   0.8683   0.3625     O
O       0.6963   0.7737   0.5455     O
Cu     0.69695  0.35002  0.97582    Cu
O       0.6984   0.2976   0.0673     O
C       0.6995   0.0819   0.9097     C
C       0.6995   0.1524   0.8613     C
C       0.7019   0.6739   0.6583     C
Cu     0.70283  0.36262   0.4615    Cu
C       0.7051    0.018   0.8631     C
C       0.7054    0.228   0.5294     C
C       0.7063   0.9553   0.5269     C
O       0.7105   0.7634   0.8892     O
H       0.7106   0.6411   0.1088     H
O        0.711   0.2999   0.3808     O
H       0.7117   0.5236   0.1257     H
O        0.715   0.4123   0.5624     O
H       0.7153   0.5771    0.999     H
C       0.7164    0.498   0.7919     C
C       0.7168   0.1325   0.6309     C
C       0.7171   0.2242   0.9126     C
O       0.7171   0.3923   0.8938     O
H       0.7176   0.6254   0.6567     H
C       0.7181   0.9481   0.9102     C
H       0.7184   0.0639   0.4262     H
C       0.7281   0.8246   0.2323     C
C       0.7287    0.093   0.4747     C
H         0.73   0.5537   0.3631     H
O       0.7302   0.7383   0.0466     O
O       0.7308    0.436   0.0459     O
H       0.7319   0.0331   0.6796     H
C       0.7319   0.0587   0.6334     C
C       0.7327   0.7782   0.7361     C
C       0.7343   0.8993   0.1019     C
C       0.7346   0.9445   0.2992     C
H       0.7361   0.1442   0.4655     H
H       0.7369   0.4856   0.6833     H
C       0.7369   0.9416   0.1726     C
H        0.737   0.5722   0.4806     H
H       0.7393   0.0305   0.7826     H
O       0.7399   0.4408   0.4384     O
O       0.7407   0.7343    0.442     O
C       0.7407   0.9053   0.3739     C
C       0.7409   0.2258   0.1864     C
H       0.7416   0.0395   0.0271     H
C       0.7425   0.7697   0.6086     C
C       0.7447   0.2651   0.1155     C
C       0.7455   0.7285    0.681     C
H       0.7458   0.1275   0.0251     H
C       0.7461   0.8941   0.2442     C
C       0.7474   0.0815   0.9991     C
C       0.7475   0.6256   0.1542     C
H       0.7483   0.6626     0.34     H
C       0.7486   0.3514   0.2506     C
H        0.749   0.1484   0.7961     H
C       0.7495   0.5452   0.1615     C
C       0.7505   0.0452   0.8385     C
H        0.751   0.6484   0.2039     H
C       0.7514   0.8514   0.7494     C
H       0.7517   0.1626     0.66     H
C       0.7525   0.1256   0.8458     C
C       0.7526   0.5815   0.0009     C
C       0.7539   0.3941   0.7558     C
H       0.7542   0.6275   0.9749     H
C       0.7545   0.2285    0.319     C
C       0.7553   0.7651   0.8845     C
C       0.7575   0.2697   0.3914     C
H       0.7584   0.5395   0.9729     H
C       0.7591   0.7258   0.8136     C
O       0.7593   0.2343    0.558     O
C       0.7593   0.4053   0.6261     C
O       0.7601   0.9408   0.5616     O
H       0.7607   0.5305   0.2174     H
H        0.763   0.0722   0.5194     H
C       0.7631   0.4416   0.8274     C
H       0.7631   0.9856   0.3167     H
H       0.7639   0.6442   0.5345     H
C       0.7654   0.4445   0.7008     C
C       0.7657   0.3993   0.8981     C
C       0.7673   0.2782   0.2639     C
H       0.7681   0.5331   0.3204     H
C       0.7681   0.5587   0.3666     C
O       0.7692    0.936   0.9541     O
O       0.7698   0.2383   0.9534     O
H         0.77   0.0537   0.6369     H
C       0.7713    0.593   0.5253     C
C       0.7719   0.3246   0.7677     C
H       0.7816   0.5639   0.5738     H
C       0.7819   0.4481   0.0898     C
H       0.7824   0.1254   0.3433     H
C       0.7829   0.7242   0.0874     C
O       0.7829   0.8923   0.1062     O
C       0.7832   0.6325   0.3691     C
C       0.7836    0.998   0.2081     C
H       0.7847   0.0771    0.001     H
O        0.785   0.9123   0.4376     O
H       0.7883   0.0236   0.8743     H
O        0.789   0.7999   0.6192     O
H       0.7894   0.1411   0.8912     H
O       0.7895   0.2634   0.1108     O
C       0.7937   0.4553   0.4731     C
C       0.7946    0.728   0.4706     C
C       0.7949    0.518   0.1369     C
Cu     0.79717  0.86262   0.5385    Cu
C       0.7981   0.1739   0.3417     C
C       0.8005   0.5819   0.0903     C
C       0.8005   0.6524   0.1387     C
O       0.8016   0.7976   0.9327     O
Cu     0.80305  0.85002  0.02418    Cu
O       0.8037   0.2737   0.4545     O
O       0.8038   0.3683   0.6375     O
Cu     0.80583  0.31547  0.03345    Cu
H       0.8068   0.6384   0.3418     H
C       0.8081   0.6963    0.742     C
Cu     0.80832   0.3169   0.5502    Cu
O       0.8095    0.377   0.9512     O
H       0.8118   0.6452   0.7263     H
H       0.8124   0.1731   0.3025     H
C       0.8153   0.6591    0.452     C
C       0.8157   0.4785   0.8533     C
C       0.8169   0.5267   0.4497     C
C       0.8171   0.6966   0.8319     C
O       0.8205   0.4041   0.0994     O
C       0.8214   0.5912   0.5044     C
O       0.8228   0.7575   0.0849     O
H        0.824   0.6465   0.8555     H
C       0.8275   0.4797   0.7489     C
O       0.8289    0.776   0.5122     O
H       0.8295   0.1858   0.3949     H
C       0.8315   0.2874   0.3031     C
O       0.8318   0.4109   0.5239     O
H       0.8321   0.5116   0.1868     H
H       0.8379   0.7018   0.2448     H
H       0.8379    0.727   0.7391     H
H       0.8482   0.7301   0.8674     H
C       0.8489   0.6678   0.2143     C
H       0.8546   0.6701   0.4605     H
C        0.861   0.5838   0.0925     C
H       0.8616      0.0   0.6716     H
H       0.8631   0.6217   0.2445     H
H       0.8635   0.5431   0.0601     H
H       0.8656   0.6309   0.0708     H
H       0.8701   0.1667    0.123     H
H       0.8707    0.461   0.4308     H
C       0.8721   0.5101   0.4533     C
N       0.8748   0.9135   0.6153     N
C       0.8753   0.5993   0.5747     C
H       0.8776   0.6483    0.598     H
H        0.879   0.6903   0.2056     H
H       0.8793   0.5613   0.6138     H
H       0.8803   0.5471   0.4222     H
N       0.8822   0.2581   0.6405     N
N       0.8856   0.9005   0.0936     N
N       0.8867   0.2582   0.0812     N
H       0.8873   0.3175   0.7356     H
H        0.889   0.8488   0.1937     H
C       0.8894   0.9737   0.6637     C
H       0.8913   0.5785    0.148     H
C       0.8976    0.274   0.7176     C
C       0.8984   0.1937   0.1169     C
H       0.8994   0.1633   0.5977     H
H       0.9002   0.9911   0.0479     H
C       0.9016   0.8884   0.1732     C
H       0.9023   0.5113   0.5092     H
C       0.9051   0.1904   0.6439     C
H        0.906    0.594   0.5604     H
C       0.9091   0.9652   0.0961     C
H       0.9107   0.1536   0.9562     H
N       0.9235   0.0472   0.9353     N
C       0.9244   0.1199   0.9308     C
C       0.9255   0.9007    0.617     C
N         0.93   0.2185   0.7657     N
H       0.9311   0.8631   0.5865     H
C       0.9358   0.2725   0.0772     C
N       0.9362   0.1654   0.7187     N
H       0.9366   0.0204   0.4213     H
N        0.938   0.1256   0.3854     N
N       0.9387   0.9428   0.2181     N
H       0.9417   0.3142   0.0518     H
N       0.9422   0.9942   0.6988     N
C       0.9432   0.0523   0.3866     C
N       0.9446   0.9931   0.1651     N
C       0.9461   0.0219   0.8882     C
N       0.9486   0.1387    0.883     N
H       0.9491    0.254   0.8811     H
N       0.9493   0.1678   0.1435     N
H       0.9502   0.9711   0.8794     H
C       0.9573   0.1452   0.3353     C
N       0.9596   0.0285   0.3299     N
H       0.9612   0.9126   0.3383     H
B       0.9613    0.213   0.8573     B
N       0.9617   0.0772   0.8563     N
H        0.962   0.1954    0.325     H
N       0.9669   0.9465   0.6661     N
N       0.9701   0.0883   0.2995     N
B       0.9724   0.9513   0.3107     B
N       0.9746   0.2185   0.1148     N
Co     0.99648   0.0809  0.77893    Co
