data_I
_chemical_name_common  '/home/zhangsd/repos/MofS-CGCNN/ML/data/SSD/clean_cifs/YOZJEE_clean'
_cell_length_a 26.21740
_cell_length_b 26.21740
_cell_length_c  9.57340
_cell_angle_alpha 90.00000
_cell_angle_beta  90.00000
_cell_angle_gamma 120.00000
_space_group_name_H-M_alt      'P 1'


loop_
_space_group_symop_operation_xyz
  'x, y, z' 

loop_
_atom_site_label
_atom_site_fract_x
_atom_site_fract_y
_atom_site_fract_z
_atom_site_type_symbol
Ag         0.0  0.29928      0.0    Ag
Fe         0.0      0.5      0.0    Fe
Ag         0.0  0.70072      0.0    Ag
N      0.00155  0.44721   0.8587     N
N      0.00155  0.55434   0.8587     N
C       0.0066   0.4147   0.7859     C
C       0.0066   0.5919   0.7859     C
H      0.00983  0.14387  0.66287     H
H      0.00983  0.86597  0.66287     H
C      0.02862  0.05723  0.33373     C
C      0.02862  0.97138  0.33373     C
N      0.03038  0.06077  0.66567     N
N      0.03038  0.96962  0.66567     N
C      0.03116  0.15378  0.33763     C
C      0.03116  0.87737  0.33763     C
Ag     0.03405  0.36739  0.66667    Ag
Ag     0.03405  0.66667  0.66667    Ag
H      0.04317  0.23543  0.34123     H
H      0.04317  0.80773  0.34123     H
C      0.05723  0.02862  0.66627     C
N      0.06077  0.03038  0.33433     N
C      0.06142  0.12283  0.33673     C
C      0.06142  0.93858  0.33673     C
C      0.06341  0.21475  0.33953     C
C      0.06341  0.84865  0.33953     C
C      0.07477  0.32673  0.11923     C
C      0.07477  0.74803  0.11923     C
C      0.08137  0.33993  0.54743     C
C      0.08137  0.74143  0.54743     C
N       0.0877  0.54385   0.0056     N
H       0.0979   0.4744   0.0079     H
H       0.0979   0.6235   0.0079     H
N      0.11233  0.33178  0.19203     N
N      0.11233  0.78054  0.19203     N
N      0.11388  0.33488  0.47463     N
N      0.11388  0.77899  0.47463     N
C      0.11858  0.51532   0.0062     C
C      0.11858  0.60326   0.0062     C
C      0.12263  0.15378  0.33763     C
C      0.12263  0.96884  0.33763     C
N      0.12282  0.24563  0.33893     N
N      0.12282  0.87718  0.33893     N
C      0.12283  0.06142  0.66327     C
H      0.13403  0.14387  0.66287     H
H      0.13403  0.99017  0.66287     H
H      0.14107  0.43123  0.32543     H
H      0.14107  0.70983  0.32543     H
H      0.14387  0.00983  0.33713     H
H      0.14387  0.13403  0.33713     H
C      0.15135  0.21475  0.33953     C
C      0.15135  0.93659  0.33953     C
C      0.15378  0.03116  0.66237     C
C      0.15378  0.12263  0.66237     C
Fe     0.16667  0.33333  0.33333    Fe
Fe     0.16667  0.83333  0.33333    Fe
C      0.17955  0.54404   0.0043     C
C      0.17955  0.63551   0.0043     C
C      0.18199  0.45191  0.32713     C
C      0.18199  0.73007  0.32713     C
H      0.18947  0.53263  0.32953     H
H      0.18947  0.65683  0.32953     H
H      0.19227  0.23543  0.34123     H
H      0.19227  0.95683  0.34123     H
H       0.1993   0.5228   0.0038     H
H       0.1993   0.6765   0.0038     H
C       0.2105  0.60525   0.0034     C
N      0.21052  0.42103  0.32773     N
N      0.21052  0.78948  0.32773     N
C      0.21071  0.51288  0.32903     C
C      0.21071  0.69782  0.32903     C
C      0.21475  0.06341  0.66047     C
C      0.21475  0.15135  0.66047     C
N      0.21946  0.33178  0.19203     N
N      0.21946  0.88767  0.19203     N
N      0.22101  0.33488  0.47463     N
N      0.22101  0.88612  0.47463     N
H      0.23543  0.04317  0.65877     H
H      0.23543  0.19227  0.65877     H
N      0.24563  0.12282  0.66107     N
C      0.25197  0.32673  0.11923     C
C      0.25197  0.92523  0.11923     C
C      0.25857  0.33993  0.54743     C
C      0.25857  0.91863  0.54743     C
C      0.26993  0.45191  0.32713     C
C      0.26993  0.81801  0.32713     C
C      0.27192  0.54383  0.32993     C
C      0.27192  0.72808  0.32993     C
N      0.27257  0.63628  0.33233     N
C       0.2761  0.63805   0.0004     C
H      0.29017  0.43123  0.32543     H
H      0.29017  0.85893  0.32543     H
Ag     0.29928      0.0      0.0    Ag
Ag     0.29928  0.29928      0.0    Ag
C      0.30218  0.51288  0.32903     C
C      0.30218  0.78929  0.32903     C
N      0.30295   0.6059    0.001     N
N      0.30295  0.69705    0.001     N
C      0.30472  0.60943  0.33293     C
C      0.30472  0.69528  0.33293     C
H       0.3235   0.5228   0.0038     H
H       0.3235   0.8007   0.0038     H
C      0.32673  0.07477  0.88077     C
C      0.32673  0.25197  0.88077     C
N      0.33178  0.11233  0.80797     N
N      0.33178  0.21946  0.80797     N
Fe     0.33333  0.16667  0.66667    Fe
Ag     0.33333  0.36739  0.66667    Ag
Ag     0.33333  0.96595  0.66667    Ag
N      0.33488  0.11388  0.52537     N
N      0.33488  0.22101  0.52537     N
C      0.33993  0.08137  0.45257     C
C      0.33993  0.25857  0.45257     C
H      0.34317  0.53263  0.32953     H
H      0.34317  0.81053  0.32953     H
C      0.36195  0.63805   0.0004     C
C      0.36195   0.7239   0.0004     C
N      0.36372  0.63628  0.33233     N
N      0.36372  0.72743  0.33233     N
C      0.36449  0.54404   0.0043     C
C      0.36449  0.82045   0.0043     C
Ag     0.36739  0.03405  0.33333    Ag
Ag     0.36739  0.33333  0.33333    Ag
H       0.3765   0.4744   0.0079     H
H       0.3765   0.9021   0.0079     H
C      0.39057  0.69528  0.33293     C
N       0.3941  0.69705    0.001     N
C      0.39475  0.60525   0.0034     C
C      0.39475   0.7895   0.0034     C
C      0.39674  0.51532   0.0062     C
C      0.39674  0.88142   0.0062     C
C       0.4081   0.4147   0.7859     C
C       0.4081   0.9934   0.7859     C
C       0.4147   0.0066   0.2141     C
C       0.4147   0.4081   0.2141     C
N      0.42103  0.21052  0.67227     N
H      0.43123  0.14107  0.67457     H
H      0.43123  0.29017  0.67457     H
N      0.44566  0.44721   0.8587     N
N      0.44566  0.99845   0.8587     N
N      0.44721  0.00155   0.1413     N
N      0.44721  0.44566   0.1413     N
C      0.45191  0.18199  0.67287     C
C      0.45191  0.26993  0.67287     C
C      0.45596  0.63551   0.0043     C
C      0.45596  0.82045   0.0043     C
N      0.45615  0.54385   0.0056     N
N      0.45615   0.9123   0.0056     N
C      0.45617  0.72808  0.32993     C
H      0.46737  0.65683  0.32953     H
H      0.46737  0.81053  0.32953     H
H       0.4744   0.0979   0.9921     H
H       0.4744   0.3765   0.9921     H
H       0.4772   0.6765   0.0038     H
H       0.4772   0.8007   0.0038     H
C      0.48468  0.60326   0.0062     C
C      0.48468  0.88142   0.0062     C
C      0.48712  0.69782  0.32903     C
C      0.48712  0.78929  0.32903     C
Fe         0.5      0.0      0.0    Fe
Fe         0.5      0.5      0.0    Fe
C      0.51288  0.21071  0.67097     C
C      0.51288  0.30218  0.67097     C
C      0.51532  0.11858   0.9938     C
C      0.51532  0.39674   0.9938     C
H       0.5228   0.1993   0.9962     H
H       0.5228   0.3235   0.9962     H
H       0.5256   0.6235   0.0079     H
H       0.5256   0.9021   0.0079     H
H      0.53263  0.18947  0.67047     H
H      0.53263  0.34317  0.67047     H
C      0.54383  0.27192  0.67007     C
N      0.54385   0.0877   0.9944     N
N      0.54385  0.45615   0.9944     N
C      0.54404  0.17955   0.9957     C
C      0.54404  0.36449   0.9957     C
C      0.54809  0.73007  0.32713     C
C      0.54809  0.81801  0.32713     C
N      0.55279  0.55434   0.8587     N
N      0.55279  0.99845   0.8587     N
N      0.55434  0.00155   0.1413     N
N      0.55434  0.55279   0.1413     N
H      0.56877  0.70983  0.32543     H
H      0.56877  0.85893  0.32543     H
N      0.57897  0.78948  0.32773     N
C       0.5853   0.5919   0.7859     C
C       0.5853   0.9934   0.7859     C
C       0.5919   0.0066   0.2141     C
C       0.5919   0.5853   0.2141     C
C      0.60326  0.11858   0.9938     C
C      0.60326  0.48468   0.9938     C
C      0.60525   0.2105   0.9966     C
C      0.60525  0.39475   0.9966     C
N       0.6059  0.30295    0.999     N
C      0.60943  0.30472  0.66707     C
H       0.6235   0.0979   0.9921     H
H       0.6235   0.5256   0.9921     H
Ag     0.63261  0.66667  0.66667    Ag
Ag     0.63261  0.96595  0.66667    Ag
C      0.63551  0.17955   0.9957     C
C      0.63551  0.45596   0.9957     C
N      0.63628  0.27257  0.66767     N
N      0.63628  0.36372  0.66767     N
C      0.63805   0.2761   0.9996     C
C      0.63805  0.36195   0.9996     C
H      0.65683  0.18947  0.67047     H
H      0.65683  0.46737  0.67047     H
C      0.66007  0.74143  0.54743     C
C      0.66007  0.91863  0.54743     C
N      0.66512  0.77899  0.47463     N
N      0.66512  0.88612  0.47463     N
Ag     0.66667  0.03405  0.33333    Ag
Ag     0.66667  0.63261  0.33333    Ag
Fe     0.66667  0.83333  0.33333    Fe
N      0.66822  0.78054  0.19203     N
N      0.66822  0.88767  0.19203     N
C      0.67327  0.74803  0.11923     C
C      0.67327  0.92523  0.11923     C
H       0.6765   0.1993   0.9962     H
H       0.6765   0.4772   0.9962     H
C      0.69528  0.30472  0.66707     C
C      0.69528  0.39057  0.66707     C
N      0.69705  0.30295    0.999     N
N      0.69705   0.3941    0.999     N
C      0.69782  0.21071  0.67097     C
C      0.69782  0.48712  0.67097     C
Ag     0.70072      0.0      0.0    Ag
Ag     0.70072  0.70072      0.0    Ag
H      0.70983  0.14107  0.67457     H
H      0.70983  0.56877  0.67457     H
C       0.7239  0.36195   0.9996     C
N      0.72743  0.36372  0.66767     N
C      0.72808  0.27192  0.67007     C
C      0.72808  0.45617  0.67007     C
C      0.73007  0.18199  0.67287     C
C      0.73007  0.54809  0.67287     C
C      0.74143  0.08137  0.45257     C
C      0.74143  0.66007  0.45257     C
C      0.74803  0.07477  0.88077     C
C      0.74803  0.67327  0.88077     C
N      0.75437  0.87718  0.33893     N
H      0.76457  0.80773  0.34123     H
H      0.76457  0.95683  0.34123     H
N      0.77899  0.11388  0.52537     N
N      0.77899  0.66512  0.52537     N
N      0.78054  0.11233  0.80797     N
N      0.78054  0.66822  0.80797     N
C      0.78525  0.84865  0.33953     C
C      0.78525  0.93659  0.33953     C
C      0.78929  0.30218  0.67097     C
C      0.78929  0.48712  0.67097     C
N      0.78948  0.21052  0.67227     N
N      0.78948  0.57897  0.67227     N
C       0.7895  0.39475   0.9966     C
H       0.8007   0.3235   0.9962     H
H       0.8007   0.4772   0.9962     H
H      0.80773  0.04317  0.65877     H
H      0.80773  0.76457  0.65877     H
H      0.81053  0.34317  0.67047     H
H      0.81053  0.46737  0.67047     H
C      0.81801  0.26993  0.67287     C
C      0.81801  0.54809  0.67287     C
C      0.82045  0.36449   0.9957     C
C      0.82045  0.45596   0.9957     C
Fe     0.83333  0.16667  0.66667    Fe
Fe     0.83333  0.66667  0.66667    Fe
C      0.84622  0.87737  0.33763     C
C      0.84622  0.96884  0.33763     C
C      0.84865  0.06341  0.66047     C
C      0.84865  0.78525  0.66047     C
H      0.85613  0.86597  0.66287     H
H      0.85613  0.99017  0.66287     H
H      0.85893  0.29017  0.67457     H
H      0.85893  0.56877  0.67457     H
H      0.86597  0.00983  0.33713     H
H      0.86597  0.85613  0.33713     H
C      0.87717  0.93858  0.33673     C
N      0.87718  0.12282  0.66107     N
N      0.87718  0.75437  0.66107     N
C      0.87737  0.03116  0.66237     C
C      0.87737  0.84622  0.66237     C
C      0.88142  0.39674   0.9938     C
C      0.88142  0.48468   0.9938     C
N      0.88612  0.22101  0.52537     N
N      0.88612  0.66512  0.52537     N
N      0.88767  0.21946  0.80797     N
N      0.88767  0.66822  0.80797     N
H       0.9021   0.3765   0.9921     H
H       0.9021   0.5256   0.9921     H
N       0.9123  0.45615   0.9944     N
C      0.91863  0.25857  0.45257     C
C      0.91863  0.66007  0.45257     C
C      0.92523  0.25197  0.88077     C
C      0.92523  0.67327  0.88077     C
C      0.93659  0.15135  0.66047     C
C      0.93659  0.78525  0.66047     C
C      0.93858  0.06142  0.66327     C
C      0.93858  0.87717  0.66327     C
N      0.93923  0.96962  0.66567     N
C      0.94277  0.97138  0.33373     C
H      0.95683  0.19227  0.65877     H
H      0.95683  0.76457  0.65877     H
Ag     0.96595  0.33333  0.33333    Ag
Ag     0.96595  0.63261  0.33333    Ag
C      0.96884  0.12263  0.66237     C
C      0.96884  0.84622  0.66237     C
N      0.96962  0.03038  0.33433     N
N      0.96962  0.93923  0.33433     N
C      0.97138  0.02862  0.66627     C
C      0.97138  0.94277  0.66627     C
H      0.99017  0.13403  0.33713     H
H      0.99017  0.85613  0.33713     H
C       0.9934   0.4081   0.2141     C
C       0.9934   0.5853   0.2141     C
N      0.99845  0.44566   0.1413     N
N      0.99845  0.55279   0.1413     N
