data_I
_chemical_name_common  '/home/zhangsd/repos/MofS-CGCNN/ML/data/SSD/clean_cifs/YOZYOD_clean'
_cell_length_a 16.64600
_cell_length_b 18.34500
_cell_length_c 16.30900
_cell_angle_alpha 90.00000
_cell_angle_beta  108.89300
_cell_angle_gamma 90.00000
_space_group_name_H-M_alt      'P 1'


loop_
_space_group_symop_operation_xyz
  'x, y, z' 

loop_
_atom_site_label
_atom_site_fract_x
_atom_site_fract_y
_atom_site_fract_z
_atom_site_type_symbol
O       0.0105  0.23439   0.3497     O
O       0.0105  0.76561   0.8497     O
C       0.0151     0.36   0.3813     C
C       0.0151     0.64   0.8813     C
C       0.0302   0.4886   0.4079     C
C       0.0302   0.5114   0.9079     C
O       0.0436    0.077   0.1766     O
O       0.0436    0.923   0.6766     O
C       0.0527   0.4983   0.1447     C
C       0.0527   0.5017   0.6447     C
C       0.0528   0.2844   0.3938     C
C       0.0528   0.7156   0.8938     C
O       0.0535   0.3839   0.9272     O
O       0.0535   0.6161   0.4272     O
Zn      0.0595  0.13772  0.36451    Zn
Zn      0.0595  0.86228  0.86451    Zn
C       0.0634   0.4189   0.4232     C
C       0.0634   0.5811   0.9232     C
C       0.0662   0.3715    0.176     C
C       0.0662   0.6285    0.676     C
H       0.0758    0.455   0.6516     H
H       0.0758    0.545   0.1516     H
C       0.0812   0.4455   0.9444     C
C       0.0812   0.5545   0.4444     C
H       0.0961   0.0085    0.594     H
H       0.0961   0.9915    0.094     H
H       0.0967   0.3324   0.2073     H
H       0.0967   0.6676   0.7073     H
O       0.0969  0.09731   0.4812     O
O       0.0969  0.90269   0.9812     O
C       0.1026   0.4407   0.1874     C
C       0.1026   0.5593   0.6874     C
C       0.1128   0.0668   0.2353     C
C       0.1128   0.9332   0.7353     C
H        0.118   0.4116   0.4614     H
H        0.118   0.5884   0.9614     H
O       0.1217   0.2752   0.4492     O
O       0.1217   0.7248   0.9492     O
O       0.1358  0.09608   0.3085     O
O       0.1358  0.90392   0.8085     O
C       0.1488   0.0188   0.6342     C
C       0.1488   0.9812   0.1342     C
O       0.1587   0.4596    0.995     O
O       0.1587   0.5404    0.495     O
C       0.1737   0.0158   0.2143     C
C       0.1737   0.9842   0.7143     C
C       0.1745   0.1052   0.5274     C
C       0.1745   0.8948   0.0274     C
H       0.1826   0.3853   0.3426     H
H       0.1826   0.6147   0.8426     H
H       0.1859   0.4215   0.0063     H
H       0.1859   0.5785   0.5063     H
C       0.1908    0.453   0.2467     C
C       0.1908    0.547   0.7467     C
C       0.2015   0.0682   0.6141     C
C       0.2015   0.9318   0.1141     C
C       0.2184    0.418   0.3279     C
C       0.2184    0.582   0.8279     C
O       0.2264  0.14091   0.5046     O
O       0.2264  0.85909   0.0046     O
H       0.2298    0.474   0.6725     H
H       0.2298    0.526   0.1725     H
C       0.2464   0.4975   0.7259     C
C       0.2464   0.5025   0.2259     C
Zn        0.25     0.25      0.5    Zn
Zn        0.25     0.75      0.0    Zn
C       0.2536   0.0025   0.2741     C
C       0.2536   0.9975   0.7741     C
H       0.2702    0.026   0.3275     H
H       0.2702    0.974   0.8275     H
O       0.2736  0.35909   0.4954     O
O       0.2736  0.64091   0.9954     O
C       0.2816    0.082   0.6721     C
C       0.2816    0.918   0.1721     C
C       0.2985   0.4318   0.3859     C
C       0.2985   0.5682   0.8859     C
C       0.3092    0.047   0.7533     C
C       0.3092    0.953   0.2533     C
H       0.3141   0.0785   0.9937     H
H       0.3141   0.9215   0.4937     H
H       0.3174   0.1147   0.6574     H
H       0.3174   0.8853   0.1574     H
C       0.3255   0.3948   0.4726     C
C       0.3255   0.6052   0.9726     C
C       0.3263   0.4842   0.7857     C
C       0.3263   0.5158   0.2857     C
O       0.3413   0.0404    0.005     O
O       0.3413   0.9596    0.505     O
C       0.3512   0.4812   0.3658     C
C       0.3512   0.5188   0.8658     C
O       0.3642  0.40392   0.6915     O
O       0.3642  0.59608   0.1915     O
O       0.3783   0.2248   0.5508     O
O       0.3783   0.7752   0.0508     O
H        0.382   0.0884   0.5386     H
H        0.382   0.9116   0.0386     H
C       0.3872   0.4332   0.7647     C
C       0.3872   0.5668   0.2647     C
C       0.3974   0.0593   0.8126     C
C       0.3974   0.9407   0.3126     C
O       0.4031  0.40269   0.5188     O
O       0.4031  0.59731   0.0188     O
H       0.4033   0.1676   0.7927     H
H       0.4033   0.8324   0.2927     H
H       0.4039   0.4915    0.406     H
H       0.4039   0.5085    0.906     H
C       0.4188   0.0545   0.0556     C
C       0.4188   0.9455   0.5556     C
H       0.4242    0.045   0.3484     H
H       0.4242    0.955   0.8484     H
C       0.4338   0.1285    0.824     C
C       0.4338   0.8715    0.324     C
C       0.4366   0.0811   0.5768     C
C       0.4366   0.9189   0.0768     C
Zn      0.4405  0.36228  0.63549    Zn
Zn      0.4405  0.63772  0.13549    Zn
O       0.4465   0.1161   0.0728     O
O       0.4465   0.8839   0.5728     O
C       0.4472   0.2156   0.6062     C
C       0.4472   0.7844   0.1062     C
C       0.4473   0.0017   0.8553     C
C       0.4473   0.9983   0.3553     C
O       0.4564    0.423   0.8234     O
O       0.4564    0.577   0.3234     O
C       0.4698   0.0114   0.5921     C
C       0.4698   0.9886   0.0921     C
C       0.4849     0.14   0.6187     C
C       0.4849     0.86   0.1187     C
O       0.4895  0.26561   0.6503     O
O       0.4895  0.73439   0.1503     O
O       0.5105  0.26561   0.8497     O
O       0.5105  0.73439   0.3497     O
C       0.5151     0.14   0.8813     C
C       0.5151     0.86   0.3813     C
C       0.5302   0.0114   0.9079     C
C       0.5302   0.9886   0.4079     C
O       0.5436    0.423   0.6766     O
O       0.5436    0.577   0.1766     O
C       0.5527   0.0017   0.6447     C
C       0.5527   0.9983   0.1447     C
C       0.5528   0.2156   0.8938     C
C       0.5528   0.7844   0.3938     C
O       0.5535   0.1161   0.4272     O
O       0.5535   0.8839   0.9272     O
Zn      0.5595  0.36228  0.86451    Zn
Zn      0.5595  0.63772  0.36451    Zn
C       0.5634   0.0811   0.9232     C
C       0.5634   0.9189   0.4232     C
C       0.5662   0.1285    0.676     C
C       0.5662   0.8715    0.176     C
H       0.5758    0.045   0.1516     H
H       0.5758    0.955   0.6516     H
C       0.5812   0.0545   0.4444     C
C       0.5812   0.9455   0.9444     C
H       0.5961   0.4915    0.094     H
H       0.5961   0.5085    0.594     H
H       0.5967   0.1676   0.7073     H
H       0.5967   0.8324   0.2073     H
O       0.5969  0.40269   0.9812     O
O       0.5969  0.59731   0.4812     O
C       0.6026   0.0593   0.6874     C
C       0.6026   0.9407   0.1874     C
C       0.6128   0.4332   0.7353     C
C       0.6128   0.5668   0.2353     C
H        0.618   0.0884   0.9614     H
H        0.618   0.9116   0.4614     H
O       0.6217   0.2248   0.9492     O
O       0.6217   0.7752   0.4492     O
O       0.6358  0.40392   0.8085     O
O       0.6358  0.59608   0.3085     O
C       0.6488   0.4812   0.1342     C
C       0.6488   0.5188   0.6342     C
O       0.6587   0.0404    0.495     O
O       0.6587   0.9596    0.995     O
C       0.6737   0.4842   0.7143     C
C       0.6737   0.5158   0.2143     C
C       0.6745   0.3948   0.0274     C
C       0.6745   0.6052   0.5274     C
H       0.6826   0.1147   0.8426     H
H       0.6826   0.8853   0.3426     H
H       0.6859   0.0785   0.5063     H
H       0.6859   0.9215   0.0063     H
C       0.6908    0.047   0.7467     C
C       0.6908    0.953   0.2467     C
C       0.7015   0.4318   0.1141     C
C       0.7015   0.5682   0.6141     C
C       0.7184    0.082   0.8279     C
C       0.7184    0.918   0.3279     C
O       0.7264  0.35909   0.0046     O
O       0.7264  0.64091   0.5046     O
H       0.7298    0.026   0.1725     H
H       0.7298    0.974   0.6725     H
C       0.7464   0.0025   0.2259     C
C       0.7464   0.9975   0.7259     C
Zn        0.75     0.25      0.0    Zn
Zn        0.75     0.75      0.5    Zn
C       0.7536   0.4975   0.7741     C
C       0.7536   0.5025   0.2741     C
H       0.7702    0.474   0.8275     H
H       0.7702    0.526   0.3275     H
O       0.7736  0.14091   0.9954     O
O       0.7736  0.85909   0.4954     O
C       0.7816    0.418   0.1721     C
C       0.7816    0.582   0.6721     C
C       0.7985   0.0682   0.8859     C
C       0.7985   0.9318   0.3859     C
C       0.8092    0.453   0.2533     C
C       0.8092    0.547   0.7533     C
H       0.8141   0.4215   0.4937     H
H       0.8141   0.5785   0.9937     H
H       0.8174   0.3853   0.1574     H
H       0.8174   0.6147   0.6574     H
C       0.8255   0.1052   0.9726     C
C       0.8255   0.8948   0.4726     C
C       0.8263   0.0158   0.2857     C
C       0.8263   0.9842   0.7857     C
O       0.8413   0.4596    0.505     O
O       0.8413   0.5404    0.005     O
C       0.8512   0.0188   0.8658     C
C       0.8512   0.9812   0.3658     C
O       0.8642  0.09608   0.1915     O
O       0.8642  0.90392   0.6915     O
O       0.8783   0.2752   0.0508     O
O       0.8783   0.7248   0.5508     O
H        0.882   0.4116   0.0386     H
H        0.882   0.5884   0.5386     H
C       0.8872   0.0668   0.2647     C
C       0.8872   0.9332   0.7647     C
C       0.8974   0.4407   0.3126     C
C       0.8974   0.5593   0.8126     C
O       0.9031  0.09731   0.0188     O
O       0.9031  0.90269   0.5188     O
H       0.9033   0.3324   0.2927     H
H       0.9033   0.6676   0.7927     H
H       0.9039   0.0085    0.906     H
H       0.9039   0.9915    0.406     H
C       0.9188   0.4455   0.5556     C
C       0.9188   0.5545   0.0556     C
H       0.9242    0.455   0.8484     H
H       0.9242    0.545   0.3484     H
C       0.9338   0.3715    0.324     C
C       0.9338   0.6285    0.824     C
C       0.9366   0.4189   0.0768     C
C       0.9366   0.5811   0.5768     C
Zn      0.9405  0.13772  0.13549    Zn
Zn      0.9405  0.86228  0.63549    Zn
O       0.9465   0.3839   0.5728     O
O       0.9465   0.6161   0.0728     O
C       0.9472   0.2844   0.1062     C
C       0.9472   0.7156   0.6062     C
C       0.9473   0.4983   0.3553     C
C       0.9473   0.5017   0.8553     C
O       0.9564    0.077   0.3234     O
O       0.9564    0.923   0.8234     O
C       0.9698   0.4886   0.0921     C
C       0.9698   0.5114   0.5921     C
C       0.9849     0.36   0.1187     C
C       0.9849     0.64   0.6187     C
O       0.9895  0.23439   0.1503     O
O       0.9895  0.76561   0.6503     O
