data_I
_chemical_name_common  '/home/zhangsd/repos/MofS-CGCNN/ML/data/SSD/clean_cifs/YUBFOR_clean'
_cell_length_a 11.34690
_cell_length_b 12.28710
_cell_length_c 12.28710
_cell_angle_alpha 69.03100
_cell_angle_beta  72.07160
_cell_angle_gamma 107.92800
_space_group_name_H-M_alt      'P 1'


loop_
_space_group_symop_operation_xyz
  'x, y, z' 

loop_
_atom_site_label
_atom_site_fract_x
_atom_site_fract_y
_atom_site_fract_z
_atom_site_type_symbol
H        0.018   0.5247   0.0986     H
C       0.0213   0.5461   0.8132     C
H       0.0321    0.626   0.8148     H
N       0.0352    0.497   0.3502     N
C       0.0736   0.4861   0.2436     C
H        0.085   0.7659   0.5015     H
H       0.1113   0.5579   0.7599     H
H       0.1166   0.0986   0.3767     H
H       0.1288   0.2401   0.3178     H
N       0.1513   0.5303   0.3706     N
Zn     0.15238  0.52701  0.53524    Zn
H       0.1531   0.1852   0.4408     H
C       0.1655   0.1868   0.3593     C
C       0.1762   0.8321   0.4288     C
H       0.1859   0.8243    0.352     H
H       0.1867   0.9181   0.4113     H
N       0.2087   0.5086   0.1941     N
C       0.2517   0.5373   0.2759     C
H       0.2686   0.6706   0.9181     H
C       0.2856   0.8132   0.4627     C
N       0.2999   0.7027   0.4914     N
Zn     0.31238  0.46476  0.06225    Zn
C       0.3172   0.2436   0.2703     C
H       0.3191   0.7326   0.7659     H
C       0.3441   0.7391   0.8321     C
H       0.3616   0.8237   0.8243     H
Zn     0.37463  0.06225  0.47299    Zn
N        0.379   0.9009   0.4697     N
N       0.3854   0.3502   0.1528     N
C        0.395   0.5712   0.2609     C
H        0.402   0.5887   0.3294     H
N       0.4028   0.1941   0.2973     N
H       0.4061   0.5592    0.626     H
C       0.4125   0.7297   0.5139     C
H       0.4135   0.4985   0.2674     H
H       0.4466   0.3178   0.4421     H
N       0.4618   0.8472    0.503     N
H       0.4621    0.648   0.1763     H
C       0.4724   0.7241   0.8132     C
C       0.4752   0.6407   0.5461     C
N       0.4781   0.6294   0.9009     N
H       0.4933   0.3767   0.5247     H
H       0.5067   0.6233   0.4753     H
N       0.5219   0.3706   0.0991     N
C       0.5248   0.3593   0.4539     C
C       0.5276   0.2759   0.1868     C
H       0.5379    0.352   0.8237     H
N       0.5382   0.1528    0.497     N
H       0.5534   0.6822   0.5579     H
H       0.5865   0.5015   0.7326     H
C       0.5875   0.2703   0.4861     C
H       0.5939   0.4408    0.374     H
N       0.5972   0.8059   0.7027     N
H        0.598   0.4113   0.6706     H
C        0.605   0.4288   0.7391     C
N       0.6146   0.6498   0.8472     N
N        0.621   0.0991   0.5303     N
Zn     0.62537  0.93775  0.52701    Zn
H       0.6384   0.1763   0.1757     H
C       0.6559   0.2609   0.1679     C
H       0.6809   0.2674   0.2341     H
C       0.6828   0.7564   0.7297     C
Zn     0.68762  0.53524  0.93775    Zn
N       0.7001   0.2973   0.5086     N
C       0.7144   0.1868   0.5373     C
H       0.7314   0.3294   0.0819     H
C       0.7483   0.4627   0.7241     C
N       0.7913   0.4914   0.8059     N
H       0.8133   0.0819   0.5887     H
H       0.8141   0.1757    0.648     H
C       0.8238   0.1679   0.5712     C
C       0.8345   0.8132   0.6407     C
H       0.8469   0.8148   0.5592     H
Zn     0.84762  0.47299  0.46476    Zn
N       0.8487   0.4697   0.6294     N
H       0.8712   0.7599   0.6822     H
H       0.8834   0.9014   0.6233     H
H       0.8887   0.4421   0.2401     H
H        0.915   0.2341   0.4985     H
C       0.9264   0.5139   0.7564     C
N       0.9648    0.503   0.6498     N
H       0.9679    0.374   0.1852     H
C       0.9787   0.4539   0.1868     C
H        0.982   0.4753   0.9014     H
