data_I
_chemical_name_common  '/home/zhangsd/repos/MofS-CGCNN/ML/data/SSD/clean_cifs/YUDFEK_clean'
_cell_length_a 13.13700
_cell_length_b 30.22700
_cell_length_c 23.32600
_cell_angle_alpha 90.00000
_cell_angle_beta  102.07500
_cell_angle_gamma 90.00000
_space_group_name_H-M_alt      'P 1'


loop_
_space_group_symop_operation_xyz
  'x, y, z' 

loop_
_atom_site_label
_atom_site_fract_x
_atom_site_fract_y
_atom_site_fract_z
_atom_site_type_symbol
C       0.0039  0.76547   0.6551     C
C       0.0066  0.07441   0.2583     C
C       0.0089  0.25559   0.1289     C
C       0.0094  0.59056   0.7683     C
C        0.016  0.45417   0.2331     C
H       0.0168   0.3054   0.0366     H
C       0.0182  0.96978   0.7368     C
H       0.0306   0.2045    0.453     H
O       0.0326   0.1864    0.554     O
C        0.035  0.78257    0.556     C
O        0.036  0.23902  0.17969     O
O       0.0375   0.3224   0.9328     O
O       0.0409  0.68051  0.78131     O
C       0.0415  0.33019   0.2532     C
C       0.0426  0.84741   0.7732     C
O        0.045  0.75889  0.70814     O
O       0.0473   0.1638  0.25136     O
N       0.0589  0.80581   0.4602     N
O       0.0612  0.96241   0.2892     O
N        0.063  0.00209   0.2984     N
C       0.0654   0.3792   0.2569     C
O       0.0655  0.47719   0.7819     O
C        0.067   0.8966   0.7711     C
N       0.0671  0.51593    0.797     N
C       0.0712  0.76344   0.6103     C
H       0.0732   0.0845   0.2748     H
C       0.0746  0.28683   0.0442     C
H        0.076      0.6   0.7859     H
O       0.0803  0.73056  0.89084     O
O       0.0834   0.7137   0.4296     O
C       0.0891  0.25763   0.0908     C
O       0.0905  0.22644  0.36222     O
C       0.0979  0.78218   0.5155     C
O       0.0983  0.56639    0.383     O
O       0.1065  0.09151   0.8752     O
O       0.1078   0.3058  0.28422     O
O       0.1121  0.02969   0.5961     O
C       0.1138  0.47063   0.2568     C
O       0.1156  0.82336  0.79895     O
C       0.1159  0.98737   0.7604     C
N       0.1193  0.53733   0.3519     N
O       0.1201  0.49848   0.3647     O
O       0.1225   0.8196   0.4336     O
O       0.1272  0.02336   0.8653     O
N       0.1273  0.31821   0.9586     N
O        0.128  0.02035   0.3362     O
N       0.1289  0.06035   0.8481     N
O       0.1304  0.52132  0.09922     O
O        0.132  0.53111   0.8369     O
O        0.135  0.21266  0.85435     O
O       0.1389  0.92145   0.1818     O
C       0.1405  0.51835   0.2511     C
O       0.1429   0.1988  0.94512     O
C       0.1437  0.03408   0.7487     C
C       0.1447  0.54981   0.2957     C
N       0.1454  0.01525   0.6451     N
C       0.1469  0.28815   0.0091     C
Gd      0.1497  0.22982  0.27143    Gd
O       0.1499   0.4448   0.6539     O
Gd     0.15075  0.74513  0.80085    Gd
C       0.1525  0.06826   0.7903     C
N       0.1545  0.50473   0.1477     N
C       0.1589  0.04752   0.6943     C
C       0.1597  0.53442   0.1986     C
C       0.1645  0.39416   0.2817     C
C       0.1648  0.91269   0.7956     C
C       0.1667   0.7424   0.6229     C
N       0.1686  0.70047   0.4241     N
O       0.1699    0.977   0.6562     O
C        0.172  0.59349   0.2894     C
C       0.1739  0.22949   0.1008     C
O       0.1741  0.46555  0.15668     O
O       0.1742  0.50604   0.6946     O
H       0.1755   0.6133   0.3203     H
N       0.1764  0.21591   0.9056     N
O       0.1769  0.98977   0.2021     O
H       0.1831   0.2092   0.1315     H
C       0.1841   0.1106   0.7798     C
C       0.1851  0.09021   0.6813     C
O       0.1853  0.66372   0.4082     O
C       0.1859  0.57787   0.1905     C
C       0.1879  0.95649     0.79     C
C       0.1887  0.43841   0.2807     C
H       0.1912   0.0976   0.6435     H
H       0.1913   0.7297   0.6594     H
H       0.1932   0.1317   0.8094     H
C       0.1942  0.60762   0.2366     C
C       0.1947  0.76091   0.5251     C
O       0.1979  0.33788   0.9447     O
H        0.198   0.5871   0.1544     H
N        0.202  0.95094   0.1988     N
C       0.2021  0.12144   0.7252     C
N       0.2059  0.47053   0.6826     N
H       0.2151   0.3741   0.2992     H
H       0.2153   0.8937    0.816     H
O       0.2239  0.69026  0.74132     O
C       0.2251  0.74072   0.5798     C
C       0.2306  0.65404   0.2292     C
C       0.2347  0.26117   0.0177     C
C       0.2419  0.16685   0.7149     C
O       0.2429  0.17871   0.6631     O
O       0.2444   0.6794  0.27305     O
C       0.2445  0.23193   0.0646     C
O       0.2499  0.66463  0.18078     O
O       0.2501  0.16463  0.31922     O
C       0.2555  0.73193   0.4354     C
O       0.2556   0.1794  0.22695     O
O       0.2571  0.67871   0.8369     O
C       0.2581  0.66685   0.7851     C
C       0.2653  0.76117   0.4823     C
C       0.2694  0.15404   0.2708     C
C       0.2749  0.24072   0.9202     C
O       0.2761  0.19026  0.75868     O
H       0.2847   0.3937    0.684     H
H       0.2849   0.8741   0.2008     H
N       0.2941  0.97053   0.8174     N
C       0.2979  0.62144   0.7748     C
N        0.298  0.45094   0.3012     N
H        0.302   0.0871   0.3456     H
O       0.3021  0.83788   0.5553     O
C       0.3053  0.26091   0.9749     C
C       0.3058  0.10762   0.2634     C
H       0.3068   0.6317   0.6906     H
H       0.3087   0.2297   0.8406     H
H       0.3088   0.5976   0.8565     H
C       0.3113  0.93841   0.2193     C
C       0.3121  0.45649     0.71     C
C       0.3141  0.07787   0.3095     C
O       0.3147  0.16372   0.0918     O
C       0.3149  0.59021   0.8187     C
C       0.3159   0.6106   0.7202     C
H       0.3169   0.7092   0.3685     H
O       0.3231  0.48977   0.2979     O
N       0.3236  0.71591   0.5944     N
H       0.3245   0.1133   0.1797     H
O       0.3258  0.00604   0.8054     O
O       0.3259  0.96555  0.34332     O
C       0.3261  0.72949   0.3992     C
C        0.328  0.09349   0.2106     C
O       0.3301    0.477   0.8438     O
N       0.3314  0.20047   0.0759     N
C       0.3333   0.2424   0.8771     C
C       0.3352  0.41269   0.7044     C
C       0.3355  0.89416   0.2183     C
C       0.3403  0.03442   0.3014     C
C       0.3411  0.54752   0.8057     C
N       0.3455  0.00473   0.3523     N
C       0.3475  0.56826   0.7097     C
Gd     0.34925  0.24513  0.69915    Gd
O       0.3501   0.9448   0.8461     O
Gd      0.3503  0.72982  0.22857    Gd
C       0.3531  0.78815   0.4909     C
N       0.3546  0.51525   0.8549     N
C       0.3553  0.04981   0.2043     C
C       0.3563  0.53408   0.7513     C
O       0.3571   0.6988  0.55488     O
C       0.3595  0.01835   0.2489     C
O       0.3611  0.42145   0.3182     O
O        0.365  0.71266  0.64565     O
O        0.368  0.03111   0.6631     O
O       0.3696  0.02132  0.40078     O
N       0.3711  0.56035   0.6519     N
O        0.372  0.52035   0.1638     O
N       0.3727  0.81821   0.5414     N
O       0.3728  0.52336   0.6347     O
O       0.3775   0.3196   0.0664     O
O       0.3799  0.99848   0.1353     O
N       0.3807  0.03733   0.1481     N
C       0.3841  0.48737   0.7396     C
O       0.3844  0.32336  0.70105     O
C       0.3862  0.97063   0.2432     C
O       0.3879  0.52969   0.9039     O
O       0.3922   0.8058  0.21578     O
O       0.3935  0.59151   0.6248     O
O       0.4017  0.06639    0.117     O
C       0.4021  0.28218   0.9845     C
O       0.4095  0.72644  0.13778     O
C       0.4109  0.75763   0.4092     C
O       0.4166   0.2137   0.0704     O
O       0.4197  0.23056  0.60916     O
H        0.424      0.1   0.7141     H
C       0.4254  0.78683   0.4558     C
H       0.4268   0.5845   0.2252     H
C       0.4288  0.26344   0.8897     C
N       0.4329  0.01593    0.703     N
C        0.433   0.3966   0.7289     C
O       0.4345  0.97719   0.7181     O
C       0.4346   0.8792   0.2431     C
N        0.437  0.50209   0.2016     N
O       0.4388  0.46241   0.2108     O
N       0.4411  0.30581   0.0398     N
O       0.4527   0.6638  0.24864     O
O        0.455  0.25889  0.79186     O
C       0.4574  0.34741   0.7268     C
C       0.4585  0.83019   0.2468     C
O       0.4591  0.18051  0.71869     O
O       0.4625   0.8224   0.5672     O
O        0.464  0.73902  0.32031     O
C        0.465  0.28257    0.944     C
O       0.4674   0.6864    0.946     O
H       0.4694   0.7045    0.047     H
C       0.4818  0.46978   0.7632     C
H       0.4832   0.8054   0.4634     H
C        0.484  0.95417   0.2669     C
C       0.4906  0.09056   0.7317     C
C       0.4911  0.75559   0.3711     C
C       0.4934  0.57441   0.2417     C
C       0.4961  0.26547   0.8449     C
C       0.5039  0.73453   0.1551     C
C       0.5066  0.42559   0.7583     C
C       0.5089  0.24441   0.6289     C
C       0.5094  0.90944   0.2683     C
C        0.516  0.04583   0.7331     C
H       0.5168   0.1946   0.5366     H
C       0.5182  0.53022   0.2368     C
H       0.5306   0.2955    0.953     H
O       0.5326   0.3136    0.054     O
C        0.535  0.71743    0.056     C
O        0.536  0.26098  0.67969     O
O       0.5375   0.1776   0.4328     O
O       0.5409  0.81949  0.28131     O
C       0.5415  0.16981   0.7532     C
C       0.5426  0.65259   0.2732     C
O        0.545  0.74111  0.20814     O
O       0.5473   0.3362  0.75136     O
N       0.5589  0.69419   0.9602     N
O       0.5612  0.53759   0.7892     O
N        0.563  0.49791   0.7984     N
C       0.5654   0.1208   0.7569     C
O       0.5655  0.02281   0.2819     O
C        0.567   0.6034   0.2711     C
N       0.5671  0.98407    0.297     N
C       0.5712  0.73656   0.1103     C
H       0.5732   0.4155   0.7748     H
C       0.5746  0.21317   0.5442     C
H        0.576      0.9   0.2859     H
O       0.5803  0.76944  0.39084     O
O       0.5834   0.7863   0.9296     O
C       0.5891  0.24237   0.5908     C
O       0.5905  0.27356  0.86222     O
C       0.5979  0.71782   0.0155     C
O       0.5983  0.93361    0.883     O
O       0.6065  0.40849   0.3752     O
O       0.6078   0.1942  0.78422     O
O       0.6121  0.47031   0.0961     O
C       0.6138  0.02937   0.7568     C
O       0.6156  0.67664  0.29895     O
C       0.6159  0.51263   0.2604     C
N       0.6193  0.96267   0.8519     N
O       0.6201  0.00152   0.8647     O
O       0.6225   0.6804   0.9336     O
O       0.6272  0.47664   0.3653     O
N       0.6273  0.18179   0.4586     N
O        0.628  0.47965   0.8362     O
N       0.6289  0.43965   0.3481     N
O       0.6304  0.97868  0.59922     O
O        0.632  0.96889   0.3369     O
O        0.635  0.28734  0.35435     O
O       0.6389  0.57855   0.6818     O
C       0.6405  0.98165   0.7511     C
O       0.6429   0.3012  0.44512     O
C       0.6437  0.46592   0.2487     C
C       0.6447  0.95019   0.7957     C
N       0.6454  0.48475   0.1451     N
C       0.6469  0.21185   0.5091     C
Gd      0.6497  0.27018  0.77143    Gd
O       0.6499   0.0552   0.1539     O
Gd     0.65075  0.75487  0.30085    Gd
C       0.6525  0.43174   0.2903     C
N       0.6545  0.99527   0.6477     N
C       0.6589  0.45248   0.1943     C
C       0.6597  0.96558   0.6986     C
C       0.6645  0.10584   0.7817     C
C       0.6648  0.58731   0.2956     C
C       0.6667   0.7576   0.1229     C
N       0.6686  0.79953   0.9241     N
O       0.6699    0.523   0.1562     O
C        0.672  0.90651   0.7894     C
C       0.6739  0.27051   0.6008     C
O       0.6741  0.03445  0.65668     O
O       0.6742  0.99396   0.1946     O
H       0.6755   0.8867   0.8203     H
N       0.6764  0.28409   0.4056     N
O       0.6769  0.51023   0.7021     O
H       0.6831   0.2908   0.6315     H
C       0.6841   0.3894   0.2798     C
C       0.6851  0.40979   0.1813     C
O       0.6853  0.83628   0.9082     O
C       0.6859  0.92213   0.6905     C
C       0.6879  0.54351     0.29     C
C       0.6887  0.06159   0.7807     C
H       0.6912   0.4024   0.1435     H
H       0.6913   0.7703   0.1594     H
H       0.6932   0.3683   0.3094     H
C       0.6942  0.89238   0.7366     C
C       0.6947  0.73909   0.0251     C
O       0.6979  0.16212   0.4447     O
H        0.698   0.9129   0.6544     H
N        0.702  0.54906   0.6988     N
C       0.7021  0.37856   0.2252     C
N       0.7059  0.02947   0.1826     N
H       0.7151   0.1259   0.7992     H
H       0.7153   0.6063    0.316     H
O       0.7239  0.80974  0.24132     O
C       0.7251  0.75928   0.0798     C
C       0.7306  0.84596   0.7292     C
C       0.7347  0.23883   0.5177     C
C       0.7419  0.33315   0.2149     C
O       0.7429  0.32129   0.1631     O
O       0.7444   0.8206  0.77305     O
C       0.7445  0.26807   0.5646     C
O       0.7499  0.83537  0.68078     O
O       0.7501  0.33537  0.81922     O
C       0.7555  0.76807   0.9354     C
O       0.7556   0.3206  0.72695     O
O       0.7571  0.82129   0.3369     O
C       0.7581  0.83315   0.2851     C
C       0.7653  0.73883   0.9823     C
C       0.7694  0.34596   0.7708     C
C       0.7749  0.25928   0.4202     C
O       0.7761  0.30974  0.25868     O
H       0.7847   0.1063    0.184     H
H       0.7849   0.6259   0.7008     H
N       0.7941  0.52947   0.3174     N
C       0.7979  0.87856   0.2748     C
N        0.798  0.04906   0.8012     N
H        0.802   0.4129   0.8456     H
O       0.8021  0.66212   0.0553     O
C       0.8053  0.23909   0.4749     C
C       0.8058  0.39238   0.7634     C
H       0.8068   0.8683   0.1906     H
H       0.8087   0.2703   0.3406     H
H       0.8088   0.9024   0.3565     H
C       0.8113  0.56159   0.7193     C
C       0.8121  0.04351     0.21     C
C       0.8141  0.42213   0.8095     C
O       0.8147  0.33628   0.5918     O
C       0.8149  0.90979   0.3187     C
C       0.8159   0.8894   0.2202     C
H       0.8169   0.7908   0.8685     H
O       0.8231  0.01023   0.7979     O
N       0.8236  0.78409   0.0944     N
H       0.8245   0.3867   0.6797     H
O       0.8258  0.49396   0.3054     O
O       0.8259  0.53445  0.84332     O
C       0.8261  0.77051   0.8992     C
C        0.828  0.40651   0.7106     C
O       0.8301    0.023   0.3438     O
N       0.8314  0.29953   0.5759     N
C       0.8333   0.2576   0.3771     C
C       0.8352  0.08731   0.2044     C
C       0.8355  0.60584   0.7183     C
C       0.8403  0.46558   0.8014     C
C       0.8411  0.95248   0.3057     C
N       0.8455  0.49527   0.8523     N
C       0.8475  0.93174   0.2097     C
Gd     0.84925  0.25487  0.19915    Gd
O       0.8501   0.5552   0.3461     O
Gd      0.8503  0.77018  0.72857    Gd
C       0.8531  0.71185   0.9909     C
N       0.8546  0.98475   0.3549     N
C       0.8553  0.45019   0.7043     C
C       0.8563  0.96592   0.2513     C
O       0.8571   0.8012  0.05488     O
C       0.8595  0.48165   0.7489     C
O       0.8611  0.07855   0.8182     O
O        0.865  0.78734  0.14565     O
O        0.868  0.46889   0.1631     O
O       0.8696  0.47868  0.90078     O
N       0.8711  0.93965   0.1519     N
O        0.872  0.97965   0.6638     O
N       0.8727  0.68179   0.0414     N
O       0.8728  0.97664   0.1347     O
O       0.8775   0.1804   0.5664     O
O       0.8799  0.50152   0.6353     O
N       0.8807  0.46267   0.6481     N
C       0.8841  0.01263   0.2396     C
O       0.8844  0.17664  0.20105     O
C       0.8862  0.52937   0.7432     C
O       0.8879  0.97031   0.4039     O
O       0.8922   0.6942  0.71578     O
O       0.8935  0.90849   0.1248     O
O       0.9017  0.43361    0.617     O
C       0.9021  0.21782   0.4845     C
O       0.9095  0.77356  0.63778     O
C       0.9109  0.74237   0.9092     C
O       0.9166   0.2863   0.5704     O
O       0.9197  0.26944  0.10916     O
H        0.924      0.4   0.2141     H
C       0.9254  0.71317   0.9558     C
H       0.9268   0.9155   0.7252     H
C       0.9288  0.23656   0.3897     C
N       0.9329  0.48407    0.203     N
C        0.933   0.1034   0.2289     C
O       0.9345  0.52281   0.2181     O
C       0.9346   0.6208   0.7431     C
N        0.937  0.99791   0.7016     N
O       0.9388  0.03759   0.7108     O
N       0.9411  0.19419   0.5398     N
O       0.9527   0.8362  0.74864     O
O        0.955  0.24111  0.29186     O
C       0.9574  0.15259   0.2268     C
C       0.9585  0.66981   0.7468     C
O       0.9591  0.31949  0.21869     O
O       0.9625   0.6776   0.0672     O
O        0.964  0.76098  0.82031     O
C        0.965  0.21743    0.444     C
O       0.9674   0.8136    0.446     O
H       0.9694   0.7955    0.547     H
C       0.9818  0.03022   0.2632     C
H       0.9832   0.6946   0.9634     H
C        0.984  0.54583   0.7669     C
C       0.9906  0.40944   0.2317     C
C       0.9911  0.74441   0.8711     C
C       0.9934  0.92559   0.7417     C
C       0.9961  0.23453   0.3449     C
