data_I
_chemical_name_common  '/home/zhangsd/repos/MofS-CGCNN/ML/data/SSD/clean_cifs/YUPSIM_clean'
_cell_length_a  8.57850
_cell_length_b 13.82360
_cell_length_c 31.93220
_cell_angle_alpha 90.00000
_cell_angle_beta  90.00000
_cell_angle_gamma 90.00000
_space_group_name_H-M_alt      'P 1'


loop_
_space_group_symop_operation_xyz
  'x, y, z' 

loop_
_atom_site_label
_atom_site_fract_x
_atom_site_fract_y
_atom_site_fract_z
_atom_site_type_symbol
O         0.02   0.7214  0.04201     O
O         0.02   0.7214  0.45799     O
C        0.023   0.3642  0.03585     C
C        0.023   0.3642  0.46415     C
H       0.0333   0.4801   0.6099     H
H       0.0333   0.4801   0.8901     H
N       0.0417   0.0274   0.6618     N
N       0.0417   0.0274   0.8382     N
C       0.0458    0.413  0.07248     C
C       0.0458    0.413  0.42752     C
O       0.0463   0.9614   0.6887     O
O       0.0463   0.9614   0.8113     O
C       0.0517   0.5136  0.58519     C
C       0.0517   0.5136  0.91481     C
O       0.0599   0.9097   0.1637     O
O       0.0599   0.9097   0.3363     O
C       0.0637   0.3898   0.7127     C
C       0.0637   0.3898   0.7873     C
O       0.0658   0.9287  0.06351     O
O       0.0658   0.9287  0.43649     O
Pr     0.07896  0.20127  0.60343    Pr
Pr     0.07896  0.20127  0.89657    Pr
O       0.0802     0.68  0.13846     O
O       0.0802     0.68  0.36154     O
C       0.0804   0.6578  0.21259     C
C       0.0804   0.6578  0.28741     C
H       0.0903   0.3145   0.0282     H
H       0.0903   0.3145   0.4718     H
C       0.1016   0.6109  0.50995     C
C       0.1016   0.6109  0.99005     C
H       0.1129   0.4052   0.6876     H
H       0.1129   0.4052   0.8124     H
C       0.1249   0.6618  0.03065     C
C       0.1249   0.6618  0.46935     C
C        0.131   0.4132     0.75     C
O       0.1466   0.0317  0.63437     O
O       0.1466   0.0317  0.86563     O
C       0.1525   0.6793     0.25     C
H       0.1571   0.3254   0.1106     H
H       0.1571   0.3254   0.3894     H
C       0.1583   0.6854   0.1725     C
C       0.1583   0.6854   0.3275     C
N       0.1775    0.383  0.09948     N
N       0.1775    0.383  0.40052     N
C       0.1785   0.4912  0.55992     C
C       0.1785   0.4912  0.94008     C
H       0.1794   0.9828   0.2267     H
H       0.1794   0.9828   0.2733     H
H       0.1905   0.4263   0.1198     H
H       0.1905   0.4263   0.3802     H
C       0.2024   0.5402  0.52253     C
C       0.2024   0.5402  0.97747     C
O       0.2035   0.2116  0.67348     O
O       0.2035   0.2116  0.82652     O
C       0.2075   0.9157  0.07328     C
C       0.2075   0.9157  0.42672     C
H       0.2121   0.0248   0.0059     H
H       0.2121   0.0248   0.4941     H
N       0.2222   0.9665     0.25     N
H       0.2359   0.8794   0.5842     H
H       0.2359   0.8794   0.9158     H
O       0.2429   0.6409  0.05194     O
O       0.2429   0.6409  0.44806     O
O       0.2474   0.8429  0.09505     O
O       0.2474   0.8429  0.40495     O
H       0.2497   0.2084     0.75     H
H       0.2503   0.7084     0.25     H
O       0.2526   0.3429  0.59505     O
O       0.2526   0.3429  0.90495     O
O       0.2571   0.1409  0.55194     O
O       0.2571   0.1409  0.94806     O
H       0.2641   0.3794   0.0842     H
H       0.2641   0.3794   0.4158     H
N       0.2778   0.4665     0.75     N
H       0.2879   0.5248   0.5059     H
H       0.2879   0.5248   0.9941     H
C       0.2925   0.4157  0.57328     C
C       0.2925   0.4157  0.92672     C
O       0.2965   0.7116  0.17348     O
O       0.2965   0.7116  0.32652     O
C       0.2976   0.0402  0.02253     C
C       0.2976   0.0402  0.47747     C
H       0.3095   0.9263   0.6198     H
H       0.3095   0.9263   0.8802     H
H       0.3206   0.4828   0.7267     H
H       0.3206   0.4828   0.7733     H
C       0.3215   0.9912  0.05992     C
C       0.3215   0.9912  0.44008     C
N       0.3225    0.883  0.59948     N
N       0.3225    0.883  0.90052     N
C       0.3417   0.1854   0.6725     C
C       0.3417   0.1854   0.8275     C
H       0.3429   0.8254   0.6106     H
H       0.3429   0.8254   0.8894     H
C       0.3475   0.1793     0.75     C
O       0.3534   0.5317  0.13437     O
O       0.3534   0.5317  0.36563     O
C        0.369   0.9132     0.25     C
C       0.3751   0.1618  0.53065     C
C       0.3751   0.1618  0.96935     C
H       0.3871   0.9052   0.1876     H
H       0.3871   0.9052   0.3124     H
C       0.3984   0.1109  0.00995     C
C       0.3984   0.1109  0.49005     C
H       0.4097   0.8145   0.5282     H
H       0.4097   0.8145   0.9718     H
C       0.4196   0.1578  0.71259     C
C       0.4196   0.1578  0.78741     C
O       0.4198     0.18  0.63846     O
O       0.4198     0.18  0.86154     O
Pr     0.42104  0.70127  0.10343    Pr
Pr     0.42104  0.70127  0.39657    Pr
O       0.4342   0.4287  0.56351     O
O       0.4342   0.4287  0.93649     O
C       0.4363   0.8898   0.2127     C
C       0.4363   0.8898   0.2873     C
O       0.4401   0.4097   0.6637     O
O       0.4401   0.4097   0.8363     O
C       0.4483   0.0136  0.08519     C
C       0.4483   0.0136  0.41481     C
O       0.4537   0.4614   0.1887     O
O       0.4537   0.4614   0.3113     O
C       0.4542    0.913  0.57248     C
C       0.4542    0.913  0.92752     C
N       0.4583   0.5274   0.1618     N
N       0.4583   0.5274   0.3382     N
H       0.4667   0.9801   0.1099     H
H       0.4667   0.9801   0.3901     H
C        0.477   0.8642  0.53585     C
C        0.477   0.8642  0.96415     C
O         0.48   0.2214  0.54201     O
O         0.48   0.2214  0.95799     O
O         0.52   0.7786  0.04201     O
O         0.52   0.7786  0.45799     O
C        0.523   0.1358  0.03585     C
C        0.523   0.1358  0.46415     C
H       0.5333   0.0199   0.6099     H
H       0.5333   0.0199   0.8901     H
N       0.5417   0.4726   0.6618     N
N       0.5417   0.4726   0.8382     N
C       0.5458    0.087  0.07248     C
C       0.5458    0.087  0.42752     C
O       0.5463   0.5386   0.6887     O
O       0.5463   0.5386   0.8113     O
C       0.5517   0.9864  0.58519     C
C       0.5517   0.9864  0.91481     C
O       0.5599   0.5903   0.1637     O
O       0.5599   0.5903   0.3363     O
C       0.5637   0.1102   0.7127     C
C       0.5637   0.1102   0.7873     C
O       0.5658   0.5713  0.06351     O
O       0.5658   0.5713  0.43649     O
Pr     0.57896  0.29873  0.60343    Pr
Pr     0.57896  0.29873  0.89657    Pr
O       0.5802     0.82  0.13846     O
O       0.5802     0.82  0.36154     O
C       0.5804   0.8422  0.21259     C
C       0.5804   0.8422  0.28741     C
H       0.5903   0.1855   0.0282     H
H       0.5903   0.1855   0.4718     H
C       0.6016   0.8891  0.50995     C
C       0.6016   0.8891  0.99005     C
H       0.6129   0.0948   0.6876     H
H       0.6129   0.0948   0.8124     H
C       0.6249   0.8382  0.03065     C
C       0.6249   0.8382  0.46935     C
C        0.631   0.0868     0.75     C
O       0.6466   0.4683  0.63437     O
O       0.6466   0.4683  0.86563     O
C       0.6525   0.8207     0.25     C
H       0.6571   0.1746   0.1106     H
H       0.6571   0.1746   0.3894     H
C       0.6583   0.8146   0.1725     C
C       0.6583   0.8146   0.3275     C
N       0.6775    0.117  0.09948     N
N       0.6775    0.117  0.40052     N
C       0.6785   0.0088  0.55992     C
C       0.6785   0.0088  0.94008     C
H       0.6794   0.5172   0.2267     H
H       0.6794   0.5172   0.2733     H
H       0.6905   0.0737   0.1198     H
H       0.6905   0.0737   0.3802     H
C       0.7024   0.9598  0.52253     C
C       0.7024   0.9598  0.97747     C
O       0.7035   0.2884  0.67348     O
O       0.7035   0.2884  0.82652     O
C       0.7075   0.5843  0.07328     C
C       0.7075   0.5843  0.42672     C
H       0.7121   0.4752   0.0059     H
H       0.7121   0.4752   0.4941     H
N       0.7222   0.5335     0.25     N
H       0.7359   0.6206   0.5842     H
H       0.7359   0.6206   0.9158     H
O       0.7429   0.8591  0.05194     O
O       0.7429   0.8591  0.44806     O
O       0.7474   0.6571  0.09505     O
O       0.7474   0.6571  0.40495     O
H       0.7497   0.2916     0.75     H
H       0.7503   0.7916     0.25     H
O       0.7526   0.1571  0.59505     O
O       0.7526   0.1571  0.90495     O
O       0.7571   0.3591  0.55194     O
O       0.7571   0.3591  0.94806     O
H       0.7641   0.1206   0.0842     H
H       0.7641   0.1206   0.4158     H
N       0.7778   0.0335     0.75     N
H       0.7879   0.9752   0.5059     H
H       0.7879   0.9752   0.9941     H
C       0.7925   0.0843  0.57328     C
C       0.7925   0.0843  0.92672     C
O       0.7965   0.7884  0.17348     O
O       0.7965   0.7884  0.32652     O
C       0.7976   0.4598  0.02253     C
C       0.7976   0.4598  0.47747     C
H       0.8095   0.5737   0.6198     H
H       0.8095   0.5737   0.8802     H
H       0.8206   0.0172   0.7267     H
H       0.8206   0.0172   0.7733     H
C       0.8215   0.5088  0.05992     C
C       0.8215   0.5088  0.44008     C
N       0.8225    0.617  0.59948     N
N       0.8225    0.617  0.90052     N
C       0.8417   0.3146   0.6725     C
C       0.8417   0.3146   0.8275     C
H       0.8429   0.6746   0.6106     H
H       0.8429   0.6746   0.8894     H
C       0.8475   0.3207     0.75     C
O       0.8534   0.9683  0.13437     O
O       0.8534   0.9683  0.36563     O
C        0.869   0.5868     0.25     C
C       0.8751   0.3382  0.53065     C
C       0.8751   0.3382  0.96935     C
H       0.8871   0.5948   0.1876     H
H       0.8871   0.5948   0.3124     H
C       0.8984   0.3891  0.00995     C
C       0.8984   0.3891  0.49005     C
H       0.9097   0.6855   0.5282     H
H       0.9097   0.6855   0.9718     H
C       0.9196   0.3422  0.71259     C
C       0.9196   0.3422  0.78741     C
O       0.9198     0.32  0.63846     O
O       0.9198     0.32  0.86154     O
Pr     0.92104  0.79873  0.10343    Pr
Pr     0.92104  0.79873  0.39657    Pr
O       0.9342   0.0713  0.56351     O
O       0.9342   0.0713  0.93649     O
C       0.9363   0.6102   0.2127     C
C       0.9363   0.6102   0.2873     C
O       0.9401   0.0903   0.6637     O
O       0.9401   0.0903   0.8363     O
C       0.9483   0.4864  0.08519     C
C       0.9483   0.4864  0.41481     C
O       0.9537   0.0386   0.1887     O
O       0.9537   0.0386   0.3113     O
C       0.9542    0.587  0.57248     C
C       0.9542    0.587  0.92752     C
N       0.9583   0.9726   0.1618     N
N       0.9583   0.9726   0.3382     N
H       0.9667   0.5199   0.1099     H
H       0.9667   0.5199   0.3901     H
C        0.977   0.6358  0.53585     C
C        0.977   0.6358  0.96415     C
O         0.98   0.2786  0.54201     O
O         0.98   0.2786  0.95799     O
