data_I
_chemical_name_common  '/home/zhangsd/repos/MofS-CGCNN/ML/data/SSD/clean_cifs/YUWKIL_clean'
_cell_length_a 10.05800
_cell_length_b 21.86000
_cell_length_c 13.98900
_cell_angle_alpha 91.48100
_cell_angle_beta  90.00000
_cell_angle_gamma 90.00000
_space_group_name_H-M_alt      'P 1'


loop_
_space_group_symop_operation_xyz
  'x, y, z' 

loop_
_atom_site_label
_atom_site_fract_x
_atom_site_fract_y
_atom_site_fract_z
_atom_site_type_symbol
C       0.0026   0.0407   0.5761     C
H       0.0026   0.6583   0.7873     H
H       0.0036   0.0684   0.6278     H
O       0.0069   0.8649   0.2171     O
H       0.0162   0.1851   0.2371     H
O       0.0185   0.6494   0.2954     O
C       0.0212   0.5146   0.0959     C
C       0.0221   0.9015   0.8099     C
C       0.0263   0.1694    0.516     C
O       0.0271   0.7177   0.1079     O
C        0.033   0.5789   0.7079     C
H       0.0362   0.9095   0.0295     H
C       0.0363   0.4441   0.9618     C
H       0.0368    0.524   0.1601     H
C       0.0376   0.6639   0.0649     C
H       0.0443   0.5953   0.4877     H
O       0.0469   0.1929   0.5965     O
C       0.0488   0.5303   0.3802     C
C       0.0495   0.0167   0.4134     C
C       0.0539   0.9811   0.1233     C
C       0.0541   0.0578   0.4883     C
C        0.057   0.4568   0.0559     C
Sm      0.0616  0.75971  0.26824    Sm
C       0.0623   0.8385     0.78     C
O       0.0682   0.8145   0.5364     O
C       0.0706   0.3803   0.9192     C
O        0.072   0.7829   0.9234     O
C       0.0781   0.6387   0.7562     C
C       0.0788   0.0034   0.8564     C
C       0.0803   0.6469   0.3733     C
O       0.0821   0.6877   0.6045     O
H       0.0823   0.0278   0.3542     H
C        0.083   0.4829    0.636     C
H       0.0864   0.3834   0.8511     H
C       0.0864   0.8686   0.1497     C
C        0.093   0.9193   0.0838     C
C       0.0941   0.5899   0.4287     C
H       0.0948   0.4275   0.0944     H
C       0.0986   0.4329   0.3096     C
C         0.11    0.085   0.1725     C
C       0.1154   0.9465   0.8255     C
C       0.1162   0.1208   0.4775     C
H       0.1188   0.8402    0.724     H
C       0.1228   0.5365   0.6789     C
O       0.1316   0.6541   0.0133     O
O       0.1331    0.696   0.4029     O
H       0.1337   0.1276   0.4105     H
C       0.1343   0.8077   0.8574     C
C       0.1379   0.4873   0.3539     C
C        0.138   0.6819   0.6852     C
H       0.1435   0.6299   0.8049     H
C       0.1439   0.0257   0.1385     C
H       0.1441   0.0332   0.8645     H
H       0.1469   0.4543   0.6171     H
H       0.1516   0.3657   0.9485     H
H       0.1623   0.4041   0.2915     H
O       0.1666   0.8251   0.1357     O
H       0.1754   0.1145   0.1828     H
H       0.1834   0.9219     0.06     H
H       0.1869   0.5855   0.4459     H
H       0.2002   0.1225   0.5115     H
H       0.2047   0.9379   0.8148     H
H       0.2129    0.544   0.6882     H
H       0.2277   0.4942   0.3658     H
H       0.2328   0.0171   0.1259     H
O       0.2346   0.7149   0.7068     O
O       0.2403   0.8084   0.3618     O
Sm     0.24961  0.74897  0.52652    Sm
Sm     0.25039  0.74897  0.02652    Sm
O       0.2597   0.8084   0.8618     O
O       0.2654   0.7149   0.2068     O
H       0.2672   0.0171   0.6259     H
H       0.2723   0.4942   0.8658     H
H       0.2871    0.544   0.1882     H
H       0.2953   0.9379   0.3148     H
H       0.2998   0.1225   0.0115     H
H       0.3131   0.5855   0.9459     H
H       0.3166   0.9219     0.56     H
H       0.3246   0.1145   0.6828     H
O       0.3334   0.8251   0.6357     O
H       0.3377   0.4041   0.7915     H
H       0.3484   0.3657   0.4485     H
H       0.3531   0.4543   0.1171     H
H       0.3559   0.0332   0.3645     H
C       0.3561   0.0257   0.6385     C
H       0.3565   0.6299   0.3049     H
C        0.362   0.6819   0.1852     C
C       0.3621   0.4873   0.8539     C
C       0.3657   0.8077   0.3574     C
H       0.3663   0.1276   0.9105     H
O       0.3669    0.696   0.9029     O
O       0.3684   0.6541   0.5133     O
C       0.3772   0.5365   0.1789     C
H       0.3812   0.8402    0.224     H
C       0.3838   0.1208   0.9775     C
C       0.3846   0.9465   0.3255     C
C         0.39    0.085   0.6725     C
C       0.4014   0.4329   0.8096     C
H       0.4052   0.4275   0.5944     H
C       0.4059   0.5899   0.9287     C
C        0.407   0.9193   0.5838     C
H       0.4136   0.3834   0.3511     H
C       0.4136   0.8686   0.6497     C
C        0.417   0.4829    0.136     C
H       0.4177   0.0278   0.8542     H
O       0.4179   0.6877   0.1045     O
C       0.4197   0.6469   0.8733     C
C       0.4212   0.0034   0.3564     C
C       0.4219   0.6387   0.2562     C
O        0.428   0.7829   0.4234     O
C       0.4294   0.3803   0.4192     C
O       0.4318   0.8145   0.0364     O
C       0.4377   0.8385     0.28     C
Sm      0.4384  0.75971  0.76824    Sm
C        0.443   0.4568   0.5559     C
C       0.4459   0.0578   0.9883     C
C       0.4461   0.9811   0.6233     C
C       0.4505   0.0167   0.9134     C
C       0.4512   0.5303   0.8802     C
O       0.4531   0.1929   0.0965     O
H       0.4557   0.5953   0.9877     H
C       0.4624   0.6639   0.5649     C
H       0.4632    0.524   0.6601     H
C       0.4637   0.4441   0.4618     C
H       0.4638   0.9095   0.5295     H
C        0.467   0.5789   0.2079     C
O       0.4729   0.7177   0.6079     O
C       0.4737   0.1694    0.016     C
C       0.4779   0.9015   0.3099     C
C       0.4788   0.5146   0.5959     C
O       0.4815   0.6494   0.7954     O
H       0.4838   0.1851   0.7371     H
O       0.4931   0.8649   0.7171     O
H       0.4964   0.0684   0.1278     H
C       0.4974   0.0407   0.0761     C
H       0.4974   0.6583   0.2873     H
H       0.5026   0.3417   0.7127     H
C       0.5026   0.9593   0.9239     C
H       0.5036   0.9316   0.8722     H
O       0.5069   0.1351   0.2829     O
H       0.5162   0.8149   0.2629     H
O       0.5185   0.3506   0.2046     O
C       0.5212   0.4854   0.4041     C
C       0.5221   0.0985   0.6901     C
C       0.5263   0.8306    0.984     C
O       0.5271   0.2823   0.3921     O
C        0.533   0.4211   0.7921     C
H       0.5362   0.0905   0.4705     H
C       0.5363   0.5559   0.5382     C
H       0.5368    0.476   0.3399     H
C       0.5376   0.3361   0.4351     C
H       0.5443   0.4047   0.0123     H
O       0.5469   0.8071   0.9035     O
C       0.5488   0.4697   0.1198     C
C       0.5495   0.9833   0.0866     C
C       0.5539   0.0189   0.3767     C
C       0.5541   0.9422   0.0117     C
C        0.557   0.5432   0.4441     C
Sm      0.5616  0.24029  0.23176    Sm
C       0.5623   0.1615     0.72     C
O       0.5682   0.1855   0.9636     O
C       0.5706   0.6197   0.5808     C
O        0.572   0.2171   0.5766     O
C       0.5781   0.3613   0.7438     C
C       0.5788   0.9966   0.6436     C
C       0.5803   0.3531   0.1267     C
O       0.5821   0.3123   0.8955     O
H       0.5823   0.9722   0.1458     H
C        0.583   0.5171    0.864     C
C       0.5864   0.1314   0.3503     C
H       0.5864   0.6166   0.6489     H
C        0.593   0.0807   0.4162     C
C       0.5941   0.4101   0.0713     C
H       0.5948   0.5725   0.4056     H
C       0.5986   0.5671   0.1904     C
C         0.61    0.915   0.3275     C
C       0.6154   0.0535   0.6745     C
C       0.6162   0.8792   0.0225     C
H       0.6188   0.1598    0.776     H
C       0.6228   0.4635   0.8211     C
O       0.6316   0.3459   0.4867     O
O       0.6331    0.304   0.0971     O
H       0.6337   0.8724   0.0895     H
C       0.6343   0.1923   0.6426     C
C       0.6379   0.5127   0.1461     C
C        0.638   0.3181   0.8148     C
H       0.6435   0.3701   0.6951     H
C       0.6439   0.9743   0.3615     C
H       0.6441   0.9668   0.6355     H
H       0.6469   0.5457   0.8829     H
H       0.6516   0.6343   0.5515     H
H       0.6623   0.5959   0.2085     H
O       0.6666   0.1749   0.3643     O
H       0.6754   0.8855   0.3172     H
H       0.6834   0.0781     0.44     H
H       0.6869   0.4145   0.0541     H
H       0.7002   0.8775   0.9885     H
H       0.7047   0.0621   0.6852     H
H       0.7129    0.456   0.8118     H
H       0.7277   0.5058   0.1342     H
H       0.7328   0.9829   0.3741     H
O       0.7346   0.2851   0.7932     O
O       0.7403   0.1916   0.1382     O
Sm     0.74961  0.25103  0.97348    Sm
Sm     0.75039  0.25103  0.47348    Sm
O       0.7597   0.1916   0.6382     O
O       0.7654   0.2851   0.2932     O
H       0.7672   0.9829   0.8741     H
H       0.7723   0.5058   0.6342     H
H       0.7871    0.456   0.3118     H
H       0.7953   0.0621   0.1852     H
H       0.7998   0.8775   0.4885     H
H       0.8131   0.4145   0.5541     H
H       0.8166   0.0781     0.94     H
H       0.8246   0.8855   0.8172     H
O       0.8334   0.1749   0.8643     O
H       0.8377   0.5959   0.7085     H
H       0.8484   0.6343   0.0515     H
H       0.8531   0.5457   0.3829     H
H       0.8559   0.9668   0.1355     H
C       0.8561   0.9743   0.8615     C
H       0.8565   0.3701   0.1951     H
C        0.862   0.3181   0.3148     C
C       0.8621   0.5127   0.6461     C
C       0.8657   0.1923   0.1426     C
H       0.8663   0.8724   0.5895     H
O       0.8669    0.304   0.5971     O
O       0.8684   0.3459   0.9867     O
C       0.8772   0.4635   0.3211     C
H       0.8812   0.1598    0.276     H
C       0.8838   0.8792   0.5225     C
C       0.8846   0.0535   0.1745     C
C         0.89    0.915   0.8275     C
C       0.9014   0.5671   0.6904     C
H       0.9052   0.5725   0.9056     H
C       0.9059   0.4101   0.5713     C
C        0.907   0.0807   0.9162     C
C       0.9136   0.1314   0.8503     C
H       0.9136   0.6166   0.1489     H
C        0.917   0.5171    0.364     C
H       0.9177   0.9722   0.6458     H
O       0.9179   0.3123   0.3955     O
C       0.9197   0.3531   0.6267     C
C       0.9212   0.9966   0.1436     C
C       0.9219   0.3613   0.2438     C
O        0.928   0.2171   0.0766     O
C       0.9294   0.6197   0.0808     C
O       0.9318   0.1855   0.4636     O
C       0.9377   0.1615     0.22     C
Sm      0.9384  0.24029  0.73176    Sm
C        0.943   0.5432   0.9441     C
C       0.9459   0.9422   0.5117     C
C       0.9461   0.0189   0.8767     C
C       0.9505   0.9833   0.5866     C
C       0.9512   0.4697   0.6198     C
O       0.9531   0.8071   0.4035     O
H       0.9557   0.4047   0.5123     H
C       0.9624   0.3361   0.9351     C
H       0.9632    0.476   0.8399     H
C       0.9637   0.5559   0.0382     C
H       0.9638   0.0905   0.9705     H
C        0.967   0.4211   0.2921     C
O       0.9729   0.2823   0.8921     O
C       0.9737   0.8306    0.484     C
C       0.9779   0.0985   0.1901     C
C       0.9788   0.4854   0.9041     C
O       0.9815   0.3506   0.7046     O
H       0.9838   0.8149   0.7629     H
O       0.9931   0.1351   0.7829     O
H       0.9964   0.9316   0.3722     H
H       0.9974   0.3417   0.2127     H
C       0.9974   0.9593   0.4239     C
