data_I
_chemical_name_common  '/home/zhangsd/repos/MofS-CGCNN/ML/data/SSD/clean_cifs/ZAGHAT_clean'
_cell_length_a  8.15840
_cell_length_b  8.15840
_cell_length_c 12.13990
_cell_angle_alpha 90.00000
_cell_angle_beta  90.00000
_cell_angle_gamma 120.00000
_space_group_name_H-M_alt      'P 1'


loop_
_space_group_symop_operation_xyz
  'x, y, z' 

loop_
_atom_site_label
_atom_site_fract_x
_atom_site_fract_y
_atom_site_fract_z
_atom_site_type_symbol
Sc         0.0  0.41648  0.33333    Sc
H       0.0562    0.646  0.92643     H
H       0.1393   0.5285  0.98653     H
O       0.1621   0.4942  0.47464     O
C       0.1671   0.6551  0.96373     C
H       0.1973   0.7365  0.02873     H
O       0.2385   0.5319  0.23518     O
C       0.2621   0.5947  0.55308     C
H       0.2635   0.4608   0.6954     H
O       0.2934   0.7615  0.56851     O
O       0.3321   0.8379  0.80797     O
C       0.3326   0.7379  0.88641     C
C       0.3449    0.512   0.6304     C
H        0.354   0.4102   0.5931     H
H       0.3892   0.8607  0.31987     H
C       0.4053   0.6674  0.21975     C
H       0.4102    0.354   0.4069     H
Sc     0.41648      0.0  0.66667    Sc
H       0.4608   0.2635   0.3046     H
O       0.4681   0.7066  0.90184     O
H       0.4715   0.6108   0.6532     H
C        0.488   0.8329  0.29707     C
O       0.4942   0.1621  0.52536     O
O       0.5058   0.6679  0.14131     O
C        0.512   0.3449   0.3696     C
H       0.5285   0.1393  0.01347     H
O       0.5319   0.2385  0.76482     O
H       0.5392   0.8027  0.36207     H
Sc     0.58352  0.58352      0.0    Sc
H       0.5898   0.9438  0.25977     H
C       0.5947   0.2621  0.44692     C
H       0.6108   0.4715   0.3468     H
H        0.646   0.0562  0.07357     H
C       0.6551   0.1671  0.03627     C
C       0.6674   0.4053  0.78025     C
O       0.6679   0.5058  0.85869     O
O       0.7066   0.4681  0.09816     O
H       0.7365   0.1973  0.97127     H
C       0.7379   0.3326  0.11359     C
O       0.7615   0.2934  0.43149     O
H       0.8027   0.5392  0.63793     H
C       0.8329    0.488  0.70293     C
O       0.8379   0.3321  0.19203     O
H       0.8607   0.3892  0.68013     H
H       0.9438   0.5898  0.74023     H
