data_I
_chemical_name_common  '/home/zhangsd/repos/MofS-CGCNN/ML/data/SSD/clean_cifs/ZEFVOX_clean'
_cell_length_a  7.63740
_cell_length_b 10.46700
_cell_length_c 30.49200
_cell_angle_alpha 99.05000
_cell_angle_beta  90.00000
_cell_angle_gamma 90.00000
_space_group_name_H-M_alt      'P 1'


loop_
_space_group_symop_operation_xyz
  'x, y, z' 

loop_
_atom_site_label
_atom_site_fract_x
_atom_site_fract_y
_atom_site_fract_z
_atom_site_type_symbol
Co         0.0      0.0      0.0    Co
C       0.0017   0.2622  0.76696     C
N       0.0039   0.0011  0.56023     N
C       0.0052   0.0414  0.31588     C
C       0.0135   0.4151   0.6668     C
O       0.0292   0.5656  0.83447     O
H       0.0294   0.3105   0.3758     H
C       0.0296   0.2099  0.95539     C
O       0.0313  0.22682  0.23093     O
C       0.0319   0.2095  0.61414     C
O       0.0358   0.1969  0.99567     O
O       0.0393   0.7526  0.19491     O
C       0.0505   0.8822  0.41647     C
C       0.0521   0.2286  0.35846     C
Co     0.05381  0.28631  0.86989    Co
H       0.0552   0.7565   0.9183     H
C       0.0601   0.8421  0.26958     C
C       0.0604   0.0668  0.71152     C
C       0.0668   0.6845  0.36744     C
C       0.0677   0.8951  0.07721     C
H       0.0746   0.9749   0.8139     H
N       0.0748     0.85  0.66144     N
O       0.0803   0.8778  0.11646     O
O       0.0862   0.5087  0.30887     O
O       0.0899  0.35833  0.75723     O
O       0.0946   0.3004  0.93879     O
H        0.107   0.9649   0.5623     H
H       0.1219   0.1272   0.4858     H
Nd     0.12818  0.44821   0.2319    Nd
C       0.1284   0.0475   0.4661     C
O       0.1285   0.9903  0.06119     O
C       0.1313   0.7514  0.76512     C
C       0.1507   0.5553  0.86095     C
H       0.1509   0.2003   0.6222     H
C       0.1745   0.7647  0.91042     C
O       0.1789    0.417  0.66977     O
H       0.1823   0.0777    0.717     H
C       0.1852   0.0606  0.32443     C
O       0.1854  0.63708  0.75048     O
O       0.1862  0.45508  0.87716     O
H       0.1881   0.8346   0.6601     H
C       0.1958   0.9654   0.8072     C
N       0.2103   0.1799  0.35131     N
C       0.2249   0.8687  0.42973     C
N       0.2314   0.9731  0.96174     N
C       0.2419   0.8568  0.28016     C
C       0.2448    0.673  0.37909     C
C       0.2552    0.673  0.87909     C
C       0.2581   0.8568  0.78016     C
N       0.2686   0.9731  0.46174     N
C       0.2751   0.8687  0.92973     C
N       0.2897   0.1799  0.85131     N
C       0.3042   0.9654   0.3072     C
H       0.3119   0.8346   0.1601     H
O       0.3138  0.45508  0.37716     O
O       0.3146  0.63708  0.25048     O
C       0.3148   0.0606  0.82443     C
H       0.3177   0.0777    0.217     H
O       0.3211    0.417  0.16977     O
C       0.3255   0.7647  0.41042     C
H       0.3491   0.2003   0.1222     H
C       0.3493   0.5553  0.36095     C
C       0.3687   0.7514  0.26512     C
O       0.3715   0.9903  0.56119     O
C       0.3716   0.0475   0.9661     C
Nd     0.37182  0.44821   0.7319    Nd
H       0.3781   0.1272   0.9858     H
H        0.393   0.9649   0.0623     H
O       0.4054   0.3004  0.43879     O
O       0.4101  0.35833  0.25723     O
O       0.4138   0.5087  0.80887     O
O       0.4197   0.8778  0.61646     O
N       0.4252     0.85  0.16144     N
H       0.4254   0.9749   0.3139     H
C       0.4323   0.8951  0.57721     C
C       0.4332   0.6845  0.86744     C
C       0.4396   0.0668  0.21152     C
C       0.4399   0.8421  0.76958     C
H       0.4448   0.7565   0.4183     H
Co     0.44619  0.28631  0.36989    Co
C       0.4479   0.2286  0.85846     C
C       0.4495   0.8822  0.91647     C
O       0.4607   0.7526  0.69491     O
O       0.4642   0.1969  0.49567     O
C       0.4681   0.2095  0.11414     C
O       0.4687  0.22682  0.73093     O
C       0.4704   0.2099  0.45539     C
H       0.4706   0.3105   0.8758     H
O       0.4708   0.5656  0.33447     O
C       0.4865   0.4151   0.1668     C
C       0.4948   0.0414  0.81588     C
N       0.4961   0.0011  0.06023     N
C       0.4983   0.2622  0.26696     C
Co         0.5      0.0      0.5    Co
C       0.5017   0.7378  0.73304     C
N       0.5039   0.9989  0.93977     N
C       0.5052   0.9586  0.18412     C
C       0.5135   0.5849   0.8332     C
O       0.5292   0.4344  0.66553     O
H       0.5294   0.6895   0.1242     H
C       0.5296   0.7901  0.54461     C
O       0.5313  0.77318  0.26907     O
C       0.5319   0.7905  0.88586     C
O       0.5358   0.8031  0.50433     O
O       0.5393   0.2474  0.30509     O
C       0.5505   0.1178  0.08353     C
C       0.5521   0.7714  0.14154     C
Co     0.55381  0.71369  0.63011    Co
H       0.5552   0.2435   0.5817     H
C       0.5601   0.1579  0.23042     C
C       0.5604   0.9332  0.78848     C
C       0.5668   0.3155  0.13256     C
C       0.5677   0.1049  0.42279     C
H       0.5746   0.0251   0.6861     H
N       0.5748     0.15  0.83856     N
O       0.5803   0.1222  0.38354     O
O       0.5862   0.4913  0.19113     O
O       0.5899  0.64167  0.74277     O
O       0.5946   0.6996  0.56121     O
H        0.607   0.0351   0.9377     H
H       0.6219   0.8728   0.0142     H
Nd     0.62818  0.55179   0.2681    Nd
C       0.6284   0.9525   0.0339     C
O       0.6285   0.0097  0.43881     O
C       0.6313   0.2486  0.73488     C
C       0.6507   0.4447  0.63905     C
H       0.6509   0.7997   0.8778     H
C       0.6745   0.2353  0.58958     C
O       0.6789    0.583  0.83023     O
H       0.6823   0.9223    0.783     H
C       0.6852   0.9394  0.17557     C
O       0.6854  0.36292  0.74952     O
O       0.6862  0.54492  0.62284     O
H       0.6881   0.1654   0.8399     H
C       0.6958   0.0346   0.6928     C
N       0.7103   0.8201  0.14869     N
C       0.7249   0.1313  0.07027     C
N       0.7314   0.0269  0.53826     N
C       0.7419   0.1432  0.21984     C
C       0.7448    0.327  0.12091     C
C       0.7552    0.327  0.62091     C
C       0.7581   0.1432  0.71984     C
N       0.7686   0.0269  0.03826     N
C       0.7751   0.1313  0.57027     C
N       0.7897   0.8201  0.64869     N
C       0.8042   0.0346   0.1928     C
H       0.8119   0.1654   0.3399     H
O       0.8138  0.54492  0.12284     O
O       0.8146  0.36292  0.24952     O
C       0.8148   0.9394  0.67557     C
H       0.8177   0.9223    0.283     H
O       0.8211    0.583  0.33023     O
C       0.8255   0.2353  0.08958     C
H       0.8491   0.7997   0.3778     H
C       0.8493   0.4447  0.13905     C
C       0.8687   0.2486  0.23488     C
O       0.8715   0.0097  0.93881     O
C       0.8716   0.9525   0.5339     C
Nd     0.87182  0.55179   0.7681    Nd
H       0.8781   0.8728   0.5142     H
H        0.893   0.0351   0.4377     H
O       0.9054   0.6996  0.06121     O
O       0.9101  0.64167  0.24277     O
O       0.9138   0.4913  0.69113     O
O       0.9197   0.1222  0.88354     O
N       0.9252     0.15  0.33856     N
H       0.9254   0.0251   0.1861     H
C       0.9323   0.1049  0.92279     C
C       0.9332   0.3155  0.63256     C
C       0.9396   0.9332  0.28848     C
C       0.9399   0.1579  0.73042     C
H       0.9448   0.2435   0.0817     H
Co     0.94619  0.71369  0.13011    Co
C       0.9479   0.7714  0.64154     C
C       0.9495   0.1178  0.58353     C
O       0.9607   0.2474  0.80509     O
O       0.9642   0.8031  0.00433     O
C       0.9681   0.7905  0.38586     C
O       0.9687  0.77318  0.76907     O
C       0.9704   0.7901  0.04461     C
H       0.9706   0.6895   0.6242     H
O       0.9708   0.4344  0.16553     O
C       0.9865   0.5849   0.3332     C
C       0.9948   0.9586  0.68412     C
N       0.9961   0.9989  0.43977     N
C       0.9983   0.7378  0.23304     C
