data_I
_chemical_name_common  '/home/zhangsd/repos/MofS-CGCNN/ML/data/SSD/clean_cifs/ZEFVEN_clean'
_cell_length_a  7.59390
_cell_length_b 10.44600
_cell_length_c 30.51300
_cell_angle_alpha 99.00000
_cell_angle_beta  90.00000
_cell_angle_gamma 90.00000
_space_group_name_H-M_alt      'P 1'


loop_
_space_group_symop_operation_xyz
  'x, y, z' 

loop_
_atom_site_label
_atom_site_fract_x
_atom_site_fract_y
_atom_site_fract_z
_atom_site_type_symbol
Co         0.0      0.0      0.5    Co
C       0.0003   0.2636  0.26723     C
N       0.0037   0.9959  0.93953     N
C       0.0072   0.9591  0.18447     C
C       0.0105   0.5852  0.83186     C
O        0.024   0.4346   0.6663     O
C       0.0291   0.7897  0.54494     C
C       0.0309    0.789  0.88517     C
H       0.0313   0.6898   0.1245     H
O       0.0358   0.7702  0.26936     O
O       0.0361   0.8035   0.5046     O
O       0.0419   0.2471  0.30511     O
Co     0.05068  0.71389   0.6301    Co
H       0.0508   0.2446   0.5823     H
C       0.0521   0.1191  0.08418     C
C       0.0543   0.7718  0.14184     C
C        0.059   0.9325  0.78811     C
C       0.0624    0.159  0.23047     C
C       0.0685   0.3162  0.13336     C
C       0.0694   0.1053  0.42301     C
H       0.0703   0.0268   0.6858     H
N       0.0713   0.1501  0.83812     N
O       0.0835   0.1218  0.38378     O
O       0.0876   0.6406  0.74198     O
O       0.0911   0.4911  0.19219     O
O       0.0932   0.6996  0.56133     O
H       0.1082   0.0311   0.9378     H
H       0.1212   0.8752   0.0143     H
C       0.1269   0.2504  0.73493     C
C       0.1282   0.9548  0.03416     C
O         0.13   0.0094  0.43908     O
Sm     0.13056  0.55075  0.26805    Sm
C       0.1465   0.4457  0.63995     C
H       0.1507    0.798   0.8772     H
C       0.1706   0.2365   0.5904     C
O       0.1757   0.5821  0.82868     O
H       0.1816   0.9218   0.7824     H
O       0.1827   0.5454   0.6236     O
O       0.1833   0.3644  0.74964     O
H       0.1852   0.1661   0.8392     H
C       0.1881   0.9405  0.17559     C
C       0.1921    0.036  0.69261     C
N       0.2124    0.821  0.14885     N
C       0.2257   0.1328  0.07106     C
N       0.2316   0.0287  0.53879     N
C       0.2445   0.1453  0.21997     C
C       0.2483   0.3272  0.12199     C
C       0.2517   0.3272  0.62199     C
C       0.2555   0.1453  0.71997     C
N       0.2684   0.0287  0.03879     N
C       0.2743   0.1328  0.57106     C
N       0.2876    0.821  0.64885     N
C       0.3079    0.036  0.19261     C
C       0.3119   0.9405  0.67559     C
H       0.3148   0.1661   0.3392     H
O       0.3167   0.3644  0.24964     O
O       0.3173   0.5454   0.1236     O
H       0.3184   0.9218   0.2824     H
O       0.3243   0.5821  0.32868     O
C       0.3294   0.2365   0.0904     C
H       0.3493    0.798   0.3772     H
C       0.3535   0.4457  0.13995     C
Sm     0.36944  0.55075  0.76805    Sm
O         0.37   0.0094  0.93908     O
C       0.3718   0.9548  0.53416     C
C       0.3731   0.2504  0.23493     C
H       0.3788   0.8752   0.5143     H
H       0.3918   0.0311   0.4378     H
O       0.4068   0.6996  0.06133     O
O       0.4089   0.4911  0.69219     O
O       0.4124   0.6406  0.24198     O
O       0.4165   0.1218  0.88378     O
N       0.4287   0.1501  0.33812     N
H       0.4297   0.0268   0.1858     H
C       0.4306   0.1053  0.92301     C
C       0.4315   0.3162  0.63336     C
C       0.4376    0.159  0.73047     C
C        0.441   0.9325  0.28811     C
C       0.4457   0.7718  0.64184     C
C       0.4479   0.1191  0.58418     C
H       0.4492   0.2446   0.0823     H
Co     0.44932  0.71389   0.1301    Co
O       0.4581   0.2471  0.80511     O
O       0.4639   0.8035   0.0046     O
O       0.4642   0.7702  0.76936     O
H       0.4687   0.6898   0.6245     H
C       0.4691    0.789  0.38517     C
C       0.4709   0.7897  0.04494     C
O        0.476   0.4346   0.1663     O
C       0.4895   0.5852  0.33186     C
C       0.4928   0.9591  0.68447     C
N       0.4963   0.9959  0.43953     N
C       0.4997   0.2636  0.76723     C
Co         0.5      0.0      0.0    Co
C       0.5003   0.7364  0.23277     C
N       0.5037   0.0041  0.56047     N
C       0.5072   0.0409  0.31553     C
C       0.5105   0.4148  0.66814     C
O        0.524   0.5654   0.8337     O
C       0.5291   0.2103  0.95506     C
C       0.5309    0.211  0.61483     C
H       0.5313   0.3102   0.3755     H
O       0.5358   0.2298  0.23064     O
O       0.5361   0.1965   0.9954     O
O       0.5419   0.7529  0.19489     O
Co     0.55068  0.28611   0.8699    Co
H       0.5508   0.7554   0.9177     H
C       0.5521   0.8809  0.41582     C
C       0.5543   0.2282  0.35816     C
C        0.559   0.0675  0.71189     C
C       0.5624    0.841  0.26953     C
C       0.5685   0.6838  0.36664     C
C       0.5694   0.8947  0.07699     C
H       0.5703   0.9732   0.8142     H
N       0.5713   0.8499  0.66188     N
O       0.5835   0.8782  0.11622     O
O       0.5876   0.3594  0.75802     O
O       0.5911   0.5089  0.30781     O
O       0.5932   0.3004  0.93867     O
H       0.6082   0.9689   0.5622     H
H       0.6212   0.1248   0.4857     H
C       0.6269   0.7496  0.76507     C
C       0.6282   0.0452  0.46584     C
O         0.63   0.9906  0.06092     O
Sm     0.63056  0.44925  0.23195    Sm
C       0.6465   0.5543  0.86005     C
H       0.6507    0.202   0.6228     H
C       0.6706   0.7635   0.9096     C
O       0.6757   0.4179  0.67132     O
H       0.6816   0.0782   0.7176     H
O       0.6827   0.4546   0.8764     O
O       0.6833   0.6356  0.75036     O
H       0.6852   0.8339   0.6608     H
C       0.6881   0.0595  0.32441     C
C       0.6921    0.964  0.80739     C
N       0.7124    0.179  0.35115     N
C       0.7257   0.8672  0.42894     C
N       0.7316   0.9713  0.96121     N
C       0.7445   0.8547  0.28003     C
C       0.7483   0.6728  0.37801     C
C       0.7517   0.6728  0.87801     C
C       0.7555   0.8547  0.78003     C
N       0.7684   0.9713  0.46121     N
C       0.7743   0.8672  0.92894     C
N       0.7876    0.179  0.85115     N
C       0.8079    0.964  0.30739     C
C       0.8119   0.0595  0.82441     C
H       0.8148   0.8339   0.1608     H
O       0.8167   0.6356  0.25036     O
O       0.8173   0.4546   0.3764     O
H       0.8184   0.0782   0.2176     H
O       0.8243   0.4179  0.17132     O
C       0.8294   0.7635   0.4096     C
H       0.8493    0.202   0.1228     H
C       0.8535   0.5543  0.36005     C
Sm     0.86944  0.44925  0.73195    Sm
O         0.87   0.9906  0.56092     O
C       0.8718   0.0452  0.96584     C
C       0.8731   0.7496  0.26507     C
H       0.8788   0.1248   0.9857     H
H       0.8918   0.9689   0.0622     H
O       0.9068   0.3004  0.43867     O
O       0.9089   0.5089  0.80781     O
O       0.9124   0.3594  0.25802     O
O       0.9165   0.8782  0.61622     O
N       0.9287   0.8499  0.16188     N
H       0.9297   0.9732   0.3142     H
C       0.9306   0.8947  0.57699     C
C       0.9315   0.6838  0.86664     C
C       0.9376    0.841  0.76953     C
C        0.941   0.0675  0.21189     C
C       0.9457   0.2282  0.85816     C
C       0.9479   0.8809  0.91582     C
H       0.9492   0.7554   0.4177     H
Co     0.94932  0.28611   0.3699    Co
O       0.9581   0.7529  0.69489     O
O       0.9639   0.1965   0.4954     O
O       0.9642   0.2298  0.73064     O
H       0.9687   0.3102   0.8755     H
C       0.9691    0.211  0.11483     C
C       0.9709   0.2103  0.45506     C
O        0.976   0.5654   0.3337     O
C       0.9895   0.4148  0.16814     C
C       0.9928   0.0409  0.81553     C
N       0.9963   0.0041  0.06047     N
C       0.9997   0.7364  0.73277     C
