data_I
_chemical_name_common  '/home/zhangsd/repos/MofS-CGCNN/ML/data/SSD/clean_cifs/ZEHCAQ01_clean'
_cell_length_a 12.07550
_cell_length_b 14.88870
_cell_length_c 11.83580
_cell_angle_alpha 90.00000
_cell_angle_beta  97.71900
_cell_angle_gamma 90.00000
_space_group_name_H-M_alt      'P 1'


loop_
_space_group_symop_operation_xyz
  'x, y, z' 

loop_
_atom_site_label
_atom_site_fract_x
_atom_site_fract_y
_atom_site_fract_z
_atom_site_type_symbol
O       0.0607   0.2486   0.5781     O
O       0.0607   0.7514   0.0781     O
Zn     0.09593  0.26319  0.91107    Zn
Zn     0.09593  0.73681  0.41107    Zn
O       0.1342   0.3665   0.0128     O
O       0.1342   0.6335   0.5128     O
O       0.1518    0.298   0.7729     O
O       0.1518    0.702   0.2729     O
O       0.1601   0.1545   0.9805     O
O       0.1601   0.8455   0.4805     O
P      0.16986   0.2617  0.65549     P
P      0.16986   0.7383  0.15549     P
Zn      0.2045  0.38642  0.45613    Zn
Zn      0.2045  0.61358  0.95613    Zn
O       0.2345   0.1718   0.6705     O
O       0.2345   0.8282   0.1705     O
O        0.238   0.0081   0.0372     O
O        0.238   0.9919   0.5372     O
O       0.2389   0.0543   0.8364     O
O       0.2389   0.9457   0.3364     O
O       0.2429   0.3305   0.6024     O
O       0.2429   0.6695   0.1024     O
H       0.2462   0.0966   0.7935     H
H       0.2462   0.9034   0.2935     H
P      0.24787  0.41121  0.03706     P
P      0.24787  0.58879  0.53706     P
P      0.25213  0.08879  0.96294     P
P      0.25213  0.91121  0.46294     P
H       0.2538   0.4034   0.2065     H
H       0.2538   0.5966   0.7065     H
O       0.2571   0.1695   0.3976     O
O       0.2571   0.8305   0.8976     O
O       0.2611   0.4457   0.1636     O
O       0.2611   0.5543   0.6636     O
O        0.262   0.4919   0.9628     O
O        0.262   0.5081   0.4628     O
O       0.2655   0.3282   0.3295     O
O       0.2655   0.6718   0.8295     O
Zn      0.2955  0.11358  0.54387    Zn
Zn      0.2955  0.88642  0.04387    Zn
P      0.33014   0.2383  0.34451     P
P      0.33014   0.7617  0.84451     P
O       0.3399   0.3455   0.0195     O
O       0.3399   0.6545   0.5195     O
O       0.3482    0.202   0.2271     O
O       0.3482    0.798   0.7271     O
O       0.3658   0.1335   0.9872     O
O       0.3658   0.8665   0.4872     O
Zn     0.40407  0.23681  0.08893    Zn
Zn     0.40407  0.76319  0.58893    Zn
O       0.4393   0.2514   0.4219     O
O       0.4393   0.7486   0.9219     O
O       0.5607   0.2514   0.0781     O
O       0.5607   0.7486   0.5781     O
Zn     0.59593  0.23681  0.41107    Zn
Zn     0.59593  0.76319  0.91107    Zn
O       0.6342   0.1335   0.5128     O
O       0.6342   0.8665   0.0128     O
O       0.6518    0.202   0.2729     O
O       0.6518    0.798   0.7729     O
O       0.6601   0.3455   0.4805     O
O       0.6601   0.6545   0.9805     O
P      0.66986   0.2383  0.15549     P
P      0.66986   0.7617  0.65549     P
Zn      0.7045  0.11358  0.95613    Zn
Zn      0.7045  0.88642  0.45613    Zn
O       0.7345   0.3282   0.1705     O
O       0.7345   0.6718   0.6705     O
O        0.738   0.4919   0.5372     O
O        0.738   0.5081   0.0372     O
O       0.7389   0.4457   0.3364     O
O       0.7389   0.5543   0.8364     O
O       0.7429   0.1695   0.1024     O
O       0.7429   0.8305   0.6024     O
H       0.7462   0.4034   0.2935     H
H       0.7462   0.5966   0.7935     H
P      0.74787  0.08879  0.53706     P
P      0.74787  0.91121  0.03706     P
P      0.75213  0.41121  0.46294     P
P      0.75213  0.58879  0.96294     P
H       0.7538   0.0966   0.7065     H
H       0.7538   0.9034   0.2065     H
O       0.7571   0.3305   0.8976     O
O       0.7571   0.6695   0.3976     O
O       0.7611   0.0543   0.6636     O
O       0.7611   0.9457   0.1636     O
O        0.762   0.0081   0.4628     O
O        0.762   0.9919   0.9628     O
O       0.7655   0.1718   0.8295     O
O       0.7655   0.8282   0.3295     O
Zn      0.7955  0.38642  0.04387    Zn
Zn      0.7955  0.61358  0.54387    Zn
P      0.83014   0.2617  0.84451     P
P      0.83014   0.7383  0.34451     P
O       0.8399   0.1545   0.5195     O
O       0.8399   0.8455   0.0195     O
O       0.8482    0.298   0.7271     O
O       0.8482    0.702   0.2271     O
O       0.8658   0.3665   0.4872     O
O       0.8658   0.6335   0.9872     O
Zn     0.90407  0.26319  0.58893    Zn
Zn     0.90407  0.73681  0.08893    Zn
O       0.9393   0.2486   0.9219     O
O       0.9393   0.7514   0.4219     O
