data_I
_chemical_name_common  '/home/zhangsd/repos/MofS-CGCNN/ML/data/SSD/clean_cifs/ZELROZ_manual'
_cell_length_a 17.12270
_cell_length_b 17.12270
_cell_length_c 17.12270
_cell_angle_alpha 90.00000
_cell_angle_beta  90.00000
_cell_angle_gamma 90.00000
_space_group_name_H-M_alt      'P 1'


loop_
_space_group_symop_operation_xyz
  'x, y, z' 

loop_
_atom_site_label
_atom_site_fract_x
_atom_site_fract_y
_atom_site_fract_z
_atom_site_type_symbol
H      0.02813  0.44024  0.64619     H
O        0.041   0.4093   0.5907     O
C       0.0413      0.5      0.5     C
H      0.05632   0.5862   0.4138     H
C       0.0888   0.4549   0.5451     C
C       0.0888   0.5451   0.4549     C
C       0.1697   0.4557   0.5443     C
C       0.1697   0.5443   0.4557     C
H      0.20379  0.41526  0.58474     H
H      0.20379  0.58474  0.41526     H
C       0.2103      0.5      0.5     C
C       0.2885      0.5      0.5     C
O       0.3248   0.4538   0.5462     O
O       0.3248   0.5462   0.4538     O
H      0.39494  0.07132  0.64617     H
H      0.39494  0.64617  0.07132     H
H      0.39911  0.44022  1.01506     H
O       0.4093    0.041   0.5907     O
O       0.4093   0.4093    0.959     O
O       0.4093   0.5907    0.041     O
H       0.4138  0.94368   0.4138     H
H      0.41526  0.20379  0.58474     H
H      0.41526  0.41526  0.79621     H
H      0.41526  0.58474  0.20379     H
H      0.41526  0.79621  0.41526     H
Zn     0.43467  0.43467  0.56533    Zn
Zn     0.43467  0.56533  0.43467    Zn
O       0.4538   0.3248   0.5462     O
O       0.4538   0.4538   0.6752     O
O       0.4538   0.5462   0.3248     O
O       0.4538   0.6752   0.4538     O
C       0.4549   0.0888   0.5451     C
C       0.4549   0.4549   0.9112     C
C       0.4549   0.5451   0.0888     C
C       0.4549   0.9112   0.4549     C
C       0.4557   0.1697   0.5443     C
C       0.4557   0.4557   0.8303     C
C       0.4557   0.5443   0.1697     C
C       0.4557   0.8303   0.4557     C
C          0.5   0.0413      0.5     C
C          0.5   0.2103      0.5     C
C          0.5   0.2885      0.5     C
C          0.5      0.5   0.0413     C
C          0.5      0.5   0.2103     C
C          0.5      0.5   0.2885     C
O          0.5      0.5      0.5     O
C          0.5      0.5   0.7115     C
C          0.5      0.5   0.7897     C
C          0.5      0.5   0.9587     C
C          0.5   0.7115      0.5     C
C          0.5   0.7897      0.5     C
C          0.5   0.9587      0.5     C
C       0.5443   0.1697   0.4557     C
C       0.5443   0.4557   0.1697     C
C       0.5443   0.5443   0.8303     C
C       0.5443   0.8303   0.5443     C
C       0.5451   0.0888   0.4549     C
C       0.5451   0.4549   0.0888     C
C       0.5451   0.5451   0.9112     C
C       0.5451   0.9112   0.5451     C
O       0.5462   0.3248   0.4538     O
O       0.5462   0.4538   0.3248     O
O       0.5462   0.5462   0.6752     O
O       0.5462   0.6752   0.5462     O
H      0.55268  0.99642  0.62753     H
Zn     0.56533  0.43467  0.43467    Zn
Zn     0.56533  0.56533  0.56533    Zn
H      0.58474  0.20379  0.41526     H
H      0.58474  0.41526  0.20379     H
H      0.58474  0.58474  0.79621     H
H      0.58474  0.79621  0.58474     H
H       0.5862  0.05632   0.4138     H
H       0.5862   0.4138  0.05632     H
H       0.5862   0.5862  0.94368     H
O       0.5907    0.959   0.5907     O
O       0.6752   0.4538   0.4538     O
O       0.6752   0.5462   0.5462     O
C       0.7115      0.5      0.5     C
C       0.7897      0.5      0.5     C
H      0.79621  0.41526  0.41526     H
H      0.79621  0.58474  0.58474     H
C       0.8303   0.4557   0.4557     C
C       0.8303   0.5443   0.5443     C
C       0.9112   0.4549   0.4549     C
C       0.9112   0.5451   0.5451     C
H      0.92277  0.62871  0.62871     H
H      0.94368   0.4138   0.4138     H
C       0.9587      0.5      0.5     C
O        0.959   0.5907   0.5907     O
