data_I
_chemical_name_common  '/home/zhangsd/repos/MofS-CGCNN/ML/data/SSD/clean_cifs/ZIJVAR_clean'
_cell_length_a 13.27930
_cell_length_b 15.44140
_cell_length_c 18.46300
_cell_angle_alpha 105.48300
_cell_angle_beta  90.00000
_cell_angle_gamma 115.46700
_space_group_name_H-M_alt      'P 1'


loop_
_space_group_symop_operation_xyz
  'x, y, z' 

loop_
_atom_site_label
_atom_site_fract_x
_atom_site_fract_y
_atom_site_fract_z
_atom_site_type_symbol
C      0.00191  0.42062   0.7785     C
C       0.0068   0.9096   0.7143     C
C      0.00802  0.86364   0.3331     C
H       0.0096   0.2564   0.5447     H
C       0.0148   0.8896   0.6368     C
H       0.0185   0.5166   0.7195     H
C      0.02716  0.54732   0.2773     C
H        0.029   0.7726    0.035     H
C      0.03011  0.24242   0.5869     C
H       0.0324   0.6134    0.025     H
C      0.04008  0.84596   0.3973     C
H       0.0418   0.9704   0.7525     H
N       0.0454   0.2076   0.3981     N
H       0.0464   0.6972   0.1799     H
H       0.0542   0.9216   0.3209     H
H       0.0559   0.9374   0.6131     H
C      0.06571  0.67522   0.2176     C
N      0.06812  0.18604  0.27978     N
H       0.0714   0.0296   0.7475     H
C      0.08968  0.75816   0.0252     C
C       0.0908   0.2478   0.3457     C
C      0.09136  0.20392   0.7122     C
C      0.09226  0.67052   0.0194     C
C       0.0972   0.0904   0.7857     C
C      0.10316  0.48872   0.8359     C
H       0.1093    0.338   0.2278     H
C      0.11256  0.20392   0.2122     C
O      0.11329  0.45898  0.89296     O
N      0.11792  0.18604  0.77978     N
H       0.1185   0.0626   0.8869     H
O      0.11971  0.48182   0.3792     O
C      0.12436  0.60952    0.329     C
C       0.1252   0.1104   0.8632     C
C      0.12928  0.30936   0.6328     C
C      0.13026  0.29212   0.1965     C
H       0.1326   0.0784   0.1791     H
H       0.1362   0.3164   0.3556     H
H       0.1403   0.9624   0.0885     H
C      0.14438  0.13636   0.1669     C
C      0.15052  0.91544   0.4448     C
C        0.157   0.2478   0.8457     C
C      0.16146  0.73872   0.2688     C
C      0.16186  0.29212   0.6965     C
N       0.1622   0.2076   0.8981     N
C      0.16273  0.57206   0.3851     C
H       0.1633   0.8144   0.4902     H
H       0.1647   0.3644   0.5028     H
O       0.1725    0.568  0.82789     O
H       0.1779   0.0376   0.4115     H
C      0.18008  0.30936   0.1328     C
H       0.1802   0.3164   0.8556     H
C      0.19024  0.70468   0.3244     C
N      0.19374  0.82148  0.01394     N
C      0.19412  0.15404   0.1027     C
C      0.19416  0.98592   0.0572     C
N      0.19578  0.67756    0.004     N
N       0.1975   0.4008  0.61584     N
C      0.19893  0.88126   0.4905     C
H       0.1997   0.3644   0.0028     H
N       0.2033   0.4008  0.11584     N
C      0.20436  0.41452   0.5475     C
C      0.20824  0.01408   0.4428     C
C      0.21016  0.41452   0.0475     C
O      0.21102  0.87704  0.21786     O
C      0.21231  0.24242   0.0869     C
H       0.2193   0.7858   0.6015     H
C      0.22544  0.49108    0.167     C
H       0.2276   0.5052   0.2193     H
H       0.2287    0.338   0.7278     H
C      0.23356  0.92312   0.0128     C
N      0.23359  0.50778  0.05089     N
C      0.23508  0.08456   0.0552     C
C      0.23633  0.84086   0.2636     C
Co     0.24305   0.5661   0.9643    Co
C      0.24335   0.5555   0.1261     C
O      0.24573  0.63686  0.43481     O
H       0.2468   0.2564   0.0447     H
C      0.25439  0.76938   0.0018     C
H       0.2548   0.7468   0.3589     H
H       0.2564   0.2274    0.465     H
H       0.2601   0.6228   0.1463     H
C      0.26564  0.49108    0.667     C
N      0.27419  0.50778  0.55089     N
H       0.2776   0.5052   0.7193     H
C      0.29374  0.83448    0.615     C
C      0.29985   0.9463   0.5364     C
C      0.31015   0.9549   0.9635     C
C      0.31044  0.07688   0.4872     C
C      0.31215   0.5555   0.6261     C
C      0.31767  0.11874   0.0095     C
Co     0.32305   0.5661   0.4643    Co
O      0.32847  0.89034  0.30594     O
H       0.3291   0.7956   0.9928     H
C      0.33152  0.24184   0.4748     C
H        0.332   0.9106    0.931     H
O      0.33398  0.12296  0.28214     O
O      0.34569  0.45898  0.39296     O
N      0.34688  0.91376  0.58671     N
H       0.3489   0.1856   0.0098     H
H       0.3492   0.3028   0.3201     H
C      0.35355   0.0537   0.9636     C
C      0.35525   0.0451   0.5365     C
H       0.3566   0.7964   0.6939     H
O      0.36211  0.48182   0.8792     O
H       0.3627   0.6228   0.6463     H
C      0.36998  0.84096   0.6656     C
N      0.37226  0.17852  0.48606     N
C      0.38556  0.48872   0.3359     C
Co     0.38584     -0.0     0.25    Co
C      0.39049  0.32478   0.2824     C
O      0.39113  0.63686  0.93481     O
C      0.39547  0.15914   0.2364     C
O       0.3955    0.568  0.32789     O
C      0.40933  0.57206   0.8851     C
C      0.41871  0.42062   0.2785     C
H        0.419   0.3866    0.475     H
H       0.4214   0.0894    0.569     H
C      0.42174  0.32948   0.4806     C
C      0.42274  0.26128   0.2312     C
N      0.43312  0.08624  0.91329     N
H       0.4335   0.2142   0.8985     H
O      0.43813  0.10966  0.19406     O
H       0.4398   0.7964   0.1939     H
N      0.45158  0.92176  0.17035     N
C      0.45248  0.96276   0.6217     C
C      0.45926  0.16552    0.885     C
H       0.4665   0.7956   0.4928     H
N      0.47018  0.92176  0.67035     N
C      0.47098  0.84096   0.1656     C
C      0.47984  0.45268   0.2227     C
N      0.48178  0.67756    0.504     N
C      0.48501  0.23062   0.4982     C
C      0.48516  0.60952    0.829     C
C      0.48556  0.29532   0.1756     C
H       0.4875   0.9802   0.8877     H
C      0.48972  0.03724   0.8783     C
H        0.492   0.7468   0.8589     H
H       0.4927   0.9802   0.3877     H
H       0.4981   0.5166   0.2195     H
H       0.5019   0.4834   0.7805     H
H       0.5073   0.0198   0.6123     H
H        0.508   0.2532   0.1411     H
C      0.51028  0.96276   0.1217     C
H       0.5125   0.0198   0.1123     H
C      0.51444  0.70468   0.8244     C
C      0.51484  0.39048    0.171     C
C      0.51499  0.76938   0.5018     C
N      0.51822  0.32244    0.496     N
C      0.52016  0.54732   0.7773     C
C      0.52902  0.15904   0.8344     C
N      0.52982  0.07824  0.32965     N
H       0.5335   0.2044   0.5072     H
C      0.54074  0.83448    0.115     C
C      0.54752  0.03724   0.3783     C
N      0.54842  0.07824  0.82965     N
H       0.5602   0.2036   0.8061     H
O      0.56187  0.89034  0.80594     O
H       0.5665   0.7858   0.1015     H
N      0.56688  0.91376  0.08671     N
C      0.57726  0.73872   0.7688     C
C      0.57826  0.67052   0.5194     C
H       0.5786   0.9106    0.431     H
H        0.581   0.6134    0.525     H
C      0.58129  0.57938   0.7215     C
C      0.59067  0.42794   0.1149     C
O       0.6045    0.432  0.67211     O
C      0.60453  0.84086   0.7636     C
O      0.60887  0.36314  0.06519     O
C      0.60951  0.67522   0.7176     C
Co     0.61416     -0.0     0.75    Co
C      0.61444  0.51128   0.6641     C
N      0.62774  0.82148  0.51394     N
C      0.63002  0.15904   0.3344     C
H       0.6373   0.3772   0.3537     H
O      0.63789  0.51818   0.1208     O
H       0.6434   0.2036   0.3061     H
C      0.64475   0.9549   0.4635     C
C      0.64645   0.9463   0.0364     C
H       0.6508   0.6972   0.6799     H
H       0.6511   0.8144   0.9902     H
N      0.65312  0.08624  0.41329     N
O      0.65431  0.54102  0.60704     O
O      0.66602  0.87704  0.71786     O
H        0.668   0.0894    0.069     H
C      0.66848  0.75816   0.5252     C
H       0.6709   0.2044   0.0072     H
O      0.67153  0.10966  0.69406     O
Co     0.67695   0.4339   0.5357    Co
C      0.68233  0.88126   0.9905     C
C      0.68785   0.4445   0.3739     C
C      0.68956  0.92312   0.5128     C
C      0.68985   0.0451   0.0365     C
C      0.70015   0.0537   0.4636     C
C      0.70626  0.16552    0.385     C
H       0.7224   0.4948   0.2807     H
N      0.72581  0.49222  0.44911     N
C      0.73436  0.50892    0.333     C
H       0.7399   0.3772   0.8537     H
H       0.7436   0.7726    0.535     H
H       0.7452   0.2532   0.6411     H
C      0.74561  0.23062   0.9982     C
H       0.7532   0.7436   0.9553     H
O      0.75427  0.36314  0.56519     O
C      0.75665   0.4445   0.8739     C
Co     0.75695   0.4339   0.0357    Co
C      0.76367  0.15914   0.7364     C
C      0.76492  0.91544   0.9448     C
N      0.76641  0.49222  0.94911     N
C      0.76644  0.07688   0.9872     C
H       0.7713    0.662   0.2722     H
H       0.7724   0.4948   0.7807     H
C      0.77456  0.50892    0.833     C
H       0.7807   0.2142   0.3985     H
C      0.78769  0.75758   0.9131     C
O      0.78898  0.12296  0.78214     O
C      0.78984  0.58548   0.9525     C
C      0.79176  0.98592   0.5572     C
C      0.79564  0.58548   0.4525     C
N       0.7967   0.5992  0.88416     N
H       0.8003   0.6356   0.9972     H
C      0.80107  0.11874   0.5095     C
N       0.8025   0.5992  0.38416     N
N      0.80422  0.32244    0.996     N
C      0.80584  0.01408   0.9428     C
C      0.80588  0.84596   0.8973     C
N      0.80626  0.17852  0.98606     N
C      0.80976  0.29532   0.6756     C
H       0.8198   0.6836   0.1444     H
C      0.81992  0.69064   0.8672     C
H       0.8221   0.9624   0.5885     H
O       0.8275    0.432  0.17211     O
H       0.8353   0.6356   0.4972     H
H       0.8367   0.1856   0.5098     H
C      0.83727  0.42794   0.6149     C
N       0.8378   0.7924   0.1019     N
C      0.83814  0.70788   0.3035     C
C      0.83854  0.26128   0.7312     C
C        0.843   0.7522   0.1543     C
C      0.84948  0.08456   0.5552     C
C      0.85562  0.86364   0.8331     C
H       0.8597   0.0376   0.9115     H
H       0.8638   0.6836   0.6444     H
H       0.8674   0.9216   0.8209     H
C      0.86974  0.70788   0.8035     C
C      0.87072  0.69064   0.3672     C
C       0.8748   0.8896   0.1368     C
C      0.87564  0.39048    0.671     C
O      0.88029  0.51818   0.6208     O
H       0.8815   0.9374   0.1131     H
N      0.88208  0.81396  0.22022     N
O      0.88671  0.54102  0.10704     O
C      0.88744  0.79608   0.7878     C
H       0.8907    0.662   0.7722     H
C      0.89684  0.51128   0.1641     C
C       0.9028   0.9096   0.2143     C
C      0.90774  0.32948   0.9806     C
C      0.90864  0.79608   0.2878     C
C       0.9092   0.7522   0.6543     C
C      0.91032  0.24184   0.9748     C
H       0.9286   0.9704   0.2525     H
N      0.93188  0.81396  0.72022     N
C      0.93429  0.32478   0.7824     C
H       0.9441   0.0626   0.3869     H
H       0.9458   0.0784   0.6791     H
H       0.9536   0.3028   0.8201     H
N       0.9546   0.7924   0.6019     N
H       0.9582   0.0296   0.2475     H
C      0.95992  0.15404   0.6027     C
H       0.9676   0.3866    0.975     H
C      0.96989  0.75758   0.4131     C
H        0.971   0.2274    0.965     H
C      0.97284  0.45268   0.7227     C
H       0.9815   0.4834   0.2805     H
C       0.9852   0.1104   0.3632     C
H       0.9904   0.7436   0.4553     H
C      0.99198  0.13636   0.6669     C
C       0.9932   0.0904   0.2857     C
C      0.99809  0.57938   0.2215     C
