data_I
_chemical_name_common  '/home/zhangsd/repos/MofS-CGCNN/ML/data/SSD/clean_cifs/ZOMKAP01_clean'
_cell_length_a  8.43210
_cell_length_b 13.18710
_cell_length_c  9.55050
_cell_angle_alpha 90.00000
_cell_angle_beta  94.38500
_cell_angle_gamma 90.00000
_space_group_name_H-M_alt      'P 1'


loop_
_space_group_symop_operation_xyz
  'x, y, z' 

loop_
_atom_site_label
_atom_site_fract_x
_atom_site_fract_y
_atom_site_fract_z
_atom_site_type_symbol
C       0.0208   0.0492   0.3727     C
O       0.0339   0.2073   0.2504     O
C       0.0352   0.1113   0.2423     C
Tb     0.03853  0.22989  0.98942    Tb
O       0.0435   0.0678   0.1229     O
C       0.0953   0.0268   0.6231     C
C       0.1181   0.0753   0.4944     C
O       0.1556   0.1134   0.8429     O
O       0.1587    0.513   0.7385     O
O       0.1614   0.6425   0.1173     O
C       0.2043   0.0522   0.7546     C
O       0.2168   0.7143   0.9186     O
C       0.2474   0.6486   0.0152     C
C       0.2526   0.1486   0.4848     C
O       0.2832   0.2143   0.5814     O
C       0.2957   0.5522   0.7454     C
O       0.3386   0.1425   0.3827     O
O       0.3413    0.013   0.7615     O
O       0.3444   0.6134   0.6571     O
C       0.3819   0.5753   0.0056     C
C       0.4047   0.5268   0.8769     C
O       0.4565   0.5678   0.3771     O
Tb     0.46147  0.72989  0.51058    Tb
C       0.4648   0.6113   0.2577     C
O       0.4661   0.7073   0.2496     O
C       0.4792   0.5492   0.1273     C
C       0.5208   0.4508   0.8727     C
O       0.5339   0.2927   0.7504     O
C       0.5352   0.3887   0.7423     C
Tb     0.53853  0.27011  0.48942    Tb
O       0.5435   0.4322   0.6229     O
C       0.5953   0.4732   0.1231     C
C       0.6181   0.4247   0.9944     C
O       0.6556   0.3866   0.3429     O
O       0.6587    0.987   0.2385     O
O       0.6614   0.8575   0.6173     O
C       0.7043   0.4478   0.2546     C
O       0.7168   0.7857   0.4186     O
C       0.7474   0.8514   0.5152     C
C       0.7526   0.3514   0.9848     C
O       0.7832   0.2857   0.0814     O
C       0.7957   0.9478   0.2454     C
O       0.8386   0.3575   0.8827     O
O       0.8413    0.487   0.2615     O
O       0.8444   0.8866   0.1571     O
C       0.8819   0.9247   0.5056     C
C       0.9047   0.9732   0.3769     C
O       0.9565   0.9322   0.8771     O
Tb     0.96147  0.77011  0.01058    Tb
C       0.9648   0.8887   0.7577     C
O       0.9661   0.7927   0.7496     O
C       0.9792   0.9508   0.6273     C
