data_I
_chemical_name_common  '/home/zhangsd/repos/MofS-CGCNN/ML/data/SSD/clean_cifs/ZOMPAU01_clean'
_cell_length_a  8.50280
_cell_length_b 13.11080
_cell_length_c  9.58310
_cell_angle_alpha 90.00000
_cell_angle_beta  96.03800
_cell_angle_gamma 90.00000
_space_group_name_H-M_alt      'P 1'


loop_
_space_group_symop_operation_xyz
  'x, y, z' 

loop_
_atom_site_label
_atom_site_fract_x
_atom_site_fract_y
_atom_site_fract_z
_atom_site_type_symbol
C       0.0256   0.0482   0.3762     C
C       0.0428   0.1102   0.2447     C
O       0.0464   0.0669   0.1272     O
Eu     0.04926  0.23308  0.99571    Eu
O       0.0523    0.207   0.2565     O
C        0.094   0.0269    0.627     C
C       0.1212   0.0735   0.4993     C
O        0.146   0.6279   0.0997     O
O       0.1519    0.115   0.8439     O
O       0.1667   0.5077   0.7231     O
C       0.1998   0.0514     0.76     C
O        0.211   0.7133   0.9145     O
C       0.2389   0.6437   0.0064     C
C       0.2611   0.1437   0.4936     C
O        0.289   0.2133   0.5855     O
C       0.3002   0.5514     0.74     C
O       0.3333   0.0077   0.7769     O
O       0.3481    0.615   0.6561     O
O        0.354   0.1279   0.4003     O
C       0.3788   0.5735   0.0007     C
C        0.406   0.5269    0.873     C
O       0.4477    0.707   0.2435     O
Eu     0.45074  0.73308  0.50429    Eu
O       0.4536   0.5669   0.3728     O
C       0.4572   0.6102   0.2553     C
C       0.4744   0.5482   0.1238     C
C       0.5256   0.4518   0.8762     C
C       0.5428   0.3898   0.7447     C
O       0.5464   0.4331   0.6272     O
Eu     0.54926  0.26692  0.49571    Eu
O       0.5523    0.293   0.7565     O
C        0.594   0.4731    0.127     C
C       0.6212   0.4265   0.9993     C
O        0.646   0.8721   0.5997     O
O       0.6519    0.385   0.3439     O
O       0.6667   0.9923   0.2231     O
C       0.6998   0.4486     0.26     C
O        0.711   0.7867   0.4145     O
C       0.7389   0.8563   0.5064     C
C       0.7611   0.3563   0.9936     C
O        0.789   0.2867   0.0855     O
C       0.8002   0.9486     0.24     C
O       0.8333   0.4923   0.2769     O
O       0.8481    0.885   0.1561     O
O        0.854   0.3721   0.9003     O
C       0.8788   0.9265   0.5007     C
C        0.906   0.9731    0.373     C
O       0.9477    0.793   0.7435     O
Eu     0.95074  0.76692  0.00429    Eu
O       0.9536   0.9331   0.8728     O
C       0.9572   0.8898   0.7553     C
C       0.9744   0.9518   0.6238     C
