data_I
_chemical_name_common  '/home/zhangsd/repos/MofS-CGCNN/ML/data/SSD/clean_cifs/ZOXTEN_clean'
_cell_length_a  9.17740
_cell_length_b 12.93680
_cell_length_c 18.50230
_cell_angle_alpha 71.95000
_cell_angle_beta  75.64030
_cell_angle_gamma 69.22480
_space_group_name_H-M_alt      'P 1'


loop_
_space_group_symop_operation_xyz
  'x, y, z' 

loop_
_atom_site_label
_atom_site_fract_x
_atom_site_fract_y
_atom_site_fract_z
_atom_site_type_symbol
C       0.0005    0.941   0.8142     C
O      0.01967  0.59876   0.4953     O
C       0.0215    0.158   0.2002     C
C       0.0256   0.7178   0.7346     C
O       0.0303   0.5525   0.1189     O
O       0.0345   0.2735   0.9555     O
N       0.0349   0.0346   0.5958     N
H       0.0387   0.6971   0.6289     H
O      0.05433  0.03344   0.1217     O
C       0.0615   0.6407   0.0793     C
C       0.0618   0.1396    0.571     C
N       0.0625   0.8099   0.7333     N
C       0.0675    0.779   0.4572     C
H       0.0711   0.5814   0.6918     H
O      0.07728  0.99654   0.7615     O
N      0.07785   0.3098   0.2039     N
C       0.0899   0.6543   0.6731     C
C       0.1065   0.9486   0.4192     C
C       0.1078   0.2321   0.1615     C
H       0.1099   0.1074   0.4094     H
O      0.11373  0.90124   0.0047     O
C       0.1163   0.6537   0.4801     C
Ho     0.15286  0.08834  0.99486    Ho
O      0.16468  0.49654   0.2615     O
N       0.1723   0.8374   0.4506     N
C       0.1868   0.0363   0.4033     C
Zn     0.20052  0.91098  0.66468    Zn
H       0.2013   0.6434    0.659     H
O      0.20947  0.46656   0.3783     O
C       0.2185   0.1407   0.5793     C
Zn     0.22382  0.41098  0.16468    Zn
C       0.2262   0.2384    0.092     C
C       0.2276   0.6396    0.071     C
Ho     0.23606  0.41166  0.50514    Ho
H       0.2425   0.0458   0.3516     H
C       0.2443    0.441   0.3142     C
C       0.2501   0.8463   0.0199     C
H       0.2602   0.0126   0.4386     H
O      0.26036  0.60088   0.4826     O
O       0.2635   0.2265   0.5445     O
H       0.2664    0.807   0.4646     H
O      0.26739  0.16332   0.0539     O
O      0.28721  0.31758    0.074     O
H       0.2886   0.5126   0.9386     H
O       0.2983   0.0525   0.6189     O
C       0.3037    0.721   0.0428     C
O      0.32121  0.81758    0.574     O
N       0.3347   0.5346   0.0958     N
O      0.34384  0.89912   0.0174     O
H       0.3443   0.9186   0.8082     H
H       0.3601   0.5458   0.8516     H
H       0.3647   0.8029   0.8711     H
H       0.3733   0.6074   0.9094     H
C       0.3736   0.5363   0.9033     C
C       0.3797    0.342   0.2998     C
N       0.3943   0.3099   0.2333     N
N      0.40845   0.8098   0.7039     N
C       0.4173   0.8457   0.8269     C
C       0.4434   0.7384    0.592     C
N       0.4603   0.6626   0.0494     N
H        0.462    0.307   0.9646     H
C       0.4743   0.5514   0.0808     C
C        0.478   0.7822   0.7654     C
O      0.48461  0.33668   0.4461     O
H       0.4963   0.1434    0.159     H
C       0.4986   0.7321   0.6615     C
C       0.5014   0.2679   0.3385     C
H       0.5037   0.8566    0.841     H
O      0.51539  0.66332   0.5539     O
C        0.522   0.2178   0.2346     C
C       0.5257   0.4486   0.9192     C
H        0.538    0.693   0.0354     H
N       0.5397   0.3374   0.9506     N
C       0.5566   0.2616    0.408     C
C       0.5827   0.1543   0.1731     C
N      0.59155   0.1902   0.2961     N
N       0.6057   0.6901   0.7667     N
C       0.6203    0.658   0.7002     C
C       0.6264   0.4637   0.0967     C
H       0.6267   0.3926   0.0906     H
H       0.6353   0.1971   0.1289     H
H       0.6399   0.4542   0.1484     H
H       0.6557   0.0814   0.1918     H
O      0.65616  0.10088   0.9826     O
N       0.6653   0.4654   0.9042     N
O      0.67879  0.18242    0.426     O
C       0.6963    0.279   0.9572     C
O       0.7017   0.9475   0.3811     O
H       0.7114   0.4874   0.0614     H
O      0.71279  0.68242    0.926     O
O      0.73261  0.83668   0.9461     O
H       0.7336    0.193   0.5354     H
O       0.7365   0.7735   0.4555     O
O      0.73964  0.39912   0.5174     O
H       0.7398   0.9874   0.5614     H
C       0.7499   0.1537   0.9801     C
C       0.7557    0.559   0.6858     C
H       0.7575   0.9542   0.6484     H
Ho     0.76394  0.58834  0.49486    Ho
C       0.7724   0.3604    0.929     C
C       0.7738   0.7616    0.908     C
Zn     0.77618  0.58902  0.83532    Zn
C       0.7815   0.8593   0.4207     C
O      0.79053  0.53344   0.6217     O
H       0.7987   0.3566    0.341     H
Zn     0.79948  0.08902  0.33532    Zn
C       0.8132   0.9637   0.5967     C
N       0.8277   0.1626   0.5494     N
O      0.83532  0.50346   0.7385     O
Ho     0.84714  0.91166  0.00514    Ho
C       0.8837   0.3463   0.5199     C
O      0.88627  0.09876   0.9953     O
H       0.8901   0.8926   0.5906     H
C       0.8922   0.7679   0.8385     C
C       0.8935   0.0514   0.5808     C
C       0.9101   0.3457   0.3269     C
N      0.92215   0.6902   0.7961     N
O      0.92272  0.00346   0.2385     O
H       0.9289   0.4186   0.3082     H
C       0.9325    0.221   0.5428     C
N       0.9375   0.1901   0.2667     N
C       0.9382   0.8604    0.429     C
C       0.9385   0.3593   0.9207     C
O      0.94567  0.96656   0.8783     O
H       0.9613   0.3029   0.3711     H
N       0.9651   0.9654   0.4042     N
O       0.9655   0.7265   0.0445     O
O       0.9697   0.4475   0.8811     O
C       0.9744   0.2822   0.2654     C
C       0.9785    0.842   0.7998     C
O      0.98033  0.40124   0.5047     O
C       0.9995    0.059   0.1858     C
