data_I
_chemical_name_common  '/home/zhangsd/repos/MofS-CGCNN/ML/data/SSD/clean_cifs/ZOYKAB_clean'
_cell_length_a 13.07210
_cell_length_b 13.07210
_cell_length_c 11.14660
_cell_angle_alpha 90.00000
_cell_angle_beta  90.00000
_cell_angle_gamma 90.00000
_space_group_name_H-M_alt      'P 1'


loop_
_space_group_symop_operation_xyz
  'x, y, z' 

loop_
_atom_site_label
_atom_site_fract_x
_atom_site_fract_y
_atom_site_fract_z
_atom_site_type_symbol
H       0.0027   0.6226   0.5622     H
C       0.0106   0.1598   0.2021     C
H       0.0174   0.8765   0.7659     H
C        0.018   0.3107   0.0785     C
C       0.0199   0.7399   0.6789     C
H       0.0514   0.8911   0.3987     H
C       0.0833   0.1155   0.1286     C
C       0.0864   0.2621   0.0028     C
C       0.0974   0.6909   0.7599     C
H       0.1089   0.0514   0.1487     H
C       0.1155   0.9167   0.3786     C
C        0.119   0.1629   0.0268     C
O       0.1227   0.6014   0.7359     O
H       0.1235   0.0174   0.5159     H
O       0.1283   0.4086   0.8859     O
H       0.1295   0.8361   0.2253     H
C       0.1317   0.3134   0.8925     C
O        0.132   0.7432   0.8441     O
C       0.1598   0.9894   0.4521     C
C       0.1629    0.881   0.2768     C
H       0.1639   0.1295   0.9753     H
O       0.1685   0.2553   0.8157     O
H        0.202   0.4295   0.1123     H
H       0.2181   0.2759   0.2131     H
H       0.2237   0.6246   0.5424     H
Mn     0.24177  0.51143  0.81134    Mn
Mn     0.24817  0.28036  0.65987    Mn
O       0.2553   0.8315   0.0657     O
O       0.2561   0.4449   0.6262     O
O       0.2568    0.132   0.5941     O
C       0.2601   0.0199   0.4289     C
C       0.2621   0.9136   0.2528     C
C        0.265   0.4106   0.1442     C
O       0.2702    0.591   0.9903     O
C       0.2748   0.3182   0.2043     C
H       0.2759   0.7819   0.4631     H
Mn     0.28036  0.75183  0.90987    Mn
C        0.288   0.6315   0.5015     C
C       0.3091   0.0974   0.5099     C
C       0.3107    0.982   0.3285     C
C       0.3134   0.8683   0.1425     C
C       0.3182   0.7252   0.4543     C
C       0.3267   0.4463    0.546     C
C       0.3394   0.5752   0.0686     C
C       0.3477   0.4742   0.1317     C
C       0.3536   0.5467   0.4888     C
O       0.3567   0.4055   0.8486     O
O       0.3651    0.629   0.7645     O
C       0.3685    0.288   0.2515     C
O        0.371   0.3651   0.5145     O
H       0.3754   0.2237   0.2924     H
H       0.3774   0.0027   0.3122     H
O       0.3986   0.1227   0.4859     O
O       0.4055   0.6433   0.0986     O
O       0.4086   0.8717   0.1359     O
O        0.409   0.2702   0.7403     O
C       0.4106    0.735   0.3942     C
C       0.4248   0.3394   0.8186     C
H       0.4295    0.798   0.3623     H
C       0.4432   0.4456   0.1804     C
O       0.4449   0.7439   0.8762     O
C       0.4456   0.5568   0.4304     C
C       0.4463   0.6733    0.796     C
C       0.4533   0.3536   0.2388     C
C       0.4742   0.6523   0.3817     C
Mn     0.48857  0.24177  0.56134    Mn
H       0.4889   0.5007    0.423     H
H       0.4993   0.4889    0.173     H
H       0.5007   0.5111    0.673     H
H       0.5111   0.4993    0.923     H
Mn     0.51143  0.75823  0.06134    Mn
C       0.5258   0.3477   0.8817     C
C       0.5467   0.6464   0.7388     C
C       0.5537   0.3267    0.296     C
C       0.5544   0.4432   0.9304     C
O       0.5551   0.2561   0.3762     O
C       0.5568   0.5544   0.6804     C
H       0.5705    0.202   0.8623     H
C       0.5752   0.6606   0.3186     C
C       0.5894    0.265   0.8942     C
O        0.591   0.7298   0.2403     O
O       0.5914   0.1283   0.6359     O
O       0.5945   0.3567   0.5986     O
O       0.6014   0.8773   0.9859     O
H       0.6226   0.9973   0.8122     H
H       0.6246   0.7763   0.7924     H
O        0.629   0.6349   0.0145     O
C       0.6315    0.712   0.7515     C
O       0.6349    0.371   0.2645     O
O       0.6433   0.5945   0.3486     O
C       0.6464   0.4533   0.9888     C
C       0.6523   0.5258   0.6317     C
C       0.6606   0.4248   0.5686     C
C       0.6733   0.5537    0.046     C
C       0.6818   0.2748   0.9543     C
C       0.6866   0.1317   0.6425     C
C       0.6893    0.018   0.8285     C
C       0.6909   0.9026   0.0099     C
C        0.712   0.3685   0.0015     C
Mn     0.71964  0.24817  0.40987    Mn
H       0.7241   0.2181   0.9631     H
C       0.7252   0.6818   0.7043     C
O       0.7298    0.409   0.4903     O
C        0.735   0.5894   0.6442     C
C       0.7379   0.0864   0.7528     C
C       0.7399   0.9801   0.9289     C
O       0.7432    0.868   0.0941     O
O       0.7439   0.5551   0.1262     O
O       0.7447   0.1685   0.5657     O
Mn     0.75183  0.71964  0.15987    Mn
Mn     0.75823  0.48857  0.31134    Mn
H       0.7763   0.3754   0.0424     H
H       0.7819   0.7241   0.7131     H
H        0.798   0.5705   0.6123     H
O       0.8315   0.7447   0.3157     O
H       0.8361   0.8705   0.4753     H
C       0.8371    0.119   0.7768     C
C       0.8402   0.0106   0.9521     C
O        0.868   0.2568   0.3441     O
C       0.8683   0.6866   0.3925     C
H       0.8705   0.1639   0.7253     H
O       0.8717   0.5914   0.3859     O
H       0.8765   0.9826   0.0159     H
O       0.8773   0.3986   0.2359     O
C        0.881   0.8371   0.5268     C
C       0.8845   0.0833   0.8786     C
H       0.8911   0.9486   0.6487     H
C       0.9026   0.3091   0.2599     C
C       0.9136   0.7379   0.5028     C
C       0.9167   0.8845   0.6286     C
H       0.9486   0.1089   0.8987     H
C       0.9801   0.2601   0.1789     C
C        0.982   0.6893   0.5785     C
H       0.9826   0.1235   0.2659     H
C       0.9894   0.8402   0.7021     C
H       0.9973   0.3774   0.0622     H
