data_I
_chemical_name_common  '/home/zhangsd/repos/MofS-CGCNN/ML/data/SSD/clean_cifs/ZUKNAW_clean'
_cell_length_a 37.68980
_cell_length_b 37.68980
_cell_length_c 14.25760
_cell_angle_alpha 90.00000
_cell_angle_beta  90.00000
_cell_angle_gamma 90.00000
_space_group_name_H-M_alt      'P 1'


loop_
_space_group_symop_operation_xyz
  'x, y, z' 

loop_
_atom_site_label
_atom_site_fract_x
_atom_site_fract_y
_atom_site_fract_z
_atom_site_type_symbol
Mn     0.00104  0.75107  0.64682    Mn
Mo     0.00429  0.16039   0.1654    Mo
Mo     0.00622  0.66257  0.62866    Mo
O      0.01194  0.28914   0.2271     O
O      0.01426   0.7921   0.5669     O
O      0.01632  0.21268   0.2445     O
O      0.01827   0.2443   0.9203     O
O      0.01839  0.71531   0.5492     O
O      0.01941  0.74474   0.8743     O
Mo     0.03282  0.29052  0.95836    Mo
Mo     0.03386  0.79225  0.83693    Mo
O      0.03527  0.32281   0.0625     O
Mo     0.03706  0.20219  0.97513    Mo
O      0.03723  0.82499   0.7326     O
Mo     0.03959  0.70374  0.81769    Mo
O      0.04315  0.17622    0.092     O
O       0.0436  0.25013   0.0808     O
H       0.0438   0.2895   0.3402     H
H       0.0448   0.7885   0.4541     H
O      0.04629  0.75137   0.7126     O
O      0.04643  0.67716   0.7013     O
C       0.0467   0.2886   0.2712     C
C       0.0484   0.7888   0.5229     C
H       0.0493   0.2229   0.3508     H
C       0.0512   0.2208   0.2818     C
H       0.0515   0.7252   0.4422     H
C       0.0534   0.7231   0.5112     C
H       0.0602   0.3099   0.2517     H
H       0.0624   0.8103    0.538     H
H       0.0672   0.2005   0.2682     H
C       0.0681   0.2544   0.2437     C
H       0.0693   0.7029   0.5249     H
C       0.0705   0.7567   0.5487     C
C       0.0757   0.2537   0.1382     C
C      0.07739   0.7559   0.6564     C
H       0.0849   0.2633    0.429     H
H       0.0881   0.2759   0.1205     H
H       0.0891   0.7783   0.6748     H
H       0.0918   0.2336   0.1243     H
H        0.094   0.7362   0.6703     H
H       0.0979   0.8018   0.4193     H
C       0.1037   0.2592   0.2937     C
C       0.1063   0.2624   0.3936     C
C       0.1068   0.7589   0.5026     C
C       0.1151   0.7845   0.4362     C
H       0.1292   0.7191   0.5746     H
C       0.1329   0.7356   0.5253     C
C       0.1358   0.2587   0.2505     C
H        0.137   0.2572    0.184     H
C       0.1372   0.2641   0.4396     C
H       0.1373   0.2663    0.506     H
C       0.1482   0.7849   0.3944     C
H        0.154   0.8039   0.3532     H
Mo     0.16039  0.00429   0.8346    Mo
Mo     0.16257  0.49378  0.87866    Mo
C       0.1651   0.7357   0.4768     C
C       0.1672   0.2605   0.3029     C
N       0.1691   0.2629   0.3914     N
N       0.1724   0.7596   0.4098     N
O      0.17501  0.96277   0.7674     O
O      0.17622  0.04315    0.908     O
O      0.17716  0.45357   0.9513     O
O      0.17719  0.53527   0.8125     O
I      0.18093  0.74984  0.15746     I
H       0.1824   0.7183   0.4918     H
H       0.1889   0.2598   0.2692     H
H       0.1897   0.9376    0.962     H
H       0.1901   0.5602   0.0017     H
H       0.1961    0.846   0.1468     H
H       0.1982   0.9021   0.0807     H
H       0.2005   0.0672   0.7318     H
I      0.20145  0.24662  0.63481     I
Mo     0.20219  0.03706  0.02487    Mo
H       0.2029   0.4307   0.7749     H
Mo     0.20374  0.46041  0.06769    Mo
Mo     0.20775  0.96614  0.66307    Mo
O       0.2079  0.98574   0.9331     O
Mo     0.20948  0.53282  0.70836    Mo
H       0.2105   0.5438   0.0902     H
O      0.21086  0.51194   0.9771     O
C       0.2112   0.9516   0.9771     C
C       0.2114   0.5467   0.0212     C
H       0.2115   0.9552   0.0459     H
O      0.21268  0.01632   0.7555     O
C       0.2151   0.8518   0.1056     C
O      0.21531  0.48161   0.7992     O
C       0.2155   0.8849   0.0638     C
Cu     0.21598  0.25892  0.45576    Cu
Cu     0.21656  0.75819  0.32992    Cu
H       0.2183   0.3176   0.7418     H
H       0.2191   0.3708   0.8246     H
C       0.2208   0.0512   0.7182     C
H       0.2217   0.9109   0.8252     H
H       0.2229   0.0493   0.6492     H
C       0.2231   0.4466   0.7612     C
H       0.2241   0.5881   0.8705     H
H       0.2252   0.4485   0.6922     H
H       0.2336   0.0918   0.8757     H
H       0.2337   0.6373    0.256     H
C       0.2356   0.3671   0.7753     C
C       0.2357   0.3349   0.7268     C
C       0.2359   0.6372   0.1896     C
H       0.2362    0.406   0.9203     H
H       0.2367   0.5849    0.179     H
N       0.2371   0.6691   0.1414     N
C       0.2376   0.6063   0.1436     C
C       0.2395   0.6672   0.0529     C
H       0.2402   0.6889   0.0192     H
N       0.2404   0.8276   0.0902     N
C       0.2408   0.6037   0.0437     C
Cu     0.24108  0.71598  0.20576    Cu
C       0.2411   0.8932   0.9974     C
C       0.2413   0.6358   0.0005     C
Cu     0.24181  0.78344  0.17008    Cu
H       0.2428    0.637    0.934     H
C       0.2433   0.9295   0.9513     C
C       0.2441  0.92261   0.8436     C
O       0.2443  0.01827   0.0797     O
O      0.24474  0.48059   0.1243     O
C       0.2456   0.5681   0.9937     C
C       0.2463   0.5757   0.8882     C
I      0.24662  0.20145  0.36519     I
O      0.24863  0.95371   0.7874     O
Mn     0.24893  0.99896  0.85318    Mn
I      0.24984  0.31907  0.40746     I
O      0.24987   0.5436   0.8308     O
O      0.25013   0.0436   0.9192     O
I      0.25016  0.81907  0.34254     I
Mn     0.25107  0.49896  0.89682    Mn
O      0.25137  0.45371   0.9626     O
I      0.25338  0.70145  0.38481     I
C       0.2537   0.0757   0.8618     C
C       0.2544   0.0681   0.7563     C
O      0.25526  0.98059   0.6257     O
O       0.2557  0.51827   0.6703     O
C       0.2559  0.42261   0.9064     C
C       0.2567   0.4295   0.7987     C
H       0.2572    0.137    0.816     H
Cu     0.25819  0.28344  0.57992    Cu
C       0.2587   0.1358   0.7495     C
C       0.2589   0.3932   0.7526     C
Cu     0.25892  0.21598  0.54424    Cu
C       0.2592   0.1037   0.7063     C
N       0.2596   0.3276   0.6598     N
H       0.2598   0.1889   0.7308     H
C       0.2605   0.1672   0.6971     C
C       0.2624   0.1063   0.6064     C
N       0.2629   0.1691   0.6086     N
H       0.2633   0.0849    0.571     H
H       0.2638    0.906   0.8297     H
C       0.2641   0.1372   0.5604     C
C       0.2643   0.8349   0.0232     C
C       0.2644   0.8671   0.9747     C
H       0.2663   0.1373    0.494     H
H       0.2664   0.5918   0.8743     H
H       0.2748   0.9485   0.0578     H
H       0.2759   0.0881   0.8795     H
C       0.2769   0.9466   0.9888     C
H       0.2771   0.5493   0.1008     H
H       0.2783   0.4109   0.9248     H
C       0.2792   0.5512   0.0318     C
H       0.2809   0.8708   0.9254     H
H       0.2817   0.8176   0.0082     H
Cu     0.28344  0.25819  0.42008    Cu
Cu     0.28402  0.75892  0.29424    Cu
C       0.2845   0.3849   0.6862     C
O      0.28469  0.98161   0.9508     O
C       0.2849   0.3518   0.6444     C
O      0.28732  0.51632   0.9945     O
H       0.2885   0.4552   0.7041     H
C       0.2886   0.0467   0.7288     C
C       0.2888   0.4516   0.7729     C
O      0.28914  0.01194   0.7729     O
H       0.2895   0.0438   0.6598     H
Mo     0.29052  0.03282  0.04164    Mo
O       0.2921  0.48574   0.8169     O
Mo     0.29225  0.46614  0.08693    Mo
Mo     0.29626  0.96041  0.68231    Mo
H       0.2971   0.9307   0.9751     H
Mo     0.29781  0.53706  0.72513    Mo
I      0.29855  0.74662  0.11519     I
H       0.2995   0.5672   0.0182     H
H       0.3018   0.4021   0.6693     H
H       0.3039    0.346   0.6032     H
H       0.3099   0.0602   0.7483     H
H       0.3103   0.4376    0.788     H
H       0.3111   0.7598   0.4808     H
H       0.3176   0.2183   0.2582     H
I      0.31907  0.24984  0.59254     I
O      0.32281  0.03527   0.9375     O
O      0.32284  0.95357   0.7987     O
O      0.32378  0.54315    0.842     O
O      0.32499  0.46277   0.9826     O
N       0.3276   0.2596   0.3402     N
N       0.3309   0.7629   0.3586     N
C       0.3328   0.7605   0.4471     C
C       0.3349   0.2357   0.2732     C
Mo     0.33743  0.99378  0.87134    Mo
Mo     0.33961  0.50429   0.9154    Mo
H        0.346   0.3039   0.3968     H
C       0.3518   0.2849   0.3556     C
H       0.3627   0.7663    0.244     H
C       0.3628   0.7641   0.3104     C
H        0.363   0.7572    0.566     H
C       0.3642   0.7587   0.4995     C
C       0.3671   0.2356   0.2247     C
H       0.3708   0.2191   0.1754     H
C       0.3849   0.2845   0.3138     C
C       0.3932   0.2589   0.2474     C
C       0.3937   0.7624   0.3564     C
C       0.3963   0.7592   0.4563     C
H       0.4021   0.3018   0.3307     H
H        0.406   0.2362   0.0797     H
H       0.4082   0.7336   0.6257     H
H       0.4109   0.2783   0.0752     H
H       0.4119   0.7759   0.6295     H
H       0.4151   0.7633    0.321     H
C      0.42261   0.2559   0.0936     C
C       0.4243   0.7537   0.6118     C
C       0.4295   0.2567   0.2013     C
H       0.4307   0.2029   0.2251     H
C       0.4319   0.7544   0.5063     C
H       0.4328   0.7005   0.4818     H
H       0.4376   0.3103    0.212     H
H       0.4398   0.8099   0.4983     H
C       0.4466   0.2231   0.2388     C
H       0.4485   0.2252   0.3078     H
C       0.4488   0.7208   0.4682     C
H       0.4507   0.7229   0.3992     H
C       0.4516   0.2888   0.2271     C
C       0.4533   0.7886   0.4788     C
O      0.45357  0.17716   0.0487     O
O      0.45371  0.25137   0.0374     O
H       0.4552   0.2885   0.2959     H
H       0.4562   0.7895   0.4098     H
O       0.4564  0.75013   0.6692     O
O      0.45685  0.67622    0.658     O
Mo     0.46041  0.20374  0.93231    Mo
O      0.46277  0.32499   0.0174     O
Mo     0.46294  0.70219  0.77487    Mo
O      0.46473  0.82281   0.6875     O
Mo     0.46614  0.29225  0.91307    Mo
Mo     0.46718  0.79052  0.79164    Mo
O      0.48059  0.24474   0.8757     O
O      0.48161  0.21531   0.2008     O
O      0.48173   0.7443   0.8297     O
O      0.48368  0.71268   0.5055     O
O      0.48574   0.2921   0.1831     O
O      0.48806  0.78914   0.5229     O
Mo     0.49378  0.16257  0.12134    Mo
Mo     0.49571  0.66039   0.5846    Mo
Mn     0.49896  0.25107  0.10318    Mn
Mn     0.50104  0.74893  0.60318    Mn
Mo     0.50429  0.33961   0.0846    Mo
Mo     0.50622  0.83743  0.62134    Mo
O      0.51194  0.21086   0.0229     O
O      0.51426   0.7079   0.6831     O
O      0.51632  0.28732   0.0055     O
O      0.51827   0.2557   0.3297     O
O      0.51839  0.78469   0.7008     O
O      0.51941  0.75526   0.3757     O
Mo     0.53282  0.20948  0.29164    Mo
Mo     0.53386  0.70775  0.41307    Mo
O      0.53527  0.17719   0.1875     O
Mo     0.53706  0.29781  0.27487    Mo
O      0.53723  0.67501   0.5174     O
Mo     0.53959  0.79626  0.43231    Mo
O      0.54315  0.32378    0.158     O
O       0.5436  0.24987   0.1692     O
H       0.5438   0.2105   0.9098     H
H       0.5448   0.7115   0.7959     H
O      0.54629  0.74863   0.5374     O
O      0.54643  0.82284   0.5487     O
C       0.5467   0.2114   0.9788     C
C       0.5484   0.7112   0.7271     C
H       0.5493   0.2771   0.8992     H
C       0.5512   0.2792   0.9682     C
H       0.5515   0.7748   0.8078     H
C       0.5534   0.7769   0.7388     C
H       0.5602   0.1901   0.9983     H
H       0.5624   0.6897    0.712     H
H       0.5672   0.2995   0.9818     H
C       0.5681   0.2456   0.0063     C
H       0.5693   0.7971   0.7251     H
C       0.5705   0.7433   0.7013     C
C       0.5757   0.2463   0.1118     C
C      0.57739   0.7441   0.5936     C
H       0.5849   0.2367    0.821     H
H       0.5881   0.2241   0.1295     H
H       0.5891   0.7217   0.5752     H
H       0.5918   0.2664   0.1257     H
H        0.594   0.7638   0.5797     H
H       0.5979   0.6982   0.8307     H
C       0.6037   0.2408   0.9563     C
C       0.6063   0.2376   0.8564     C
C       0.6068   0.7411   0.7474     C
C       0.6151   0.7155   0.8138     C
H       0.6292   0.7809   0.6754     H
C       0.6329   0.7644   0.7247     C
C       0.6358   0.2413   0.9995     C
H        0.637   0.2428    0.066     H
C       0.6372   0.2359   0.8104     C
H       0.6373   0.2337    0.744     H
C       0.6482   0.7151   0.8556     C
H        0.654   0.6961   0.8968     H
Mo     0.66039  0.49571   0.4154    Mo
Mo     0.66257  0.00622  0.37134    Mo
C       0.6651   0.7643   0.7732     C
C       0.6672   0.2395   0.9471     C
N       0.6691   0.2371   0.8586     N
N       0.6724   0.7404   0.8402     N
O      0.67501  0.53723   0.4826     O
O      0.67622  0.45685    0.342     O
O      0.67716  0.04643   0.2987     O
O      0.67719  0.96473   0.4375     O
I      0.68093  0.75016  0.09254     I
H       0.6824   0.7817   0.7582     H
H       0.6889   0.2402   0.9808     H
H       0.6897   0.5624    0.288     H
H       0.6901   0.9398   0.2483     H
H       0.6961    0.654   0.1032     H
H       0.6982   0.5979   0.1693     H
H       0.7005   0.4328   0.5182     H
I      0.70145  0.25338  0.61519     I
Mo     0.70219  0.46294  0.22513    Mo
H       0.7029   0.0693   0.4751     H
Mo     0.70374  0.03959  0.18231    Mo
Mo     0.70775  0.53386  0.58693    Mo
O       0.7079  0.51426   0.3169     O
Mo     0.70948  0.96718  0.54164    Mo
H       0.7105   0.9562   0.1598     H
O      0.71086  0.98806   0.2729     O
C       0.7112   0.5484   0.2729     C
C       0.7114   0.9533   0.2288     C
H       0.7115   0.5448   0.2041     H
O      0.71268  0.48368   0.4945     O
C       0.7151   0.6482   0.1444     C
O      0.71531  0.01839   0.4508     O
C       0.7155   0.6151   0.1862     C
Cu     0.71598  0.24108  0.79424    Cu
Cu     0.71656  0.74181  0.92008    Cu
H       0.7183   0.1824   0.5082     H
H       0.7191   0.1292   0.4254     H
C       0.7208   0.4488   0.5318     C
H       0.7217   0.5891   0.4248     H
H       0.7229   0.4507   0.6008     H
C       0.7231   0.0534   0.4888     C
H       0.7241   0.9119   0.3795     H
H       0.7252   0.0515   0.5578     H
H       0.7336   0.4082   0.3743     H
H       0.7337   0.8627    0.994     H
C       0.7356   0.1329   0.4747     C
C       0.7357   0.1651   0.5232     C
C       0.7359   0.8628   0.0604     C
H       0.7362    0.094   0.3297     H
H       0.7367   0.9151    0.071     H
N       0.7371   0.8309   0.1086     N
C       0.7376   0.8937   0.1064     C
C       0.7395   0.8328   0.1971     C
H       0.7402   0.8111   0.2308     H
N       0.7404   0.6724   0.1598     N
C       0.7408   0.8963   0.2063     C
Cu     0.74108  0.78402  0.04424    Cu
C       0.7411   0.6068   0.2526     C
C       0.7413   0.8642   0.2495     C
Cu     0.74181  0.71656  0.07992    Cu
H       0.7428    0.863    0.316     H
C       0.7433   0.5705   0.2987     C
C       0.7441  0.57739   0.4064     C
O       0.7443  0.48173   0.1703     O
O      0.74474  0.01941   0.1257     O
C       0.7456   0.9319   0.2563     C
C       0.7463   0.9243   0.3618     C
I      0.74662  0.29855  0.88481     I
O      0.74863  0.54629   0.4626     O
Mn     0.74893  0.50104  0.39682    Mn
I      0.74984  0.18093  0.84254     I
O      0.74987   0.9564   0.4192     O
O      0.75013   0.4564   0.3308     O
I      0.75016  0.68093  0.90746     I
Mn     0.75107  0.00104  0.35318    Mn
O      0.75137  0.04629   0.2874     O
I      0.75338  0.79855  0.86519     I
C       0.7537   0.4243   0.3882     C
C       0.7544   0.4319   0.4937     C
O      0.75526  0.51941   0.6243     O
O       0.7557  0.98173   0.5797     O
C       0.7559  0.07739   0.3436     C
C       0.7567   0.0705   0.4513     C
H       0.7572    0.363    0.434     H
Cu     0.75819  0.21656  0.67008    Cu
C       0.7587   0.3642   0.5005     C
C       0.7589   0.1068   0.4974     C
Cu     0.75892  0.28402  0.70576    Cu
C       0.7592   0.3963   0.5437     C
N       0.7596   0.1724   0.5902     N
H       0.7598   0.3111   0.5192     H
C       0.7605   0.3328   0.5529     C
C       0.7624   0.3937   0.6436     C
N       0.7629   0.3309   0.6414     N
H       0.7633   0.4151    0.679     H
H       0.7638    0.594   0.4203     H
C       0.7641   0.3628   0.6896     C
C       0.7643   0.6651   0.2268     C
C       0.7644   0.6329   0.2753     C
H       0.7663   0.3627    0.756     H
H       0.7664   0.9082   0.3757     H
H       0.7748   0.5515   0.1922     H
H       0.7759   0.4119   0.3705     H
C       0.7769   0.5534   0.2612     C
H       0.7771   0.9507   0.1492     H
H       0.7783   0.0891   0.3252     H
C       0.7792   0.9488   0.2182     C
H       0.7809   0.6292   0.3246     H
H       0.7817   0.6824   0.2418     H
Cu     0.78344  0.24181  0.82992    Cu
Cu     0.78402  0.74108  0.95576    Cu
C       0.7845   0.1151   0.5638     C
O      0.78469  0.51839   0.2992     O
C       0.7849   0.1482   0.6056     C
O      0.78732  0.98368   0.2555     O
H       0.7885   0.0448   0.5459     H
C       0.7886   0.4533   0.5212     C
C       0.7888   0.0484   0.4771     C
O      0.78914  0.48806   0.4771     O
H       0.7895   0.4562   0.5902     H
Mo     0.79052  0.46718  0.20836    Mo
O       0.7921  0.01426   0.4331     O
Mo     0.79225  0.03386  0.16307    Mo
Mo     0.79626  0.53959  0.56769    Mo
H       0.7971   0.5693   0.2749     H
Mo     0.79781  0.96294  0.52487    Mo
I      0.79855  0.75338  0.13481     I
H       0.7995   0.9328   0.2318     H
H       0.8018   0.0979   0.5807     H
H       0.8039    0.154   0.6468     H
H       0.8099   0.4398   0.5017     H
H       0.8103   0.0624    0.462     H
H       0.8111   0.7402   0.7692     H
H       0.8176   0.2817   0.9918     H
I      0.81907  0.25016  0.65746     I
O      0.82281  0.46473   0.3125     O
O      0.82284  0.54643   0.4513     O
O      0.82378  0.95685    0.408     O
O      0.82499  0.03723   0.2674     O
N       0.8276   0.2404   0.9098     N
N       0.8309   0.7371   0.8914     N
C       0.8328   0.7395   0.8029     C
C       0.8349   0.2643   0.9768     C
Mo     0.83743  0.50622  0.37866    Mo
Mo     0.83961  0.99571   0.3346    Mo
H        0.846   0.1961   0.8532     H
C       0.8518   0.2151   0.8944     C
H       0.8627   0.7337    0.006     H
C       0.8628   0.7359   0.9396     C
H        0.863   0.7428    0.684     H
C       0.8642   0.7413   0.7505     C
C       0.8671   0.2644   0.0253     C
H       0.8708   0.2809   0.0746     H
C       0.8849   0.2155   0.9362     C
C       0.8932   0.2411   0.0026     C
C       0.8937   0.7376   0.8936     C
C       0.8963   0.7408   0.7937     C
H       0.9021   0.1982   0.9193     H
H        0.906   0.2638   0.1703     H
H       0.9082   0.7664   0.6243     H
H       0.9109   0.2217   0.1748     H
H       0.9119   0.7241   0.6205     H
H       0.9151   0.7367    0.929     H
C      0.92261   0.2441   0.1564     C
C       0.9243   0.7463   0.6382     C
C       0.9295   0.2433   0.0487     C
H       0.9307   0.2971   0.0249     H
C       0.9319   0.7456   0.7437     C
H       0.9328   0.7995   0.7682     H
H       0.9376   0.1897    0.038     H
H       0.9398   0.6901   0.7517     H
C       0.9466   0.2769   0.0112     C
H       0.9485   0.2748   0.9422     H
C       0.9488   0.7792   0.7818     C
H       0.9507   0.7771   0.8508     H
C       0.9516   0.2112   0.0229     C
C       0.9533   0.7114   0.7712     C
O      0.95357  0.32284   0.2013     O
O      0.95371  0.24863   0.2126     O
H       0.9552   0.2115   0.9541     H
H       0.9562   0.7105   0.8402     H
O       0.9564  0.74987   0.5808     O
O      0.95685  0.82378    0.592     O
Mo     0.96041  0.29626  0.31769    Mo
O      0.96277  0.17501   0.2326     O
Mo     0.96294  0.79781  0.47513    Mo
O      0.96473  0.67719   0.5625     O
Mo     0.96614  0.20775  0.33693    Mo
Mo     0.96718  0.70948  0.45836    Mo
O      0.98059  0.25526   0.3743     O
O      0.98161  0.28469   0.0492     O
O      0.98173   0.7557   0.4203     O
O      0.98368  0.78732   0.7445     O
O      0.98574   0.2079   0.0669     O
O      0.98806  0.71086   0.7271     O
Mo     0.99378  0.33743  0.12866    Mo
Mo     0.99571  0.83961   0.6654    Mo
Mn     0.99896  0.24893  0.14682    Mn
