data_I
_chemical_name_common  '/home/zhangsd/repos/MofS-CGCNN/ML/data/SSD/clean_cifs/ZURROT_clean'
_cell_length_a  9.25400
_cell_length_b 12.04420
_cell_length_c 13.17000
_cell_angle_alpha 80.06370
_cell_angle_beta  69.43140
_cell_angle_gamma 67.40790
_space_group_name_H-M_alt      'P 1'


loop_
_space_group_symop_operation_xyz
  'x, y, z' 

loop_
_atom_site_label
_atom_site_fract_x
_atom_site_fract_y
_atom_site_fract_z
_atom_site_type_symbol
Cd         0.0      0.0      0.0    Cd
Cd         0.0      0.5      0.5    Cd
H       0.0013  0.77198  0.37724     H
H      0.00597  0.30882  0.39864     H
C       0.0226   0.1033   0.5159     C
N       0.0368   0.6762    0.522     N
C       0.0475   0.2135   0.5351     C
C       0.0988   0.9352   0.4086     C
H       0.1156  0.69786  0.00614     H
C       0.1216   0.0378   0.4232     C
N        0.122   0.4009   0.6321     N
H      0.15052  0.72802  0.12276     H
N        0.155   0.0991   0.8679     N
H      0.15761  0.66201  0.49425     H
H      0.17705  0.88432  0.33704     H
H       0.1804  0.19786  0.50614     H
C       0.2039   0.7135   0.0351     C
C       0.2128   0.3417   0.6771     C
H      0.21569  0.06708  0.36286     H
C       0.2316   0.1583   0.8229     C
N        0.235   0.8238    0.978     N
H      0.28657  0.80882  0.89864     H
H      0.31387  0.83799  0.00575     H
H      0.35437  0.56708  0.86286     H
C       0.3582   0.6033   0.0159     C
Ni     0.36207     0.25     0.75    Ni
H      0.39841  0.61568  0.16296     H
N       0.3988   0.8822   0.1266     N
N       0.4076   0.6178   0.3734     N
C       0.4174   0.5378   0.9232     C
C       0.4426   0.5648   0.0914     C
C       0.4889   0.8344   0.1746     C
C       0.4979   0.6656   0.3254     C
C       0.5021   0.3344   0.6746     C
C       0.5111   0.1656   0.8254     C
C       0.5574   0.4352   0.9086     C
C       0.5826   0.4622   0.0768     C
N       0.5924   0.3822   0.6266     N
N       0.6012   0.1178   0.8734     N
H      0.60159  0.38432  0.83704     H
Ni     0.63793     0.75     0.25    Ni
C       0.6418   0.3967   0.9841     C
H      0.64563  0.43292  0.13714     H
H      0.68613  0.16201  0.99425     H
H      0.71343  0.19118  0.10136     H
N        0.765   0.1762    0.022     N
C       0.7684   0.8417   0.1771     C
H      0.78431  0.93292  0.63714     H
C       0.7872   0.6583   0.3229     C
C       0.7961   0.2865   0.9649     C
H       0.8196  0.80214  0.49386     H
H      0.82295  0.11568  0.66296     H
H      0.84239  0.33799  0.50575     H
N        0.845   0.9009   0.1321     N
H      0.84948  0.27198  0.87724     H
N        0.878   0.5991   0.3679     N
C       0.8784   0.9622   0.5768     C
H       0.8844  0.30214  0.99386     H
C       0.9012   0.0648   0.5914     C
C       0.9525   0.7865   0.4649     C
N       0.9632   0.3238    0.478     N
C       0.9774   0.8967   0.4841     C
H      0.99403  0.69118  0.60136     H
H       0.9987  0.22802  0.62276     H
