data_I
_chemical_name_common  'val_40'
_cell_length_a 23.94120
_cell_length_b 23.94120
_cell_length_c 23.94120
_cell_angle_alpha 90.00000
_cell_angle_beta  90.00000
_cell_angle_gamma 90.00000
_space_group_name_H-M_alt      'P 1'


loop_
_space_group_symop_operation_xyz
  'x, y, z' 

loop_
_atom_site_label
_atom_site_fract_x
_atom_site_fract_y
_atom_site_fract_z
_atom_site_type_symbol
H     0.0010112 0.5787212 0.6291612     H
H     0.0010112 0.9212812 0.1291612     H
H     0.0012912 0.6863613 0.3151012     H
H     0.0012912 0.8136413 0.8151012     H
C     0.002951 0.5848011 0.9523011     C
C     0.002951 0.9152011 0.4523011     C
C     0.0030011 0.5725711 0.4377111     C
C     0.0030011 0.9274311 0.9377111     C
C     0.0038011 0.1390111 0.9816011     C
C     0.0038011 0.3609911 0.4816011     C
O     0.004341 0.160121 0.4572711     O
O     0.004341 0.339881 0.9572711     O
C     0.0051911 0.5424311 0.9127111     C
C     0.0051911 0.9575711 0.4127111     C
C     0.0100812 0.1782313 0.2220312     C
C     0.0100812 0.3217713 0.7220312     C
N     0.011959 0.677869 0.180459     N
N     0.011959 0.822149 0.680459     N
C     0.0146911 0.0255211 0.091001     C
C     0.0146911 0.4744811 0.591001     C
C     0.0165112 0.2157613 0.9183713     C
C     0.0165112 0.2842413 0.4183713     C
C     0.0184011 0.5038011 0.3609911     C
C     0.0184011 0.9962011 0.8609911     C
C     0.0203212 0.0532612 0.8491312     C
C     0.0203212 0.4467412 0.3491312     C
C     0.0254712 0.6880913 0.2339912     C
C     0.0254712 0.8119113 0.7339912     C
C     0.0255211 0.091001 0.0146911     C
C     0.0255211 0.409001 0.5146911     C
H     0.025681 0.1122011 0.5496811     H
H     0.025681 0.3878011 0.0496811     H
H     0.0348411 0.5925211 0.4249511     H
H     0.0348411 0.9074811 0.9249511     H
C     0.0373512 0.0388913 0.6327312     C
C     0.0373512 0.4611113 0.1327312     C
C     0.0382712 0.1546412 0.3298111     C
C     0.0382712 0.3453612 0.8298111     C
N     0.038599 0.727069 0.582979     N
N     0.038599 0.772949 0.082979     N
C     0.0388012 0.1726312 0.9493313     C
C     0.0388012 0.3273712 0.4493313     C
C     0.0388913 0.6327312 0.0373512     C
C     0.0388913 0.8672712 0.5373512     C
H     0.0410712 0.2385013 0.8970513     H
H     0.0410712 0.2615013 0.3970513     H
C     0.0424311 0.5872911 0.9948111     C
C     0.0424311 0.9127111 0.4948111     C
O     0.0427311 0.504341 0.160121     O
O     0.0427311 0.995661 0.660121     O
C     0.0477011 0.502951 0.9152011     C
C     0.0477011 0.997051 0.4152011     C
H     0.0480112 0.1458012 0.3672511     H
H     0.0480112 0.3542012 0.8672511     H
H     0.0496811 0.025681 0.3878011     H
H     0.0496811 0.474321 0.8878011     H
C     0.0506713 0.5388012 0.3273712     C
C     0.0506713 0.9612012 0.8273712     C
H     0.0513113 0.5778912 0.3341812     H
H     0.0513113 0.9221112 0.8341812     H
C     0.0531412 0.0727611 0.8059112     C
C     0.0531412 0.4272411 0.3059112     C
C     0.0532612 0.6508712 0.5203212     C
C     0.0532612 0.8491312 0.0203212     C
H     0.0546712 0.1118511 0.7992512     H
H     0.0546712 0.3881511 0.2992512     H
H     0.0614412 0.7029013 0.2418212     H
H     0.0614412 0.7971013 0.7418212     H
C     0.0622911 0.5030011 0.5725711     C
C     0.0622911 0.9970011 0.0725711     C
C     0.0629711 0.1562011 0.2323712     C
C     0.0629711 0.3438011 0.7323712     C
Zn    0.06641312 0.70131512 0.11953512    Zn
Zn    0.06641312 0.79868512 0.61953512    Zn
O     0.067008 0.083338 0.641168     O
O     0.067008 0.416678 0.141168     O
C     0.0725711 0.0622911 0.9970011     C
C     0.0725711 0.4377111 0.4970011     C
C     0.0727611 0.6940912 0.5531412     C
C     0.0727611 0.8059112 0.0531412     C
H     0.0750511 0.5348411 0.5925211     H
H     0.0750511 0.9651611 0.0925211     H
C     0.0761112 0.1432412 0.2877012     C
C     0.0761112 0.3567612 0.7877012     C
H     0.0778912 0.1658212 0.9486913     H
H     0.0778912 0.3341812 0.4486913     H
H     0.0787212 0.6291612 0.4989912     H
H     0.0787212 0.8708412 0.9989912     H
H     0.0797212 0.2180812 0.1424612     H
H     0.0797212 0.2819212 0.6424612     H
C     0.0816313 0.5165112 0.2842413     C
C     0.0816313 0.9834912 0.7842413     C
N     0.082979 0.038599 0.772949     N
N     0.082979 0.461419 0.272949     N
O     0.083338 0.641168 0.067008     O
O     0.083338 0.858848 0.567008     O
C     0.0848011 0.5477011 0.997051     C
C     0.0848011 0.9523011 0.497051     C
C     0.0872911 0.5051911 0.9575711     C
C     0.0872911 0.9948111 0.4575711     C
C     0.091001 0.0146911 0.0255211     C
C     0.091001 0.4853111 0.5255211     C
H     0.0925211 0.0750511 0.9651611     H
H     0.0925211 0.4249511 0.4651611     H
H     0.1029513 0.5410712 0.2615013     H
H     0.1029513 0.9589312 0.7615013     H
C     0.1048112 0.1496912 0.1873212     C
C     0.1048112 0.3503112 0.6873212     C
O     0.1059911 0.184251 0.7556512     O
O     0.1059911 0.315751 0.2556512     O
C     0.1071912 0.1895112 0.1444712     C
C     0.1071912 0.3104912 0.6444712     C
H     0.1110612 0.1265912 0.2964112     H
H     0.1110612 0.3734112 0.7964112     H
H     0.1118511 0.7007512 0.5546712     H
H     0.1118511 0.7992512 0.0546712     H
H     0.1122011 0.5496811 0.025681     H
H     0.1122011 0.9503211 0.525681     H
Zn    0.11953512 0.06641312 0.70131512    Zn
Zn    0.11953512 0.43358712 0.20131512    Zn
H     0.1265912 0.2035912 0.6110612     H
H     0.1265912 0.2964112 0.1110612     H
H     0.1291612 0.0010112 0.9212812     H
H     0.1291612 0.4989912 0.4212812     H
O     0.132418 0.707619 0.166138     O
O     0.132418 0.792399 0.666138     O
C     0.1327312 0.0373512 0.4611113     C
C     0.1327312 0.4626512 0.9611113     C
H     0.1327511 0.5480112 0.1458012     H
H     0.1327511 0.9519912 0.6458012     H
C     0.1390111 0.5184011 0.5038011     C
C     0.1390111 0.9816011 0.0038011     C
O     0.141168 0.067008 0.416678     O
O     0.141168 0.433008 0.916678     O
H     0.1424612 0.0797212 0.2180812     H
H     0.1424612 0.4202812 0.7180812     H
C     0.1432412 0.2123012 0.5761112     C
C     0.1432412 0.2877012 0.0761112     C
C     0.1444712 0.1071912 0.1895112     C
C     0.1444712 0.3928112 0.6895112     C
H     0.1458012 0.1327511 0.5480112     H
H     0.1458012 0.3672511 0.0480112     H
C     0.1496912 0.1873212 0.1048112     C
C     0.1496912 0.3126812 0.6048112     C
C     0.1508712 0.5203212 0.4467412     C
C     0.1508712 0.9796812 0.9467412     C
C     0.1527211 0.1762111 0.7346812     C
C     0.1527211 0.3237911 0.2346812     C
C     0.1546412 0.1701911 0.5382712     C
C     0.1546412 0.3298111 0.0382712     C
C     0.1562011 0.2323712 0.0629711     C
C     0.1562011 0.2676312 0.5629711     C
O     0.160121 0.0427311 0.504341     O
O     0.160121 0.4572711 0.004341     O
H     0.1658212 0.5513113 0.5778912     H
H     0.1658212 0.9486913 0.0778912     H
O     0.166138 0.132418 0.707619     O
O     0.166138 0.367598 0.207619     O
H     0.166671 0.2394611 0.3050611     H
H     0.166671 0.2605411 0.8050611     H
C     0.1701911 0.5382712 0.1546412     C
C     0.1701911 0.9617312 0.6546412     C
C     0.1726312 0.5506713 0.5388012     C
C     0.1726312 0.9493313 0.0388012     C
C     0.1762111 0.7346812 0.1527211     C
C     0.1762111 0.7653212 0.6527211     C
N     0.177869 0.180459 0.488059     N
N     0.177869 0.319559 0.988059     N
C     0.1782313 0.2220312 0.0100812     C
C     0.1782313 0.2779712 0.5100812     C
N     0.180459 0.011959 0.677869     N
N     0.180459 0.488059 0.177869     N
O     0.184251 0.7443512 0.6059911     O
O     0.184251 0.7556512 0.1059911     O
H     0.1849012 0.5012912 0.6863613     H
H     0.1849012 0.9987112 0.1863613     H
H     0.1863613 0.1849012 0.9987112     H
H     0.1863613 0.3151012 0.4987112     H
C     0.1873212 0.1048112 0.1496912     C
C     0.1873212 0.3951912 0.6496912     C
C     0.1880913 0.2339912 0.4745312     C
C     0.1880913 0.2660112 0.9745312     C
C     0.1895112 0.1444712 0.1071912     C
C     0.1895112 0.3555312 0.6071912     C
C     0.1940912 0.5531412 0.4272411     C
C     0.1940912 0.9468612 0.9272411     C
H     0.1949411 0.666671 0.2394611     H
H     0.1949411 0.833331 0.7394611     H
C     0.195161 0.2383311 0.2772511     C
C     0.195161 0.2616711 0.7772511     C
C     0.1962611 0.2214811 0.7354811     C
C     0.1962611 0.2785211 0.2354811     C
H     0.2007512 0.5546712 0.3881511     H
H     0.2007512 0.9453312 0.8881511     H
Zn    0.20131512 0.11953512 0.43358712    Zn
Zn    0.20131512 0.38046512 0.93358712    Zn
H     0.2029013 0.2418212 0.4385612     H
H     0.2029013 0.2581812 0.9385612     H
H     0.2035912 0.6110612 0.1265912     H
H     0.2035912 0.8889412 0.6265912     H
O     0.207619 0.166138 0.367598     O
O     0.207619 0.333878 0.867598     O
C     0.2123012 0.5761112 0.1432412     C
C     0.2123012 0.9238912 0.6432412     C
C     0.2157613 0.5816313 0.5165112     C
C     0.2157613 0.9183713 0.0165112     C
H     0.2180812 0.1424612 0.0797212     H
H     0.2180812 0.3575412 0.5797212     H
C     0.2214811 0.7354811 0.1962611     C
C     0.2214811 0.7645211 0.6962611     C
C     0.2220312 0.0100812 0.1782313     C
C     0.2220312 0.4899212 0.6782313     C
C     0.2227511 0.695161 0.2383311     C
C     0.2227511 0.804841 0.7383311     C
N     0.227069 0.582979 0.461419     N
N     0.227069 0.917039 0.961419     N
C     0.2323712 0.0629711 0.1562011     C
C     0.2323712 0.4370311 0.6562011     C
C     0.2339912 0.0254712 0.6880913     C
C     0.2339912 0.4745312 0.1880913     C
C     0.2346812 0.1527211 0.3237911     C
C     0.2346812 0.3472811 0.8237911     C
C     0.2354811 0.1962611 0.2785211     C
C     0.2354811 0.3037411 0.7785211     C
C     0.2383311 0.2227511 0.695161     C
C     0.2383311 0.2772511 0.195161     C
H     0.2385013 0.6029513 0.5410712     H
H     0.2385013 0.8970513 0.0410712     H
H     0.2394611 0.1949411 0.666671     H
H     0.2394611 0.3050611 0.166671     H
H     0.2418212 0.0614412 0.7029013     H
H     0.2418212 0.4385612 0.2029013     H
O     0.2443512 0.6059911 0.315751     O
O     0.2443512 0.8940111 0.815751     O
O     0.2556512 0.1059911 0.315751     O
O     0.2556512 0.3940111 0.815751     O
H     0.2581812 0.5614412 0.7029013     H
H     0.2581812 0.9385612 0.2029013     H
H     0.2605411 0.6949411 0.666671     H
H     0.2605411 0.8050611 0.166671     H
H     0.2615013 0.1029513 0.5410712     H
H     0.2615013 0.3970513 0.0410712     H
C     0.2616711 0.7227511 0.695161     C
C     0.2616711 0.7772511 0.195161     C
C     0.2645211 0.6962611 0.2785211     C
C     0.2645211 0.8037411 0.7785211     C
C     0.2653212 0.6527211 0.3237911     C
C     0.2653212 0.8472811 0.8237911     C
C     0.2660112 0.5254712 0.6880913     C
C     0.2660112 0.9745312 0.1880913     C
C     0.2676312 0.5629711 0.1562011     C
C     0.2676312 0.9370311 0.6562011     C
N     0.272949 0.082979 0.461419     N
N     0.272949 0.417039 0.961419     N
C     0.2772511 0.195161 0.2383311     C
C     0.2772511 0.304841 0.7383311     C
C     0.2779712 0.5100812 0.1782313     C
C     0.2779712 0.9899212 0.6782313     C
C     0.2785211 0.2354811 0.1962611     C
C     0.2785211 0.2645211 0.6962611     C
H     0.2819212 0.6424612 0.0797212     H
H     0.2819212 0.8575412 0.5797212     H
C     0.2842413 0.0816313 0.5165112     C
C     0.2842413 0.4183713 0.0165112     C
C     0.2877012 0.0761112 0.1432412     C
C     0.2877012 0.4238912 0.6432412     C
O     0.292399 0.666138 0.367598     O
O     0.292399 0.833878 0.867598     O
H     0.2964112 0.1110612 0.1265912     H
H     0.2964112 0.3889412 0.6265912     H
H     0.2971013 0.7418212 0.4385612     H
H     0.2971013 0.7581812 0.9385612     H
Zn    0.29868512 0.61953512 0.43358712    Zn
Zn    0.29868512 0.88046512 0.93358712    Zn
H     0.2992512 0.0546712 0.3881511     H
H     0.2992512 0.4453312 0.8881511     H
C     0.3037411 0.7214811 0.7354811     C
C     0.3037411 0.7785211 0.2354811     C
C     0.304841 0.7383311 0.2772511     C
C     0.304841 0.7616711 0.7772511     C
H     0.3050611 0.166671 0.2394611     H
H     0.3050611 0.333331 0.7394611     H
C     0.3059112 0.0531412 0.4272411     C
C     0.3059112 0.4468612 0.9272411     C
C     0.3104912 0.6444712 0.1071912     C
C     0.3104912 0.8555312 0.6071912     C
C     0.3119113 0.7339912 0.4745312     C
C     0.3119113 0.7660112 0.9745312     C
C     0.3126812 0.6048112 0.1496912     C
C     0.3126812 0.8951912 0.6496912     C
H     0.3136413 0.6849012 0.9987112     H
H     0.3136413 0.8151012 0.4987112     H
H     0.3151012 0.0012912 0.6863613     H
H     0.3151012 0.4987112 0.1863613     H
O     0.315751 0.2443512 0.6059911     O
O     0.315751 0.2556512 0.1059911     O
N     0.319559 0.511959 0.677869     N
N     0.319559 0.988059 0.177869     N
C     0.3217713 0.7220312 0.0100812     C
C     0.3217713 0.7779712 0.5100812     C
N     0.322149 0.680459 0.488059     N
N     0.322149 0.819559 0.988059     N
C     0.3237911 0.2346812 0.1527211     C
C     0.3237911 0.2653212 0.6527211     C
C     0.3273712 0.0506713 0.5388012     C
C     0.3273712 0.4493313 0.0388012     C
C     0.3298111 0.0382712 0.1546412     C
C     0.3298111 0.4617312 0.6546412     C
H     0.333331 0.7394611 0.3050611     H
H     0.333331 0.7605411 0.8050611     H
O     0.333878 0.632418 0.707619     O
O     0.333878 0.867598 0.207619     O
H     0.3341812 0.0513113 0.5778912     H
H     0.3341812 0.4486913 0.0778912     H
O     0.339881 0.5427311 0.504341     O
O     0.339881 0.9572711 0.004341     O
C     0.3438011 0.7323712 0.0629711     C
C     0.3438011 0.7676312 0.5629711     C
C     0.3453612 0.6701911 0.5382712     C
C     0.3453612 0.8298111 0.0382712     C
C     0.3472811 0.6762111 0.7346812     C
C     0.3472811 0.8237911 0.2346812     C
C     0.3491312 0.0203212 0.4467412     C
C     0.3491312 0.4796812 0.9467412     C
C     0.3503112 0.6873212 0.1048112     C
C     0.3503112 0.8126812 0.6048112     C
H     0.3542012 0.6327511 0.5480112     H
H     0.3542012 0.8672511 0.0480112     H
C     0.3555312 0.6071912 0.1895112     C
C     0.3555312 0.8928112 0.6895112     C
C     0.3567612 0.7123012 0.5761112     C
C     0.3567612 0.7877012 0.0761112     C
H     0.3575412 0.5797212 0.2180812     H
H     0.3575412 0.9202812 0.7180812     H
O     0.358848 0.567008 0.416678     O
O     0.358848 0.933008 0.916678     O
C     0.3609911 0.0184011 0.5038011     C
C     0.3609911 0.4816011 0.0038011     C
H     0.3672511 0.0480112 0.1458012     H
H     0.3672511 0.4519912 0.6458012     H
C     0.3672712 0.5373512 0.4611113     C
C     0.3672712 0.9626512 0.9611113     C
O     0.367598 0.207619 0.166138     O
O     0.367598 0.292399 0.666138     O
H     0.3708412 0.5010112 0.9212812     H
H     0.3708412 0.9989912 0.4212812     H
H     0.3734112 0.7035912 0.6110612     H
H     0.3734112 0.7964112 0.1110612     H
Zn    0.38046512 0.56641312 0.70131512    Zn
Zn    0.38046512 0.93358712 0.20131512    Zn
H     0.3878011 0.0496811 0.025681     H
H     0.3878011 0.4503211 0.525681     H
H     0.3881511 0.2007512 0.5546712     H
H     0.3881511 0.2992512 0.0546712     H
H     0.3889412 0.6265912 0.2964112     H
H     0.3889412 0.8734112 0.7964112     H
C     0.3928112 0.6895112 0.1444712     C
C     0.3928112 0.8104912 0.6444712     C
O     0.3940111 0.684251 0.7556512     O
O     0.3940111 0.815751 0.2556512     O
C     0.3951912 0.6496912 0.1873212     C
C     0.3951912 0.8503112 0.6873212     C
H     0.3970513 0.0410712 0.2615013     H
H     0.3970513 0.4589312 0.7615013     H
H     0.4074811 0.5750511 0.9651611     H
H     0.4074811 0.9249511 0.4651611     H
C     0.409001 0.5146911 0.0255211     C
C     0.409001 0.9853111 0.5255211     C
C     0.4127111 0.0051911 0.9575711     C
C     0.4127111 0.4948111 0.4575711     C
C     0.4152011 0.0477011 0.997051     C
C     0.4152011 0.4523011 0.497051     C
O     0.416678 0.141168 0.067008     O
O     0.416678 0.358848 0.567008     O
N     0.417039 0.538599 0.772949     N
N     0.417039 0.961419 0.272949     N
C     0.4183713 0.0165112 0.2842413     C
C     0.4183713 0.4834912 0.7842413     C
H     0.4202812 0.7180812 0.1424612     H
H     0.4202812 0.7819212 0.6424612     H
H     0.4212812 0.1291612 0.4989912     H
H     0.4212812 0.3708412 0.9989912     H
H     0.4221112 0.6658212 0.9486913     H
H     0.4221112 0.8341812 0.4486913     H
C     0.4238912 0.6432412 0.2877012     C
C     0.4238912 0.8567612 0.7877012     C
H     0.4249511 0.0348411 0.5925211     H
H     0.4249511 0.4651611 0.0925211     H
C     0.4272411 0.1940912 0.5531412     C
C     0.4272411 0.3059112 0.0531412     C
C     0.4274311 0.5622911 0.9970011     C
C     0.4274311 0.9377111 0.4970011     C
O     0.433008 0.583338 0.641168     O
O     0.433008 0.916678 0.141168     O
Zn    0.43358712 0.20131512 0.11953512    Zn
Zn    0.43358712 0.29868512 0.61953512    Zn
C     0.4370311 0.6562011 0.2323712     C
C     0.4370311 0.8438011 0.7323712     C
C     0.4377111 0.0030011 0.5725711     C
C     0.4377111 0.4970011 0.0725711     C
H     0.4385612 0.2029013 0.2418212     H
H     0.4385612 0.2971013 0.7418212     H
H     0.4453312 0.6118511 0.7992512     H
H     0.4453312 0.8881511 0.2992512     H
C     0.4467412 0.1508712 0.5203212     C
C     0.4467412 0.3491312 0.0203212     C
C     0.4468612 0.5727611 0.8059112     C
C     0.4468612 0.9272411 0.3059112     C
H     0.4486913 0.0778912 0.3341812     H
H     0.4486913 0.4221112 0.8341812     H
C     0.4493313 0.0388012 0.3273712     C
C     0.4493313 0.4612012 0.8273712     C
H     0.4503211 0.525681 0.3878011     H
H     0.4503211 0.974321 0.8878011     H
H     0.4519912 0.6458012 0.3672511     H
H     0.4519912 0.8542012 0.8672511     H
C     0.4523011 0.002951 0.9152011     C
C     0.4523011 0.497051 0.4152011     C
O     0.4572711 0.004341 0.160121     O
O     0.4572711 0.495661 0.660121     O
C     0.4575711 0.0872911 0.9948111     C
C     0.4575711 0.4127111 0.4948111     C
H     0.4589312 0.7385013 0.8970513     H
H     0.4589312 0.7615013 0.3970513     H
C     0.4611113 0.1327312 0.0373512     C
C     0.4611113 0.3672712 0.5373512     C
C     0.4612012 0.6726312 0.9493313     C
C     0.4612012 0.8273712 0.4493313     C
N     0.461419 0.227069 0.582979     N
N     0.461419 0.272949 0.082979     N
C     0.4617312 0.6546412 0.3298111     C
C     0.4617312 0.8453612 0.8298111     C
C     0.4626512 0.5388913 0.6327312     C
C     0.4626512 0.9611113 0.1327312     C
H     0.4651611 0.0925211 0.4249511     H
H     0.4651611 0.4074811 0.9249511     H
H     0.474321 0.6122011 0.5496811     H
H     0.474321 0.8878011 0.0496811     H
C     0.4744811 0.591001 0.0146911     C
C     0.4744811 0.909001 0.5146911     C
C     0.4745312 0.1880913 0.2339912     C
C     0.4745312 0.3119113 0.7339912     C
C     0.4796812 0.5532612 0.8491312     C
C     0.4796812 0.9467412 0.3491312     C
C     0.4816011 0.0038011 0.3609911     C
C     0.4816011 0.4962011 0.8609911     C
C     0.4834912 0.7157613 0.9183713     C
C     0.4834912 0.7842413 0.4183713     C
C     0.4853111 0.5255211 0.091001     C
C     0.4853111 0.9744811 0.591001     C
N     0.488059 0.177869 0.180459     N
N     0.488059 0.322149 0.680459     N
C     0.4899212 0.6782313 0.2220312     C
C     0.4899212 0.8217713 0.7220312     C
C     0.4948111 0.0424311 0.9127111     C
C     0.4948111 0.4575711 0.4127111     C
O     0.495661 0.660121 0.4572711     O
O     0.495661 0.839881 0.9572711     O
C     0.4962011 0.6390111 0.9816011     C
C     0.4962011 0.8609911 0.4816011     C
C     0.4970011 0.0725711 0.4377111     C
C     0.4970011 0.4274311 0.9377111     C
C     0.497051 0.0848011 0.9523011     C
C     0.497051 0.4152011 0.4523011     C
H     0.4987112 0.1863613 0.3151012     H
H     0.4987112 0.3136413 0.8151012     H
H     0.4989912 0.0787212 0.6291612     H
H     0.4989912 0.4212812 0.1291612     H
H     0.5010112 0.5787212 0.8708412     H
H     0.5010112 0.9212812 0.3708412     H
H     0.5012912 0.6863613 0.1849012     H
H     0.5012912 0.8136413 0.6849012     H
C     0.502951 0.5848011 0.5477011     C
C     0.502951 0.9152011 0.0477011     C
C     0.5030011 0.5725711 0.0622911     C
C     0.5030011 0.9274311 0.5622911     C
C     0.5038011 0.1390111 0.5184011     C
C     0.5038011 0.3609911 0.0184011     C
O     0.504341 0.160121 0.0427311     O
O     0.504341 0.339881 0.5427311     O
C     0.5051911 0.5424311 0.5872911     C
C     0.5051911 0.9575711 0.0872911     C
C     0.5100812 0.1782313 0.2779712     C
C     0.5100812 0.3217713 0.7779712     C
N     0.511959 0.677869 0.319559     N
N     0.511959 0.822149 0.819559     N
C     0.5146911 0.0255211 0.409001     C
C     0.5146911 0.4744811 0.909001     C
C     0.5165112 0.2157613 0.5816313     C
C     0.5165112 0.2842413 0.0816313     C
C     0.5184011 0.5038011 0.1390111     C
C     0.5184011 0.9962011 0.6390111     C
C     0.5203212 0.0532612 0.6508712     C
C     0.5203212 0.4467412 0.1508712     C
C     0.5254712 0.6880913 0.2660112     C
C     0.5254712 0.8119113 0.7660112     C
C     0.5255211 0.091001 0.4853111     C
C     0.5255211 0.409001 0.9853111     C
H     0.525681 0.1122011 0.9503211     H
H     0.525681 0.3878011 0.4503211     H
H     0.5348411 0.5925211 0.0750511     H
H     0.5348411 0.9074811 0.5750511     H
C     0.5373512 0.0388913 0.8672712     C
C     0.5373512 0.4611113 0.3672712     C
C     0.5382712 0.1546412 0.1701911     C
C     0.5382712 0.3453612 0.6701911     C
N     0.538599 0.727069 0.917039     N
N     0.538599 0.772949 0.417039     N
C     0.5388012 0.1726312 0.5506713     C
C     0.5388012 0.3273712 0.0506713     C
C     0.5388913 0.6327312 0.4626512     C
C     0.5388913 0.8672712 0.9626512     C
H     0.5410712 0.2385013 0.6029513     H
H     0.5410712 0.2615013 0.1029513     H
C     0.5424311 0.5872911 0.5051911     C
C     0.5424311 0.9127111 0.0051911     C
O     0.5427311 0.504341 0.339881     O
O     0.5427311 0.995661 0.839881     O
C     0.5477011 0.502951 0.5848011     C
C     0.5477011 0.997051 0.0848011     C
H     0.5480112 0.1458012 0.1327511     H
H     0.5480112 0.3542012 0.6327511     H
H     0.5496811 0.025681 0.1122011     H
H     0.5496811 0.474321 0.6122011     H
C     0.5506713 0.5388012 0.1726312     C
C     0.5506713 0.9612012 0.6726312     C
H     0.5513113 0.5778912 0.1658212     H
H     0.5513113 0.9221112 0.6658212     H
C     0.5531412 0.0727611 0.6940912     C
C     0.5531412 0.4272411 0.1940912     C
C     0.5532612 0.6508712 0.9796812     C
C     0.5532612 0.8491312 0.4796812     C
H     0.5546712 0.1118511 0.7007512     H
H     0.5546712 0.3881511 0.2007512     H
H     0.5614412 0.7029013 0.2581812     H
H     0.5614412 0.7971013 0.7581812     H
C     0.5622911 0.5030011 0.9274311     C
C     0.5622911 0.9970011 0.4274311     C
C     0.5629711 0.1562011 0.2676312     C
C     0.5629711 0.3438011 0.7676312     C
Zn    0.56641312 0.70131512 0.38046512    Zn
Zn    0.56641312 0.79868512 0.88046512    Zn
O     0.567008 0.083338 0.858848     O
O     0.567008 0.416678 0.358848     O
C     0.5725711 0.0622911 0.5030011     C
C     0.5725711 0.4377111 0.0030011     C
C     0.5727611 0.6940912 0.9468612     C
C     0.5727611 0.8059112 0.4468612     C
H     0.5750511 0.5348411 0.9074811     H
H     0.5750511 0.9651611 0.4074811     H
C     0.5761112 0.1432412 0.2123012     C
C     0.5761112 0.3567612 0.7123012     C
H     0.5778912 0.1658212 0.5513113     H
H     0.5778912 0.3341812 0.0513113     H
H     0.5787212 0.6291612 0.0010112     H
H     0.5787212 0.8708412 0.5010112     H
H     0.5797212 0.2180812 0.3575412     H
H     0.5797212 0.2819212 0.8575412     H
C     0.5816313 0.5165112 0.2157613     C
C     0.5816313 0.9834912 0.7157613     C
N     0.582979 0.038599 0.727069     N
N     0.582979 0.461419 0.227069     N
O     0.583338 0.641168 0.433008     O
O     0.583338 0.858848 0.933008     O
C     0.5848011 0.5477011 0.502951     C
C     0.5848011 0.9523011 0.002951     C
C     0.5872911 0.5051911 0.5424311     C
C     0.5872911 0.9948111 0.0424311     C
C     0.591001 0.0146911 0.4744811     C
C     0.591001 0.4853111 0.9744811     C
H     0.5925211 0.0750511 0.5348411     H
H     0.5925211 0.4249511 0.0348411     H
H     0.6029513 0.5410712 0.2385013     H
H     0.6029513 0.9589312 0.7385013     H
C     0.6048112 0.1496912 0.3126812     C
C     0.6048112 0.3503112 0.8126812     C
O     0.6059911 0.184251 0.7443512     O
O     0.6059911 0.315751 0.2443512     O
C     0.6071912 0.1895112 0.3555312     C
C     0.6071912 0.3104912 0.8555312     C
H     0.6110612 0.1265912 0.2035912     H
H     0.6110612 0.3734112 0.7035912     H
H     0.6118511 0.7007512 0.9453312     H
H     0.6118511 0.7992512 0.4453312     H
H     0.6122011 0.5496811 0.474321     H
H     0.6122011 0.9503211 0.974321     H
Zn    0.61953512 0.06641312 0.79868512    Zn
Zn    0.61953512 0.43358712 0.29868512    Zn
H     0.6265912 0.2035912 0.8889412     H
H     0.6265912 0.2964112 0.3889412     H
H     0.6291612 0.0010112 0.5787212     H
H     0.6291612 0.4989912 0.0787212     H
O     0.632418 0.707619 0.333878     O
O     0.632418 0.792399 0.833878     O
C     0.6327312 0.0373512 0.0388913     C
C     0.6327312 0.4626512 0.5388913     C
H     0.6327511 0.5480112 0.3542012     H
H     0.6327511 0.9519912 0.8542012     H
C     0.6390111 0.5184011 0.9962011     C
C     0.6390111 0.9816011 0.4962011     C
O     0.641168 0.067008 0.083338     O
O     0.641168 0.433008 0.583338     O
H     0.6424612 0.0797212 0.2819212     H
H     0.6424612 0.4202812 0.7819212     H
C     0.6432412 0.2123012 0.9238912     C
C     0.6432412 0.2877012 0.4238912     C
C     0.6444712 0.1071912 0.3104912     C
C     0.6444712 0.3928112 0.8104912     C
H     0.6458012 0.1327511 0.9519912     H
H     0.6458012 0.3672511 0.4519912     H
C     0.6496912 0.1873212 0.3951912     C
C     0.6496912 0.3126812 0.8951912     C
C     0.6508712 0.5203212 0.0532612     C
C     0.6508712 0.9796812 0.5532612     C
C     0.6527211 0.1762111 0.7653212     C
C     0.6527211 0.3237911 0.2653212     C
C     0.6546412 0.1701911 0.9617312     C
C     0.6546412 0.3298111 0.4617312     C
C     0.6562011 0.2323712 0.4370311     C
C     0.6562011 0.2676312 0.9370311     C
O     0.660121 0.0427311 0.995661     O
O     0.660121 0.4572711 0.495661     O
H     0.6658212 0.5513113 0.9221112     H
H     0.6658212 0.9486913 0.4221112     H
O     0.666138 0.132418 0.792399     O
O     0.666138 0.367598 0.292399     O
H     0.666671 0.2394611 0.1949411     H
H     0.666671 0.2605411 0.6949411     H
C     0.6701911 0.5382712 0.3453612     C
C     0.6701911 0.9617312 0.8453612     C
C     0.6726312 0.5506713 0.9612012     C
C     0.6726312 0.9493313 0.4612012     C
C     0.6762111 0.7346812 0.3472811     C
C     0.6762111 0.7653212 0.8472811     C
N     0.677869 0.180459 0.011959     N
N     0.677869 0.319559 0.511959     N
C     0.6782313 0.2220312 0.4899212     C
C     0.6782313 0.2779712 0.9899212     C
N     0.680459 0.011959 0.822149     N
N     0.680459 0.488059 0.322149     N
O     0.684251 0.7443512 0.8940111     O
O     0.684251 0.7556512 0.3940111     O
H     0.6849012 0.5012912 0.8136413     H
H     0.6849012 0.9987112 0.3136413     H
H     0.6863613 0.1849012 0.5012912     H
H     0.6863613 0.3151012 0.0012912     H
C     0.6873212 0.1048112 0.3503112     C
C     0.6873212 0.3951912 0.8503112     C
C     0.6880913 0.2339912 0.0254712     C
C     0.6880913 0.2660112 0.5254712     C
C     0.6895112 0.1444712 0.3928112     C
C     0.6895112 0.3555312 0.8928112     C
C     0.6940912 0.5531412 0.0727611     C
C     0.6940912 0.9468612 0.5727611     C
H     0.6949411 0.666671 0.2605411     H
H     0.6949411 0.833331 0.7605411     H
C     0.695161 0.2383311 0.2227511     C
C     0.695161 0.2616711 0.7227511     C
C     0.6962611 0.2214811 0.7645211     C
C     0.6962611 0.2785211 0.2645211     C
H     0.7007512 0.5546712 0.1118511     H
H     0.7007512 0.9453312 0.6118511     H
Zn    0.70131512 0.11953512 0.06641312    Zn
Zn    0.70131512 0.38046512 0.56641312    Zn
H     0.7029013 0.2418212 0.0614412     H
H     0.7029013 0.2581812 0.5614412     H
H     0.7035912 0.6110612 0.3734112     H
H     0.7035912 0.8889412 0.8734112     H
O     0.707619 0.166138 0.132418     O
O     0.707619 0.333878 0.632418     O
C     0.7123012 0.5761112 0.3567612     C
C     0.7123012 0.9238912 0.8567612     C
C     0.7157613 0.5816313 0.9834912     C
C     0.7157613 0.9183713 0.4834912     C
H     0.7180812 0.1424612 0.4202812     H
H     0.7180812 0.3575412 0.9202812     H
C     0.7214811 0.7354811 0.3037411     C
C     0.7214811 0.7645211 0.8037411     C
C     0.7220312 0.0100812 0.3217713     C
C     0.7220312 0.4899212 0.8217713     C
C     0.7227511 0.695161 0.2616711     C
C     0.7227511 0.804841 0.7616711     C
N     0.727069 0.582979 0.038599     N
N     0.727069 0.917039 0.538599     N
C     0.7323712 0.0629711 0.3438011     C
C     0.7323712 0.4370311 0.8438011     C
C     0.7339912 0.0254712 0.8119113     C
C     0.7339912 0.4745312 0.3119113     C
C     0.7346812 0.1527211 0.1762111     C
C     0.7346812 0.3472811 0.6762111     C
C     0.7354811 0.1962611 0.2214811     C
C     0.7354811 0.3037411 0.7214811     C
C     0.7383311 0.2227511 0.804841     C
C     0.7383311 0.2772511 0.304841     C
H     0.7385013 0.6029513 0.9589312     H
H     0.7385013 0.8970513 0.4589312     H
H     0.7394611 0.1949411 0.833331     H
H     0.7394611 0.3050611 0.333331     H
H     0.7418212 0.0614412 0.7971013     H
H     0.7418212 0.4385612 0.2971013     H
O     0.7443512 0.6059911 0.184251     O
O     0.7443512 0.8940111 0.684251     O
O     0.7556512 0.1059911 0.184251     O
O     0.7556512 0.3940111 0.684251     O
H     0.7581812 0.5614412 0.7971013     H
H     0.7581812 0.9385612 0.2971013     H
H     0.7605411 0.6949411 0.833331     H
H     0.7605411 0.8050611 0.333331     H
H     0.7615013 0.1029513 0.9589312     H
H     0.7615013 0.3970513 0.4589312     H
C     0.7616711 0.7227511 0.804841     C
C     0.7616711 0.7772511 0.304841     C
C     0.7645211 0.6962611 0.2214811     C
C     0.7645211 0.8037411 0.7214811     C
C     0.7653212 0.6527211 0.1762111     C
C     0.7653212 0.8472811 0.6762111     C
C     0.7660112 0.5254712 0.8119113     C
C     0.7660112 0.9745312 0.3119113     C
C     0.7676312 0.5629711 0.3438011     C
C     0.7676312 0.9370311 0.8438011     C
N     0.772949 0.082979 0.038599     N
N     0.772949 0.417039 0.538599     N
C     0.7772511 0.195161 0.2616711     C
C     0.7772511 0.304841 0.7616711     C
C     0.7779712 0.5100812 0.3217713     C
C     0.7779712 0.9899212 0.8217713     C
C     0.7785211 0.2354811 0.3037411     C
C     0.7785211 0.2645211 0.8037411     C
H     0.7819212 0.6424612 0.4202812     H
H     0.7819212 0.8575412 0.9202812     H
C     0.7842413 0.0816313 0.9834912     C
C     0.7842413 0.4183713 0.4834912     C
C     0.7877012 0.0761112 0.3567612     C
C     0.7877012 0.4238912 0.8567612     C
O     0.792399 0.666138 0.132418     O
O     0.792399 0.833878 0.632418     O
H     0.7964112 0.1110612 0.3734112     H
H     0.7964112 0.3889412 0.8734112     H
H     0.7971013 0.7418212 0.0614412     H
H     0.7971013 0.7581812 0.5614412     H
Zn    0.79868512 0.61953512 0.06641312    Zn
Zn    0.79868512 0.88046512 0.56641312    Zn
H     0.7992512 0.0546712 0.1118511     H
H     0.7992512 0.4453312 0.6118511     H
C     0.8037411 0.7214811 0.7645211     C
C     0.8037411 0.7785211 0.2645211     C
C     0.804841 0.7383311 0.2227511     C
C     0.804841 0.7616711 0.7227511     C
H     0.8050611 0.166671 0.2605411     H
H     0.8050611 0.333331 0.7605411     H
C     0.8059112 0.0531412 0.0727611     C
C     0.8059112 0.4468612 0.5727611     C
C     0.8104912 0.6444712 0.3928112     C
C     0.8104912 0.8555312 0.8928112     C
C     0.8119113 0.7339912 0.0254712     C
C     0.8119113 0.7660112 0.5254712     C
C     0.8126812 0.6048112 0.3503112     C
C     0.8126812 0.8951912 0.8503112     C
H     0.8136413 0.6849012 0.5012912     H
H     0.8136413 0.8151012 0.0012912     H
H     0.8151012 0.0012912 0.8136413     H
H     0.8151012 0.4987112 0.3136413     H
O     0.815751 0.2443512 0.8940111     O
O     0.815751 0.2556512 0.3940111     O
N     0.819559 0.511959 0.822149     N
N     0.819559 0.988059 0.322149     N
C     0.8217713 0.7220312 0.4899212     C
C     0.8217713 0.7779712 0.9899212     C
N     0.822149 0.680459 0.011959     N
N     0.822149 0.819559 0.511959     N
C     0.8237911 0.2346812 0.3472811     C
C     0.8237911 0.2653212 0.8472811     C
C     0.8273712 0.0506713 0.9612012     C
C     0.8273712 0.4493313 0.4612012     C
C     0.8298111 0.0382712 0.3453612     C
C     0.8298111 0.4617312 0.8453612     C
H     0.833331 0.7394611 0.1949411     H
H     0.833331 0.7605411 0.6949411     H
O     0.833878 0.632418 0.792399     O
O     0.833878 0.867598 0.292399     O
H     0.8341812 0.0513113 0.9221112     H
H     0.8341812 0.4486913 0.4221112     H
O     0.839881 0.5427311 0.995661     O
O     0.839881 0.9572711 0.495661     O
C     0.8438011 0.7323712 0.4370311     C
C     0.8438011 0.7676312 0.9370311     C
C     0.8453612 0.6701911 0.9617312     C
C     0.8453612 0.8298111 0.4617312     C
C     0.8472811 0.6762111 0.7653212     C
C     0.8472811 0.8237911 0.2653212     C
C     0.8491312 0.0203212 0.0532612     C
C     0.8491312 0.4796812 0.5532612     C
C     0.8503112 0.6873212 0.3951912     C
C     0.8503112 0.8126812 0.8951912     C
H     0.8542012 0.6327511 0.9519912     H
H     0.8542012 0.8672511 0.4519912     H
C     0.8555312 0.6071912 0.3104912     C
C     0.8555312 0.8928112 0.8104912     C
C     0.8567612 0.7123012 0.9238912     C
C     0.8567612 0.7877012 0.4238912     C
H     0.8575412 0.5797212 0.2819212     H
H     0.8575412 0.9202812 0.7819212     H
O     0.858848 0.567008 0.083338     O
O     0.858848 0.933008 0.583338     O
C     0.8609911 0.0184011 0.9962011     C
C     0.8609911 0.4816011 0.4962011     C
H     0.8672511 0.0480112 0.3542012     H
H     0.8672511 0.4519912 0.8542012     H
C     0.8672712 0.5373512 0.0388913     C
C     0.8672712 0.9626512 0.5388913     C
O     0.867598 0.207619 0.333878     O
O     0.867598 0.292399 0.833878     O
H     0.8708412 0.5010112 0.5787212     H
H     0.8708412 0.9989912 0.0787212     H
H     0.8734112 0.7035912 0.8889412     H
H     0.8734112 0.7964112 0.3889412     H
Zn    0.88046512 0.56641312 0.79868512    Zn
Zn    0.88046512 0.93358712 0.29868512    Zn
H     0.8878011 0.0496811 0.474321     H
H     0.8878011 0.4503211 0.974321     H
H     0.8881511 0.2007512 0.9453312     H
H     0.8881511 0.2992512 0.4453312     H
H     0.8889412 0.6265912 0.2035912     H
H     0.8889412 0.8734112 0.7035912     H
C     0.8928112 0.6895112 0.3555312     C
C     0.8928112 0.8104912 0.8555312     C
O     0.8940111 0.684251 0.7443512     O
O     0.8940111 0.815751 0.2443512     O
C     0.8951912 0.6496912 0.3126812     C
C     0.8951912 0.8503112 0.8126812     C
H     0.8970513 0.0410712 0.2385013     H
H     0.8970513 0.4589312 0.7385013     H
H     0.9074811 0.5750511 0.5348411     H
H     0.9074811 0.9249511 0.0348411     H
C     0.909001 0.5146911 0.4744811     C
C     0.909001 0.9853111 0.9744811     C
C     0.9127111 0.0051911 0.5424311     C
C     0.9127111 0.4948111 0.0424311     C
C     0.9152011 0.0477011 0.502951     C
C     0.9152011 0.4523011 0.002951     C
O     0.916678 0.141168 0.433008     O
O     0.916678 0.358848 0.933008     O
N     0.917039 0.538599 0.727069     N
N     0.917039 0.961419 0.227069     N
C     0.9183713 0.0165112 0.2157613     C
C     0.9183713 0.4834912 0.7157613     C
H     0.9202812 0.7180812 0.3575412     H
H     0.9202812 0.7819212 0.8575412     H
H     0.9212812 0.1291612 0.0010112     H
H     0.9212812 0.3708412 0.5010112     H
H     0.9221112 0.6658212 0.5513113     H
H     0.9221112 0.8341812 0.0513113     H
C     0.9238912 0.6432412 0.2123012     C
C     0.9238912 0.8567612 0.7123012     C
H     0.9249511 0.0348411 0.9074811     H
H     0.9249511 0.4651611 0.4074811     H
C     0.9272411 0.1940912 0.9468612     C
C     0.9272411 0.3059112 0.4468612     C
C     0.9274311 0.5622911 0.5030011     C
C     0.9274311 0.9377111 0.0030011     C
O     0.933008 0.583338 0.858848     O
O     0.933008 0.916678 0.358848     O
Zn    0.93358712 0.20131512 0.38046512    Zn
Zn    0.93358712 0.29868512 0.88046512    Zn
C     0.9370311 0.6562011 0.2676312     C
C     0.9370311 0.8438011 0.7676312     C
C     0.9377111 0.0030011 0.9274311     C
C     0.9377111 0.4970011 0.4274311     C
H     0.9385612 0.2029013 0.2581812     H
H     0.9385612 0.2971013 0.7581812     H
H     0.9453312 0.6118511 0.7007512     H
H     0.9453312 0.8881511 0.2007512     H
C     0.9467412 0.1508712 0.9796812     C
C     0.9467412 0.3491312 0.4796812     C
C     0.9468612 0.5727611 0.6940912     C
C     0.9468612 0.9272411 0.1940912     C
H     0.9486913 0.0778912 0.1658212     H
H     0.9486913 0.4221112 0.6658212     H
C     0.9493313 0.0388012 0.1726312     C
C     0.9493313 0.4612012 0.6726312     C
H     0.9503211 0.525681 0.1122011     H
H     0.9503211 0.974321 0.6122011     H
H     0.9519912 0.6458012 0.1327511     H
H     0.9519912 0.8542012 0.6327511     H
C     0.9523011 0.002951 0.5848011     C
C     0.9523011 0.497051 0.0848011     C
O     0.9572711 0.004341 0.339881     O
O     0.9572711 0.495661 0.839881     O
C     0.9575711 0.0872911 0.5051911     C
C     0.9575711 0.4127111 0.0051911     C
H     0.9589312 0.7385013 0.6029513     H
H     0.9589312 0.7615013 0.1029513     H
C     0.9611113 0.1327312 0.4626512     C
C     0.9611113 0.3672712 0.9626512     C
C     0.9612012 0.6726312 0.5506713     C
C     0.9612012 0.8273712 0.0506713     C
N     0.961419 0.227069 0.917039     N
N     0.961419 0.272949 0.417039     N
C     0.9617312 0.6546412 0.1701911     C
C     0.9617312 0.8453612 0.6701911     C
C     0.9626512 0.5388913 0.8672712     C
C     0.9626512 0.9611113 0.3672712     C
H     0.9651611 0.0925211 0.0750511     H
H     0.9651611 0.4074811 0.5750511     H
H     0.974321 0.6122011 0.9503211     H
H     0.974321 0.8878011 0.4503211     H
C     0.9744811 0.591001 0.4853111     C
C     0.9744811 0.909001 0.9853111     C
C     0.9745312 0.1880913 0.2660112     C
C     0.9745312 0.3119113 0.7660112     C
C     0.9796812 0.5532612 0.6508712     C
C     0.9796812 0.9467412 0.1508712     C
C     0.9816011 0.0038011 0.1390111     C
C     0.9816011 0.4962011 0.6390111     C
C     0.9834912 0.7157613 0.5816313     C
C     0.9834912 0.7842413 0.0816313     C
C     0.9853111 0.5255211 0.409001     C
C     0.9853111 0.9744811 0.909001     C
N     0.988059 0.177869 0.319559     N
N     0.988059 0.322149 0.819559     N
C     0.9899212 0.6782313 0.2779712     C
C     0.9899212 0.8217713 0.7779712     C
C     0.9948111 0.0424311 0.5872911     C
C     0.9948111 0.4575711 0.0872911     C
O     0.995661 0.660121 0.0427311     O
O     0.995661 0.839881 0.5427311     O
C     0.9962011 0.6390111 0.5184011     C
C     0.9962011 0.8609911 0.0184011     C
C     0.9970011 0.0725711 0.0622911     C
C     0.9970011 0.4274311 0.5622911     C
C     0.997051 0.0848011 0.5477011     C
C     0.997051 0.4152011 0.0477011     C
H     0.9987112 0.1863613 0.1849012     H
H     0.9987112 0.3136413 0.6849012     H
H     0.9989912 0.0787212 0.8708412     H
H     0.9989912 0.4212812 0.3708412     H
