data_I
_chemical_name_common  'val_45'
_cell_length_a 25.39650
_cell_length_b 26.46750
_cell_length_c 29.52960
_cell_angle_alpha 90.00000
_cell_angle_beta  107.65300
_cell_angle_gamma 90.00000
_space_group_name_H-M_alt      'P 1'


loop_
_space_group_symop_operation_xyz
  'x, y, z' 

loop_
_atom_site_label
_atom_site_fract_x
_atom_site_fract_y
_atom_site_fract_z
_atom_site_type_symbol
C      0.00384  0.38614  0.88744     C
C      0.00384  0.61394  0.38744     C
C      0.00404  0.38644  0.42424     C
C      0.00404  0.61364  0.92424     C
C      0.00504  0.43654  0.08794     C
C      0.00504  0.56354  0.58794     C
O      0.00962  0.34162 0.6296418     O
O      0.00962  0.65842 0.1296418     O
O      0.00972  0.25312  0.57682     O
O      0.00972  0.74692  0.07682     O
H     0.010271 0.461309 0.434592     H
H     0.010271 0.538691 0.934592     H
H     0.011479 0.190169 0.046134     H
H     0.011479 0.809831 0.546134     H
O      0.01232  0.40702  0.58152     O
O      0.01232  0.59302  0.08152     O
H     0.013897 0.315827 0.099765     H
H     0.013897 0.684173 0.599765     H
C      0.01484  0.23144  0.54034     C
C      0.01484  0.76864  0.04034     C
C      0.01934  0.34984  0.10814     C
C      0.01934  0.65024  0.60814     C
H     0.026238 0.376921 0.804178     H
H     0.026238 0.623079 0.304178     H
C      0.03074  0.19634  0.98484     C
C      0.03074  0.80374  0.48484     C
C      0.03645  0.17884  0.03094     C
C      0.03645  0.82124  0.53094     C
C      0.03724  0.45084  0.13384     C
C      0.03724  0.54924  0.63384     C
C      0.03784  0.41804  0.86464     C
C      0.03784  0.58204  0.36464     C
C      0.03874  0.37204  0.47334     C
C      0.03874  0.62804  0.97334     C
C      0.04014  0.40734  0.81874     C
C      0.04014  0.59274  0.31874     C
H     0.043161 0.484666 0.142085     H
H     0.043161 0.515334 0.642085     H
O      0.04492  0.25402  0.67362     O
O      0.04492  0.74602  0.17362     O
H      0.04895 0.487581  0.22607     H
H      0.04895 0.512419  0.72607     H
C      0.05115  0.36354  0.15364     C
C      0.05115  0.63654  0.65364     C
O      0.05222  0.32512 0.4774718     O
O      0.05222  0.67492 0.9774718     O
O      0.05322  0.40382  0.50532     O
O      0.05322  0.59622  0.00532     O
O      0.05472  0.23782  0.52362     O
O      0.05472  0.76222  0.02362     O
C      0.05974  0.41294  0.16644     C
C      0.05974  0.58714  0.66644     C
C      0.06264  0.44134  0.79564     C
C      0.06264  0.55874  0.29564     C
C      0.06274  0.46064  0.88654     C
C      0.06274  0.53944  0.38654     C
H     0.063343 0.466908 0.917615     H
H     0.063343 0.533092 0.417615     H
H      0.06348  0.43403  0.76498     H
H      0.06348  0.56597  0.26498     H
Cr    0.065136 0.292865 0.623304    Cr
Cr    0.065136 0.707145 0.123304    Cr
H     0.066742 0.338483  0.17566     H
H     0.066742 0.661517  0.67566     H
H     0.068206 0.442573 0.017585     H
H     0.068206 0.557427 0.517585     H
H     0.068738 0.192227 0.934851     H
H     0.068738 0.807773 0.434851     H
C      0.06954  0.18044  0.96474     C
C      0.06954  0.81964  0.46474     C
C      0.07714  0.14564  0.05454     C
C      0.07714  0.85444  0.55454     C
C      0.07724  0.46584  0.24204     C
C      0.07724  0.53424  0.74204     C
H     0.078906 0.134116 0.084717     H
H     0.078906 0.865884 0.584717     H
C      0.08474  0.48734  0.81694     C
C      0.08474  0.51274  0.31694     C
O      0.08532  0.32872 0.5756816     O
O      0.08532  0.67132 0.0756816     O
Cr    0.085906 0.399995 0.575284    Cr
Cr    0.085906 0.600015 0.075284    Cr
O      0.08644  0.47672  0.57022     O
O      0.08644  0.52332  0.07022     O
C      0.08684  0.49444  0.86424     C
C      0.08684  0.50564  0.36424     C
C      0.09304  0.42674  0.21714     C
C      0.09304  0.57334  0.71714     C
C      0.10344  0.47264  0.29054     C
C      0.10344  0.52744  0.79054     C
H     0.104881 0.477458  0.38073     H
H     0.104881 0.522542  0.88073     H
C      0.10707  0.43515  0.02595     C
C      0.10707  0.56495  0.52595     C
Cr    0.108136 0.292235 0.529424    Cr
Cr    0.108136 0.707775 0.029424    Cr
C      0.11054  0.14624  0.98874     C
C      0.11054  0.85384  0.48874     C
H     0.112009 0.399583 0.022293     H
H     0.112009 0.600417 0.522293     H
C      0.11474  0.12974  0.03314     C
C      0.11474  0.87034  0.53314     C
O      0.11842  0.32872 0.6733518     O
O      0.11842  0.67132 0.1733518     O
O      0.11852  0.40742  0.64522     O
O      0.11852  0.59262  0.14522     O
O      0.12062  0.23962 0.6305418     O
O      0.12062  0.76042 0.1305418     O
H     0.123087 0.453652 0.005497     H
H     0.123087 0.546348 0.505497     H
C      0.12467  0.49545  0.09245     C
C      0.12467  0.50465  0.59245     C
C      0.13254  0.37584  0.67714     C
C      0.13254  0.62424  0.17714     C
O      0.13414  0.25102  0.48042     O
O      0.13414  0.74902  0.98042     O
N      0.13485  0.45034  0.07725     N
N      0.13485  0.54974  0.57725     N
H      0.13559 0.134562 0.973795     H
H      0.13559 0.865438 0.473795     H
C      0.13754  0.39574  0.24084     C
C      0.13754  0.60434  0.74084     C
C      0.14594  0.43964  0.31194     C
C      0.14594  0.56044  0.81194     C
H     0.147541   0.4933 0.621592     H
H     0.147541   0.5067 0.121592     H
H     0.149335 0.370836 0.223861     H
H     0.149335 0.629164 0.723861     H
C      0.16074  0.09594  0.05944     C
C      0.16074  0.90414  0.55944     C
O      0.16222  0.40372  0.56962     O
O      0.16222  0.59632  0.06962     O
C      0.16224  0.23364  0.61494     C
C      0.16224  0.76644  0.11494     C
O      0.16312  0.34282  0.52032     O
O      0.16312  0.65722  0.02032     O
H     0.163641 0.443629 0.344206     H
H     0.163641 0.556371 0.844206     H
C      0.16414  0.40104  0.28854     C
C      0.16414  0.59904  0.78854     C
H     0.164964   0.0568    0.003     H
H     0.164964   0.9432    0.503     H
O      0.16592  0.25512  0.57682     O
O      0.16592  0.74492  0.07682     O
H     0.166689 0.387749 0.112308     H
H     0.166689 0.612251 0.612308     H
C      0.16894  0.39104  0.72664     C
C      0.16894  0.60904  0.22664     C
H      0.17083 0.465848 0.716062     H
H      0.17083 0.534152 0.216062     H
H     0.175743 0.128399 0.124213     H
H     0.175743 0.871601 0.624213     H
C      0.17674  0.38464  0.53624     C
C      0.17674  0.61544  0.03624     C
C      0.17867  0.42195  0.11077     C
C      0.17867  0.57815  0.61077     C
H      0.17983 0.188377 0.697387     H
H      0.17983 0.811623 0.197387     H
C      0.17994  0.05954  0.03584     C
C      0.17994  0.94054  0.53584     C
H     0.181789 0.319533 0.753779     H
H     0.181789 0.680467 0.253779     H
C      0.18344  0.44044  0.73854     C
C      0.18344  0.55964  0.23854     C
H     0.186443 0.355229 0.373047     H
H     0.186443 0.644771 0.873047     H
H     0.187038  0.43722 0.141577     H
H     0.187038  0.56278 0.641577     H
C      0.18804  0.10334  0.10784     C
C      0.18804  0.89674  0.60784     C
C      0.18955  0.35344  0.76154     C
C      0.18955  0.64664  0.26154     C
C      0.20534  0.19854  0.63964     C
C      0.20534  0.80154  0.13964     C
C      0.20694  0.17954  0.68364     C
C      0.20694  0.82054  0.18364     C
C      0.20854  0.41894  0.51554     C
C      0.20854  0.58114  0.01554     C
H     0.209664   0.3733 0.460415     H
H     0.209664   0.6267 0.960415     H
C      0.21054  0.36734  0.31364     C
C      0.21054  0.63274  0.81364     C
H     0.210979 0.422133 0.100378     H
H     0.210979 0.577867 0.600378     H
C      0.21314  0.34694  0.35864     C
C      0.21314  0.65314  0.85864     C
C      0.21644  0.45234  0.78364     C
C      0.21644  0.54774  0.28364     C
C      0.21824  0.40564  0.47284     C
C      0.21824  0.59444  0.97284     C
H      0.22029 0.476362  0.56276     H
H      0.22029 0.523638  0.06276     H
C      0.22034  0.36624  0.80614     C
C      0.22034  0.63384  0.30614     C
C      0.22254  0.02564  0.06054     C
C      0.22254  0.97444  0.56054     C
H     0.222847 0.487874 0.875741     H
H     0.222847 0.512126 0.375741     H
C      0.22574  0.46694  0.53414     C
C      0.22574  0.53314  0.03414     C
H     0.226579 0.485827 0.790816     H
H     0.226579 0.514173 0.290816     H
H     0.232016 0.340993 0.828846     H
H     0.232016 0.659007 0.328846     H
C      0.23274  0.07394  0.13174     C
C      0.23274  0.92614  0.63174     C
C      0.23484  0.41574  0.81854     C
C      0.23484  0.58434  0.31854     C
H     0.237852  0.03154 0.974941     H
H     0.237852  0.96846 0.474941     H
C      0.24034  0.44064  0.44954     C
C      0.24034  0.55944  0.94954     C
C      0.24254  0.01214  0.53334     C
C      0.24254  0.98794  0.03334     C
H     0.243803  0.43164  0.42008     H
H     0.243803  0.56836  0.92008     H
H     0.245559 0.196211 0.590763     H
H     0.245559 0.803789 0.090763     H
C      0.24674  0.18364  0.62044     C
C      0.24674  0.81644  0.12044     C
C      0.24874  0.03354  0.10794     C
C      0.24874  0.96654  0.60794     C
C      0.24914  0.14724  0.70694     C
C      0.24914  0.85284  0.20694     C
H     0.249375 0.365011 0.263178     H
H     0.249375 0.634989 0.763178     H
C      0.24984  0.00034  0.98874     C
C      0.24984  0.99974  0.48874     C
C      0.25024  0.49974  0.01134     C
C      0.25024  0.50034  0.51134     C
H     0.250625 0.134989 0.736822     H
H     0.250625 0.865011 0.236822     H
C      0.25094  0.35284  0.29314     C
C      0.25094  0.64724  0.79314     C
C      0.25134  0.46654  0.89214     C
C      0.25134  0.53354  0.39214     C
C      0.25334  0.31644  0.37964     C
C      0.25334  0.68364  0.87964     C
H     0.254441 0.303789 0.409237     H
H     0.254441 0.696211 0.909237     H
H     0.256197  0.06836  0.57992     H
H     0.256197  0.93164  0.07992     H
C      0.25754  0.48794  0.46674     C
C      0.25754  0.51214  0.96674     C
C      0.25974  0.05944  0.55054     C
C      0.25974  0.94064  0.05054     C
H     0.262148  0.46846 0.025059     H
H     0.262148  0.53154 0.525059     H
C      0.26524  0.08434  0.18154     C
C      0.26524  0.91574  0.68154     C
C      0.26734  0.42614  0.86834     C
C      0.26734  0.57394  0.36834     C
H     0.267984 0.159007 0.171154     H
H     0.267984 0.840993 0.671154     H
H     0.273421 0.014173 0.209184     H
H     0.273421 0.985827 0.709184     H
C      0.27434  0.03314  0.46594     C
C      0.27434  0.96694  0.96594     C
H     0.277153 0.012126 0.124259     H
H     0.277153 0.987874 0.624259     H
C      0.27754  0.47444  0.93954     C
C      0.27754  0.52564  0.43954     C
H      0.27971 0.023638  0.43724     H
H      0.27971 0.976362  0.93724     H
C      0.27974  0.13384  0.19394     C
C      0.27974  0.86624  0.69394     C
C      0.28184  0.09444  0.52724     C
C      0.28184  0.90564  0.02724     C
C      0.28364  0.04774  0.21644     C
C      0.28364  0.95234  0.71644     C
C      0.28694  0.15314  0.64144     C
C      0.28694  0.84694  0.14144     C
H     0.289021 0.077867 0.899622     H
H     0.289021 0.922133 0.399622     H
C      0.28954  0.13274  0.68644     C
C      0.28954  0.86734  0.18644     C
H     0.290336   0.1267 0.539585     H
H     0.290336   0.8733 0.039585     H
C      0.29154  0.08114  0.48454     C
C      0.29154  0.91894  0.98454     C
C      0.29314  0.32054  0.31644     C
C      0.29314  0.67954  0.81644     C
C      0.29474  0.30154  0.36044     C
C      0.29474  0.69854  0.86044     C
C      0.31055  0.14664  0.23854     C
C      0.31055  0.85344  0.73854     C
C      0.31204  0.39674  0.89224     C
C      0.31204  0.60334  0.39224     C
H     0.312962  0.06278 0.858423     H
H     0.312962  0.93722 0.358423     H
H     0.313557 0.144771 0.626953     H
H     0.313557 0.855229 0.126953     H
C      0.31664  0.05964  0.26154     C
C      0.31664  0.94044  0.76154     C
H     0.318211 0.180467 0.246221     H
H     0.318211 0.819533 0.746221     H
C      0.32014  0.44054  0.96424     C
C      0.32014  0.55954  0.46424     C
H      0.32017 0.311623 0.302613     H
H      0.32017 0.688377 0.802613     H
C      0.32147  0.07815  0.88937     C
C      0.32147  0.92195  0.38937     C
C      0.32334  0.11544  0.46384     C
C      0.32334  0.88464  0.96384     C
H     0.324257 0.371601 0.875787     H
H     0.324257 0.628399 0.375787     H
H      0.32917 0.034152 0.283938     H
H      0.32917 0.965848 0.783938     H
C      0.33114  0.10904  0.27344     C
C      0.33114  0.89104  0.77344     C
H     0.333311 0.112251 0.887692     H
H     0.333311 0.887749 0.387692     H
O      0.33412  0.24492  0.42322     O
O      0.33412  0.75512  0.92322     O
H     0.335036   0.4432    0.997     H
H     0.335036   0.5568    0.497     H
C      0.33594  0.09904  0.71154     C
C      0.33594  0.90104  0.21154     C
H     0.336359 0.056371 0.655794     H
H     0.336359 0.943629 0.155794     H
O      0.33692  0.15722  0.47972     O
O      0.33692  0.84282  0.97972     O
O      0.33782  0.09632  0.43042     O
O      0.33782  0.90372  0.93042     O
C      0.33784  0.26644  0.38514     C
C      0.33784  0.73364  0.88514     C
C      0.33934  0.40414  0.94064     C
C      0.33934  0.59594  0.44064     C
H     0.350665 0.129164 0.776139     H
H     0.350665 0.870836 0.276139     H
H     0.352459   0.0067 0.378408     H
H     0.352459   0.9933 0.878408     H
C      0.35414  0.06044  0.68814     C
C      0.35414  0.93964  0.18814     C
C      0.36254  0.10434  0.75924     C
C      0.36254  0.89574  0.25924     C
H      0.36441 0.365438 0.026205     H
H      0.36441 0.634562 0.526205     H
N      0.36525  0.04974  0.92285     N
N      0.36525  0.95034  0.42285     N
O      0.36594  0.24902  0.51962     O
O      0.36594  0.75102  0.01962     O
C      0.36754  0.12424  0.32294     C
C      0.36754  0.87584  0.82294     C
C      0.37547  0.00465  0.90765     C
C      0.37547  0.99545  0.40765     C
H     0.376913 0.046348 0.994503     H
H     0.376913 0.953652 0.494503     H
O      0.37942  0.26042 0.3694618     O
O      0.37942  0.73962 0.8694618     O
O      0.38152  0.09262  0.35482     O
O      0.38152  0.90742  0.85482     O
O      0.38162  0.17132 0.3266518     O
O      0.38162  0.82872 0.8266518     O
C      0.38534  0.37034  0.96694     C
C      0.38534  0.62974  0.46694     C
H     0.387991 0.100417 0.977707     H
H     0.387991 0.899583 0.477707     H
C      0.38954  0.35384  0.01134     C
C      0.38954  0.64624  0.51134     C
Cr    0.391876 0.207775 0.470584    Cr
Cr    0.391876 0.792235 0.970584    Cr
C      0.39307  0.06495  0.97415     C
C      0.39307  0.93515  0.47415     C
H     0.395119 0.022542  0.61927     H
H     0.395119 0.977458  0.11927     H
C      0.39664  0.02744  0.70954     C
C      0.39664  0.97264  0.20954     C
C      0.40704  0.07334  0.78294     C
C      0.40704  0.92674  0.28294     C
C      0.41324  0.00564  0.13584     C
C      0.41324  0.99444  0.63584     C
O      0.41364  0.02332  0.42982     O
O      0.41364  0.97672  0.92982     O
Cr    0.414106 0.100015 0.424724    Cr
Cr    0.414106 0.899995 0.924724    Cr
O      0.41472  0.17132 0.4243216     O
O      0.41472  0.82872 0.9243216     O
C      0.41534  0.01274  0.18314     C
C      0.41534  0.98734  0.68314     C
H     0.421094 0.365884 0.915283     H
H     0.421094 0.634116 0.415283     H
C      0.42284  0.03424  0.75804     C
C      0.42284  0.96584  0.25804     C
C      0.42294  0.35444  0.94554     C
C      0.42294  0.64564  0.44554     C
C      0.43054  0.31964  0.03534     C
C      0.43054  0.68044  0.53534     C
H     0.431262 0.307773 0.065149     H
H     0.431262 0.692227 0.565149     H
H     0.431794 0.057427 0.982415     H
H     0.431794 0.942573 0.482415     H
H     0.433258 0.161517  0.82434     H
H     0.433258 0.838483  0.32434     H
Cr    0.434876 0.207145 0.376704    Cr
Cr    0.434876 0.792865 0.876704    Cr
H      0.43652  0.06597  0.23502     H
H      0.43652  0.93403  0.73502     H
H     0.436657 0.033092 0.082385     H
H     0.436657 0.966908 0.582385     H
C      0.43734  0.03944  0.11354     C
C      0.43734  0.96064  0.61354     C
C      0.43744  0.05874  0.20444     C
C      0.43744  0.94134  0.70444     C
C      0.44034  0.08714  0.83364     C
C      0.44034  0.91294  0.33364     C
O      0.44532  0.26222  0.47642     O
O      0.44532  0.73782  0.97642     O
O      0.44682  0.09622  0.49472     O
O      0.44682  0.90382  0.99472     O
O      0.44782  0.17492 0.5225318     O
O      0.44782  0.82512 0.0225318     O
C      0.44895  0.13654  0.84644     C
C      0.44895  0.86354  0.34644     C
H      0.45105 0.012419  0.77393     H
H      0.45105 0.987581  0.27393     H
O      0.45512  0.24602  0.32642     O
O      0.45512  0.75402  0.82642     O
H     0.456839 0.015334 0.857915     H
H     0.456839 0.984666 0.357915     H
C      0.45994  0.09274  0.18134     C
C      0.45994  0.90734  0.68134     C
C      0.46134  0.12804  0.52674     C
C      0.46134  0.87204  0.02674     C
C      0.46224  0.08204  0.13544     C
C      0.46224  0.91804  0.63544     C
C      0.46284  0.04924  0.86624     C
C      0.46284  0.95084  0.36624     C
C      0.46365  0.32124  0.96914     C
C      0.46365  0.67884  0.46914     C
C      0.46934  0.30374  0.01524     C
C      0.46934  0.69634  0.51524     C
H     0.473762 0.123079 0.195822     H
H     0.473762 0.876921 0.695822     H
C      0.48074  0.15024  0.89194     C
C      0.48074  0.84984  0.39194     C
C      0.48524  0.26864  0.45974     C
C      0.48524  0.73144  0.95974     C
H     0.486103 0.184173 0.900235     H
H     0.486103 0.815827 0.400235     H
O      0.48772  0.09302  0.41852     O
O      0.48772  0.90702  0.91852     O
H     0.488521 0.309831 0.953866     H
H     0.488521 0.690169 0.453866     H
H     0.489729 0.038691 0.565408     H
H     0.489729 0.961309 0.065408     H
O      0.49032  0.24692  0.42322     O
O      0.49032  0.75312  0.92322     O
O      0.49042  0.15842 0.3703618     O
O      0.49042  0.84162 0.8703618     O
C      0.49504  0.06354  0.91214     C
C      0.49504  0.93654  0.41214     C
C      0.49604  0.11364  0.57584     C
C      0.49604  0.88644  0.07584     C
C      0.49624  0.11394  0.11264     C
C      0.49624  0.88614  0.61264     C
C      0.50384  0.11394  0.38744     C
C      0.50384  0.88614  0.88744     C
C      0.50404  0.11364  0.92424     C
C      0.50404  0.88644  0.42424     C
C      0.50504  0.06354  0.58794     C
C      0.50504  0.93654  0.08794     C
O      0.50962  0.15842 0.1296418     O
O      0.50962  0.84162 0.6296418     O
O      0.50972  0.24692  0.07682     O
O      0.50972  0.75312  0.57682     O
H     0.510271 0.038691 0.934592     H
H     0.510271 0.961309 0.434592     H
H     0.511479 0.309831 0.546134     H
H     0.511479 0.690169 0.046134     H
O      0.51232  0.09302  0.08152     O
O      0.51232  0.90702  0.58152     O
H     0.513897 0.184173 0.599765     H
H     0.513897 0.815827 0.099765     H
C      0.51484  0.26864  0.04034     C
C      0.51484  0.73144  0.54034     C
C      0.51934  0.15024  0.60814     C
C      0.51934  0.84984  0.10814     C
H     0.526238 0.123079 0.304178     H
H     0.526238 0.876921 0.804178     H
C      0.53074  0.30374  0.48484     C
C      0.53074  0.69634  0.98484     C
C      0.53645  0.32124  0.53094     C
C      0.53645  0.67884  0.03094     C
C      0.53724  0.04924  0.63384     C
C      0.53724  0.95084  0.13384     C
C      0.53784  0.08204  0.36464     C
C      0.53784  0.91804  0.86464     C
C      0.53874  0.12804  0.97334     C
C      0.53874  0.87204  0.47334     C
C      0.54014  0.09274  0.31874     C
C      0.54014  0.90734  0.81874     C
H     0.543161 0.015334 0.642085     H
H     0.543161 0.984666 0.142085     H
O      0.54492  0.24602  0.17362     O
O      0.54492  0.75402  0.67362     O
H      0.54895 0.012419  0.72607     H
H      0.54895 0.987581  0.22607     H
C      0.55115  0.13654  0.65364     C
C      0.55115  0.86354  0.15364     C
O      0.55222  0.17492 0.9774718     O
O      0.55222  0.82512 0.4774718     O
O      0.55322  0.09622  0.00532     O
O      0.55322  0.90382  0.50532     O
O      0.55472  0.26222  0.02362     O
O      0.55472  0.73782  0.52362     O
C      0.55974  0.08714  0.66644     C
C      0.55974  0.91294  0.16644     C
C      0.56264  0.05874  0.29564     C
C      0.56264  0.94134  0.79564     C
C      0.56274  0.03944  0.38654     C
C      0.56274  0.96064  0.88654     C
H     0.563343 0.033092 0.417615     H
H     0.563343 0.966908 0.917615     H
H      0.56348  0.06597  0.26498     H
H      0.56348  0.93403  0.76498     H
Cr    0.565136 0.207145 0.123304    Cr
Cr    0.565136 0.792865 0.623304    Cr
H     0.566742 0.161517  0.67566     H
H     0.566742 0.838483  0.17566     H
H     0.568206 0.057427 0.517585     H
H     0.568206 0.942573 0.017585     H
H     0.568738 0.307773 0.434851     H
H     0.568738 0.692227 0.934851     H
C      0.56954  0.31964  0.46474     C
C      0.56954  0.68044  0.96474     C
C      0.57714  0.35444  0.55454     C
C      0.57714  0.64564  0.05454     C
C      0.57724  0.03424  0.74204     C
C      0.57724  0.96584  0.24204     C
H     0.578906 0.365884 0.584717     H
H     0.578906 0.634116 0.084717     H
C      0.58474  0.01274  0.31694     C
C      0.58474  0.98734  0.81694     C
O      0.58532  0.17132 0.0756816     O
O      0.58532  0.82872 0.5756816     O
Cr    0.585906 0.100015 0.075284    Cr
Cr    0.585906 0.899995 0.575284    Cr
O      0.58644  0.02332  0.07022     O
O      0.58644  0.97672  0.57022     O
C      0.58684  0.00564  0.36424     C
C      0.58684  0.99444  0.86424     C
C      0.59304  0.07334  0.71714     C
C      0.59304  0.92674  0.21714     C
C      0.60344  0.02744  0.79054     C
C      0.60344  0.97264  0.29054     C
H     0.604881 0.022542  0.88073     H
H     0.604881 0.977458  0.38073     H
C      0.60707  0.06495  0.52595     C
C      0.60707  0.93515  0.02595     C
Cr    0.608136 0.207775 0.029424    Cr
Cr    0.608136 0.792235 0.529424    Cr
C      0.61054  0.35384  0.48874     C
C      0.61054  0.64624  0.98874     C
H     0.612009 0.100417 0.522293     H
H     0.612009 0.899583 0.022293     H
C      0.61474  0.37034  0.53314     C
C      0.61474  0.62974  0.03314     C
O      0.61842  0.17132 0.1733518     O
O      0.61842  0.82872 0.6733518     O
O      0.61852  0.09262  0.14522     O
O      0.61852  0.90742  0.64522     O
O      0.62062  0.26042 0.1305418     O
O      0.62062  0.73962 0.6305418     O
H     0.623087 0.046348 0.505497     H
H     0.623087 0.953652 0.005497     H
C      0.62467  0.00465  0.59245     C
C      0.62467  0.99545  0.09245     C
C      0.63254  0.12424  0.17714     C
C      0.63254  0.87584  0.67714     C
O      0.63414  0.24902  0.98042     O
O      0.63414  0.75102  0.48042     O
N      0.63485  0.04974  0.57725     N
N      0.63485  0.95034  0.07725     N
H      0.63559 0.365438 0.473795     H
H      0.63559 0.634562 0.973795     H
C      0.63754  0.10434  0.74084     C
C      0.63754  0.89574  0.24084     C
C      0.64594  0.06044  0.81194     C
C      0.64594  0.93964  0.31194     C
H     0.647541   0.0067 0.121592     H
H     0.647541   0.9933 0.621592     H
H     0.649335 0.129164 0.723861     H
H     0.649335 0.870836 0.223861     H
C      0.66074  0.40414  0.55944     C
C      0.66074  0.59594  0.05944     C
O      0.66222  0.09632  0.06962     O
O      0.66222  0.90372  0.56962     O
C      0.66224  0.26644  0.11494     C
C      0.66224  0.73364  0.61494     C
O      0.66312  0.15722  0.02032     O
O      0.66312  0.84282  0.52032     O
H     0.663641 0.056371 0.844206     H
H     0.663641 0.943629 0.344206     H
C      0.66414  0.09904  0.78854     C
C      0.66414  0.90104  0.28854     C
H     0.664964   0.4432    0.503     H
H     0.664964   0.5568    0.003     H
O      0.66592  0.24492  0.07682     O
O      0.66592  0.75512  0.57682     O
H     0.666689 0.112251 0.612308     H
H     0.666689 0.887749 0.112308     H
C      0.66894  0.10904  0.22664     C
C      0.66894  0.89104  0.72664     C
H      0.67083 0.034152 0.216062     H
H      0.67083 0.965848 0.716062     H
H     0.675743 0.371601 0.624213     H
H     0.675743 0.628399 0.124213     H
C      0.67674  0.11544  0.03624     C
C      0.67674  0.88464  0.53624     C
C      0.67867  0.07815  0.61077     C
C      0.67867  0.92195  0.11077     C
H      0.67983 0.311623 0.197387     H
H      0.67983 0.688377 0.697387     H
C      0.67994  0.44054  0.53584     C
C      0.67994  0.55954  0.03584     C
H     0.681789 0.180467 0.253779     H
H     0.681789 0.819533 0.753779     H
C      0.68344  0.05964  0.23854     C
C      0.68344  0.94044  0.73854     C
H     0.686443 0.144771 0.873047     H
H     0.686443 0.855229 0.373047     H
H     0.687038  0.06278 0.641577     H
H     0.687038  0.93722 0.141577     H
C      0.68804  0.39674  0.60784     C
C      0.68804  0.60334  0.10784     C
C      0.68955  0.14664  0.26154     C
C      0.68955  0.85344  0.76154     C
C      0.70534  0.30154  0.13964     C
C      0.70534  0.69854  0.63964     C
C      0.70694  0.32054  0.18364     C
C      0.70694  0.67954  0.68364     C
C      0.70854  0.08114  0.01554     C
C      0.70854  0.91894  0.51554     C
H     0.709664   0.1267 0.960415     H
H     0.709664   0.8733 0.460415     H
C      0.71054  0.13274  0.81364     C
C      0.71054  0.86734  0.31364     C
H     0.710979 0.077867 0.600378     H
H     0.710979 0.922133 0.100378     H
C      0.71314  0.15314  0.85864     C
C      0.71314  0.84694  0.35864     C
C      0.71644  0.04774  0.28364     C
C      0.71644  0.95234  0.78364     C
C      0.71824  0.09444  0.97284     C
C      0.71824  0.90564  0.47284     C
H      0.72029 0.023638  0.06276     H
H      0.72029 0.976362  0.56276     H
C      0.72034  0.13384  0.30614     C
C      0.72034  0.86624  0.80614     C
C      0.72254  0.47444  0.56054     C
C      0.72254  0.52564  0.06054     C
H     0.722847 0.012126 0.375741     H
H     0.722847 0.987874 0.875741     H
C      0.72574  0.03314  0.03414     C
C      0.72574  0.96694  0.53414     C
H     0.726579 0.014173 0.290816     H
H     0.726579 0.985827 0.790816     H
H     0.732016 0.159007 0.328846     H
H     0.732016 0.840993 0.828846     H
C      0.73274  0.42614  0.63174     C
C      0.73274  0.57394  0.13174     C
C      0.73484  0.08434  0.31854     C
C      0.73484  0.91574  0.81854     C
H     0.737852  0.46846 0.474941     H
H     0.737852  0.53154 0.974941     H
C      0.74034  0.05944  0.94954     C
C      0.74034  0.94064  0.44954     C
C      0.74254  0.48794  0.03334     C
C      0.74254  0.51214  0.53334     C
H     0.743803  0.06836  0.92008     H
H     0.743803  0.93164  0.42008     H
H     0.745559 0.303789 0.090763     H
H     0.745559 0.696211 0.590763     H
C      0.74674  0.31644  0.12044     C
C      0.74674  0.68364  0.62044     C
C      0.74874  0.46654  0.60794     C
C      0.74874  0.53354  0.10794     C
C      0.74914  0.35284  0.20694     C
C      0.74914  0.64724  0.70694     C
H     0.749375 0.134989 0.763178     H
H     0.749375 0.865011 0.263178     H
C      0.74984  0.49974  0.48874     C
C      0.74984  0.50034  0.98874     C
C      0.75024  0.00034  0.51134     C
C      0.75024  0.99974  0.01134     C
H     0.750625 0.365011 0.236822     H
H     0.750625 0.634989 0.736822     H
C      0.75094  0.14724  0.79314     C
C      0.75094  0.85284  0.29314     C
C      0.75134  0.03354  0.39214     C
C      0.75134  0.96654  0.89214     C
C      0.75334  0.18364  0.87964     C
C      0.75334  0.81644  0.37964     C
H     0.754441 0.196211 0.909237     H
H     0.754441 0.803789 0.409237     H
H     0.756197  0.43164  0.07992     H
H     0.756197  0.56836  0.57992     H
C      0.75754  0.01214  0.96674     C
C      0.75754  0.98794  0.46674     C
C      0.75974  0.44064  0.05054     C
C      0.75974  0.55944  0.55054     C
H     0.762148  0.03154 0.525059     H
H     0.762148  0.96846 0.025059     H
C      0.76524  0.41574  0.68154     C
C      0.76524  0.58434  0.18154     C
C      0.76734  0.07394  0.36834     C
C      0.76734  0.92614  0.86834     C
H     0.767984 0.340993 0.671154     H
H     0.767984 0.659007 0.171154     H
H     0.773421 0.485827 0.709184     H
H     0.773421 0.514173 0.209184     H
C      0.77434  0.46694  0.96594     C
C      0.77434  0.53314  0.46594     C
H     0.777153 0.487874 0.624259     H
H     0.777153 0.512126 0.124259     H
C      0.77754  0.02564  0.43954     C
C      0.77754  0.97444  0.93954     C
H      0.77971 0.476362  0.93724     H
H      0.77971 0.523638  0.43724     H
C      0.77974  0.36624  0.69394     C
C      0.77974  0.63384  0.19394     C
C      0.78184  0.40564  0.02724     C
C      0.78184  0.59444  0.52724     C
C      0.78364  0.45234  0.71644     C
C      0.78364  0.54774  0.21644     C
C      0.78694  0.34694  0.14144     C
C      0.78694  0.65314  0.64144     C
H     0.789021 0.422133 0.399622     H
H     0.789021 0.577867 0.899622     H
C      0.78954  0.36734  0.18644     C
C      0.78954  0.63274  0.68644     C
H     0.790336   0.3733 0.039585     H
H     0.790336   0.6267 0.539585     H
C      0.79154  0.41894  0.98454     C
C      0.79154  0.58114  0.48454     C
C      0.79314  0.17954  0.81644     C
C      0.79314  0.82054  0.31644     C
C      0.79474  0.19854  0.86044     C
C      0.79474  0.80154  0.36044     C
C      0.81055  0.35344  0.73854     C
C      0.81055  0.64664  0.23854     C
C      0.81204  0.10334  0.39224     C
C      0.81204  0.89674  0.89224     C
H     0.812962  0.43722 0.358423     H
H     0.812962  0.56278 0.858423     H
H     0.813557 0.355229 0.126953     H
H     0.813557 0.644771 0.626953     H
C      0.81664  0.44044  0.76154     C
C      0.81664  0.55964  0.26154     C
H     0.818211 0.319533 0.746221     H
H     0.818211 0.680467 0.246221     H
C      0.82014  0.05954  0.46424     C
C      0.82014  0.94054  0.96424     C
H      0.82017 0.188377 0.802613     H
H      0.82017 0.811623 0.302613     H
C      0.82147  0.42195  0.38937     C
C      0.82147  0.57815  0.88937     C
C      0.82334  0.38464  0.96384     C
C      0.82334  0.61544  0.46384     C
H     0.824257 0.128399 0.375787     H
H     0.824257 0.871601 0.875787     H
H      0.82917 0.465848 0.783938     H
H      0.82917 0.534152 0.283938     H
C      0.83114  0.39104  0.77344     C
C      0.83114  0.60904  0.27344     C
H     0.833311 0.387749 0.387692     H
H     0.833311 0.612251 0.887692     H
O      0.83412  0.25512  0.92322     O
O      0.83412  0.74492  0.42322     O
H     0.835036   0.0568    0.497     H
H     0.835036   0.9432    0.997     H
C      0.83594  0.40104  0.21154     C
C      0.83594  0.59904  0.71154     C
H     0.836359 0.443629 0.155794     H
H     0.836359 0.556371 0.655794     H
O      0.83692  0.34282  0.97972     O
O      0.83692  0.65722  0.47972     O
O      0.83782  0.40372  0.93042     O
O      0.83782  0.59632  0.43042     O
C      0.83784  0.23364  0.88514     C
C      0.83784  0.76644  0.38514     C
C      0.83934  0.09594  0.44064     C
C      0.83934  0.90414  0.94064     C
H     0.850665 0.370836 0.276139     H
H     0.850665 0.629164 0.776139     H
H     0.852459   0.4933 0.878408     H
H     0.852459   0.5067 0.378408     H
C      0.85414  0.43964  0.18814     C
C      0.85414  0.56044  0.68814     C
C      0.86254  0.39574  0.25924     C
C      0.86254  0.60434  0.75924     C
H      0.86441 0.134562 0.526205     H
H      0.86441 0.865438 0.026205     H
N      0.86525  0.45034  0.42285     N
N      0.86525  0.54974  0.92285     N
O      0.86594  0.25102  0.01962     O
O      0.86594  0.74902  0.51962     O
C      0.86754  0.37584  0.82294     C
C      0.86754  0.62424  0.32294     C
C      0.87547  0.49545  0.40765     C
C      0.87547  0.50465  0.90765     C
H     0.876913 0.453652 0.494503     H
H     0.876913 0.546348 0.994503     H
O      0.87942  0.23962 0.8694618     O
O      0.87942  0.76042 0.3694618     O
O      0.88152  0.40742  0.85482     O
O      0.88152  0.59262  0.35482     O
O      0.88162  0.32872 0.8266518     O
O      0.88162  0.67132 0.3266518     O
C      0.88534  0.12974  0.46694     C
C      0.88534  0.87034  0.96694     C
H     0.887991 0.399583 0.477707     H
H     0.887991 0.600417 0.977707     H
C      0.88954  0.14624  0.51134     C
C      0.88954  0.85384  0.01134     C
Cr    0.891876 0.292235 0.970584    Cr
Cr    0.891876 0.707775 0.470584    Cr
C      0.89307  0.43515  0.47415     C
C      0.89307  0.56495  0.97415     C
H     0.895119 0.477458  0.11927     H
H     0.895119 0.522542  0.61927     H
C      0.89664  0.47264  0.20954     C
C      0.89664  0.52744  0.70954     C
C      0.90704  0.42674  0.28294     C
C      0.90704  0.57334  0.78294     C
C      0.91324  0.49444  0.63584     C
C      0.91324  0.50564  0.13584     C
O      0.91364  0.47672  0.92982     O
O      0.91364  0.52332  0.42982     O
Cr    0.914106 0.399995 0.924724    Cr
Cr    0.914106 0.600015 0.424724    Cr
O      0.91472  0.32872 0.9243216     O
O      0.91472  0.67132 0.4243216     O
C      0.91534  0.48734  0.68314     C
C      0.91534  0.51274  0.18314     C
H     0.921094 0.134116 0.415283     H
H     0.921094 0.865884 0.915283     H
C      0.92284  0.46584  0.25804     C
C      0.92284  0.53424  0.75804     C
C      0.92294  0.14564  0.44554     C
C      0.92294  0.85444  0.94554     C
C      0.93054  0.18044  0.53534     C
C      0.93054  0.81964  0.03534     C
H     0.931262 0.192227 0.565149     H
H     0.931262 0.807773 0.065149     H
H     0.931794 0.442573 0.482415     H
H     0.931794 0.557427 0.982415     H
H     0.933258 0.338483  0.32434     H
H     0.933258 0.661517  0.82434     H
Cr    0.934876 0.292865 0.876704    Cr
Cr    0.934876 0.707145 0.376704    Cr
H      0.93652  0.43403  0.73502     H
H      0.93652  0.56597  0.23502     H
H     0.936657 0.466908 0.582385     H
H     0.936657 0.533092 0.082385     H
C      0.93734  0.46064  0.61354     C
C      0.93734  0.53944  0.11354     C
C      0.93744  0.44134  0.70444     C
C      0.93744  0.55874  0.20444     C
C      0.94034  0.41294  0.33364     C
C      0.94034  0.58714  0.83364     C
O      0.94532  0.23782  0.97642     O
O      0.94532  0.76222  0.47642     O
O      0.94682  0.40382  0.99472     O
O      0.94682  0.59622  0.49472     O
O      0.94782  0.32512 0.0225318     O
O      0.94782  0.67492 0.5225318     O
C      0.94895  0.36354  0.34644     C
C      0.94895  0.63654  0.84644     C
H      0.95105 0.487581  0.27393     H
H      0.95105 0.512419  0.77393     H
O      0.95512  0.25402  0.82642     O
O      0.95512  0.74602  0.32642     O
H     0.956839 0.484666 0.357915     H
H     0.956839 0.515334 0.857915     H
C      0.95994  0.40734  0.68134     C
C      0.95994  0.59274  0.18134     C
C      0.96134  0.37204  0.02674     C
C      0.96134  0.62804  0.52674     C
C      0.96224  0.41804  0.63544     C
C      0.96224  0.58204  0.13544     C
C      0.96284  0.45084  0.36624     C
C      0.96284  0.54924  0.86624     C
C      0.96365  0.17884  0.46914     C
C      0.96365  0.82124  0.96914     C
C      0.96934  0.19634  0.51524     C
C      0.96934  0.80374  0.01524     C
H     0.973762 0.376921 0.695822     H
H     0.973762 0.623079 0.195822     H
C      0.98074  0.34984  0.39194     C
C      0.98074  0.65024  0.89194     C
C      0.98524  0.23144  0.95974     C
C      0.98524  0.76864  0.45974     C
H     0.986103 0.315827 0.400235     H
H     0.986103 0.684173 0.900235     H
O      0.98772  0.40702  0.91852     O
O      0.98772  0.59302  0.41852     O
H     0.988521 0.190169 0.453866     H
H     0.988521 0.809831 0.953866     H
H     0.989729 0.461309 0.065408     H
H     0.989729 0.538691 0.565408     H
O      0.99032  0.25312  0.92322     O
O      0.99032  0.74692  0.42322     O
O      0.99042  0.34162 0.8703618     O
O      0.99042  0.65842 0.3703618     O
C      0.99504  0.43654  0.41214     C
C      0.99504  0.56354  0.91214     C
C      0.99604  0.38644  0.07584     C
C      0.99604  0.61364  0.57584     C
C      0.99624  0.38614  0.61264     C
C      0.99624  0.61394  0.11264     C
