data_I
_chemical_name_common  'val_4'
_cell_length_a 34.92670
_cell_length_b  9.26820
_cell_length_c 27.29360
_cell_angle_alpha 90.00000
_cell_angle_beta  123.19300
_cell_angle_gamma 90.00000
_space_group_name_H-M_alt      'P 1'


loop_
_space_group_symop_operation_xyz
  'x, y, z' 

loop_
_atom_site_label
_atom_site_fract_x
_atom_site_fract_y
_atom_site_fract_z
_atom_site_type_symbol
O          0.0  0.38835     0.75     O
O          0.0  0.61175     0.25     O
H       0.0015   0.1446   0.9733     H
H       0.0015   0.8554   0.4733     H
H       0.0056   0.3938   0.1959     H
H       0.0056   0.6062   0.6959     H
C     0.0083316  0.35215  0.51162     C
C     0.0083316  0.64795  0.01162     C
C     0.0188118  0.20415  0.52424     C
C     0.0188118  0.79595  0.02424     C
C     0.0247316  0.41647  0.31822     C
C     0.0247316  0.58367  0.81822     C
C     0.0311414  0.41195  0.99592     C
C     0.0311414  0.58815  0.49592     C
C     0.0347016  0.46995  0.79592     C
C     0.0347016  0.53015  0.29592     C
C     0.0394616  0.44095  0.50602     C
C     0.0394616  0.55915  0.00602     C
H        0.051   0.3714   0.9147     H
H        0.051   0.6286   0.4147     H
H        0.053   0.2543   0.3766     H
H        0.053   0.7457   0.8766     H
C      0.05802  0.14627  0.53284     C
C      0.05802  0.85387  0.03284     C
C     0.0597616  0.33425  0.36212     C
C     0.0597616  0.66585  0.86212     C
H       0.0647   0.0494   0.5427     H
H       0.0647   0.9506   0.0427     H
C     0.0648514  0.31624  0.99452     C
C     0.0648514  0.68384  0.49452     C
C     0.0692617  0.31317  0.94722     C
C     0.0692617  0.68697  0.44722     C
C     0.0788317  0.42735  0.81922     C
C     0.0788317  0.57275  0.31922     C
C     0.0794017  0.37305  0.51394     C
C     0.0794017  0.62705  0.01394     C
H       0.0852   0.3452   0.8053     H
H       0.0852   0.6548   0.3053     H
C      0.08842  0.23257  0.52664     C
C      0.08842  0.76757  0.02664     C
H       0.0917   0.2289   0.0741     H
H       0.0917   0.7711   0.5741     H
C     0.0931614  0.22824  0.04112     C
C     0.0931614  0.77184  0.54112     C
H       0.0998   0.4285   0.5102     H
H       0.0998   0.5715   0.0102     H
C     0.1013616  0.22165  0.94912     C
C     0.1013616  0.77845  0.44912     C
H       0.1045   0.2215   0.9174     H
H       0.1045   0.7785   0.4174     H
C     0.1050613  0.37065 0.3845217     C
C     0.1050613  0.62945 0.8845217     C
C     0.1138716  0.49165  0.36382     C
C     0.1138716  0.50845  0.86382     C
H       0.1145   0.1919   0.5313     H
H       0.1145   0.8081   0.0313     H
C     0.1236213  0.13924 0.0389618     C
C     0.1236213  0.86084 0.5389618     C
N     0.1278111  0.13414 0.9934514     N
N     0.1278111  0.86594 0.4934514     N
O     0.130201  0.15294 0.4361614     O
O     0.130201  0.84714 0.9361614     O
H       0.1422   0.0797   0.0709     H
H       0.1422   0.9203   0.5709     H
C     0.1425514  0.27424 0.4286017     C
C     0.1425514  0.72584 0.9286017     C
H        0.144   0.4798   0.8801     H
H        0.144   0.5202   0.3801     H
H       0.1714   0.1342   0.2247     H
H       0.1714   0.8658   0.7247     H
Zn    0.17203014 0.006275 0.49009019    Zn
Zn    0.17203014 0.993735 0.99009019    Zn
H       0.1742   0.4464   0.0899     H
H       0.1742   0.5536   0.5899     H
O     0.1799613  0.14164 0.9357218     O
O     0.1799613  0.85844 0.4357218     O
O     0.182389  0.31924 0.4545613     O
O     0.182389  0.68084 0.9545613     O
H        0.194   0.2782   0.8691     H
H        0.194   0.7218   0.3691     H
C     0.1961516  0.19525 0.2476018     C
C     0.1961516  0.80485 0.7476018     C
O     0.196651  0.24604 0.1641112     O
O     0.196651  0.75404 0.6641112     O
H        0.199   0.1668   0.3224     H
H        0.199   0.8332   0.8224     H
C     0.2007814  0.40095  0.09812     C
C     0.2007814  0.59915  0.59812     C
O     0.200901  0.08064 0.5694812     O
O     0.200901  0.91944 0.0694812     O
H        0.206    0.065   0.6622     H
H        0.206    0.935   0.1622     H
H       0.2086   0.4863   0.5413     H
H       0.2086   0.5137   0.0413     H
C     0.2125716  0.21545 0.3058417     C
C     0.2125716  0.78465 0.8058417     C
C     0.2150116  0.07775 0.9466118     C
C     0.2150116  0.92235 0.4466118     C
C     0.2167213  0.26635 0.2236016     C
C     0.2167213  0.73375 0.7236016     C
C     0.2201414  0.29175 0.1390117     C
C     0.2201414  0.70835 0.6390117     C
C     0.2206917  0.23267  0.87752     C
C     0.2206917  0.76747  0.37752     C
C     0.2215916  0.44135  0.06942     C
C     0.2215916  0.55875  0.56942     C
H       0.2286   0.3496   0.8214     H
H       0.2286   0.6504   0.3214     H
O     0.229831  0.02734 0.4821412     O
O     0.229831  0.97274 0.9821412     O
C     0.2309916  0.12485 0.6852018     C
C     0.2309916  0.87525 0.1852018     C
H       0.2334   0.0943   0.7602     H
H       0.2334   0.9057   0.2602     H
C     0.2342013  0.16744 0.5970616     C
C     0.2342013  0.83264 0.0970616     C
C     0.2388214  0.12434 0.9179318     C
C     0.2388214  0.87574 0.4179318     C
C     0.2412118  0.27547  0.84882     C
C     0.2412118  0.72467  0.34882     C
O     0.245831  0.26924 0.4228511     O
O     0.245831  0.73084 0.9228511     O
C     0.2469016  0.14265 0.7435818     C
C     0.2469016  0.85745 0.2435818     C
C     0.2487913  0.30664 0.3399516     C
C     0.2487913  0.69344 0.8399516     C
Zn        0.25     0.25      0.5    Zn
Zn        0.25     0.75      0.0    Zn
C     0.2512113  0.19344 0.6600516     C
C     0.2512113  0.80664 0.1600516     C
C     0.2531016  0.35745 0.2564218     C
C     0.2531016  0.64265 0.7564218     C
O     0.254171  0.23084 0.5771511     O
O     0.254171  0.76924 0.0771511     O
C     0.2587918  0.22467  0.15122     C
C     0.2587918  0.77547  0.65122     C
C     0.2611814  0.37574 0.0820718     C
C     0.2611814  0.62434 0.5820718     C
C     0.2658013  0.33264 0.4029416     C
C     0.2658013  0.66744 0.9029416     C
H       0.2666   0.4057   0.2398     H
H       0.2666   0.5943   0.7398     H
C     0.2690116  0.37525 0.3148018     C
C     0.2690116  0.62485 0.8148018     C
O     0.270171  0.47274 0.5178612     O
O     0.270171  0.52734 0.0178612     O
H       0.2714   0.1504   0.1786     H
H       0.2714   0.8496   0.6786     H
C     0.2784116  0.05875  0.93062     C
C     0.2784116  0.94135  0.43062     C
C     0.2793117  0.26747  0.12252     C
C     0.2793117  0.73267  0.62252     C
C     0.2798614  0.20835 0.8609917     C
C     0.2798614  0.79175 0.3609917     C
C     0.2832813  0.23375 0.7764016     C
C     0.2832813  0.76635 0.2764016     C
C     0.2849916  0.42235 0.0533918     C
C     0.2849916  0.57775 0.5533918     C
C     0.2874316  0.28465 0.6941617     C
C     0.2874316  0.71545 0.1941617     C
H       0.2914   0.0137   0.4587     H
H       0.2914   0.9863   0.9587     H
H        0.294    0.435   0.3378     H
H        0.294    0.565   0.8378     H
O     0.299101  0.41944 0.4305212     O
O     0.299101  0.58064 0.9305212     O
C     0.2992214  0.09915  0.90192     C
C     0.2992214  0.90095  0.40192     C
H        0.301   0.3332   0.6776     H
H        0.301   0.6668   0.1776     H
O     0.303351  0.25404 0.8358912     O
O     0.303351  0.74604 0.3358912     O
C     0.3038516  0.30485 0.7524018     C
C     0.3038516  0.69525 0.2524018     C
H        0.306   0.2218   0.1309     H
H        0.306   0.7782   0.6309     H
O     0.317629  0.18084 0.5454413     O
O     0.317629  0.81924 0.0454413     O
O     0.3200413  0.35844 0.0642818     O
O     0.3200413  0.64164 0.5642818     O
H       0.3258   0.0536   0.9101     H
H       0.3258   0.9464   0.4101     H
Zn    0.32797014 0.493735 0.50991019    Zn
Zn    0.32797014 0.506275 0.00991019    Zn
H       0.3286   0.3658   0.7753     H
H       0.3286   0.6342   0.2753     H
H        0.356   0.0202   0.1199     H
H        0.356   0.9798   0.6199     H
C     0.3574514  0.22584 0.5714017     C
C     0.3574514  0.77424 0.0714017     C
H       0.3578   0.4203   0.9291     H
H       0.3578   0.5797   0.4291     H
O     0.369801  0.34714 0.5638414     O
O     0.369801  0.65294 0.0638414     O
N     0.3721911  0.36594 0.0065514     N
N     0.3721911  0.63414 0.5065514     N
C     0.3763813  0.36084 0.9610418     C
C     0.3763813  0.63924 0.4610418     C
H       0.3855   0.3081   0.4687     H
H       0.3855   0.6919   0.9687     H
C     0.3861316  0.00845  0.63622     C
C     0.3861316  0.99165  0.13622     C
C     0.3949413  0.12945 0.6154817     C
C     0.3949413  0.87065 0.1154817     C
H       0.3955   0.2785   0.0826     H
H       0.3955   0.7215   0.5826     H
C     0.3986416  0.27845  0.05092     C
C     0.3986416  0.72165  0.55092     C
H       0.4002   0.0715   0.4898     H
H       0.4002   0.9285   0.9898     H
C     0.4068414  0.27184  0.95892     C
C     0.4068414  0.72824  0.45892     C
H       0.4083   0.2711   0.9259     H
H       0.4083   0.7289   0.4259     H
C      0.41162  0.26757  0.47344     C
C      0.41162  0.73257  0.97344     C
H       0.4148   0.1548   0.1947     H
H       0.4148   0.8452   0.6947     H
C     0.4206017  0.12705  0.48614     C
C     0.4206017  0.87305  0.98614     C
C     0.4211717  0.07275  0.18082     C
C     0.4211717  0.92735  0.68082     C
C     0.4307417  0.18697  0.05282     C
C     0.4307417  0.81317  0.55282     C
C     0.4351514  0.18384  0.00552     C
C     0.4351514  0.81624  0.50552     C
H       0.4353   0.4506   0.4573     H
H       0.4353   0.5494   0.9573     H
C     0.4402416  0.16585  0.63792     C
C     0.4402416  0.83425  0.13792     C
C      0.44202  0.35387  0.46724     C
C      0.44202  0.64627  0.96724     C
H        0.447   0.2457   0.6234     H
H        0.447   0.7543   0.1234     H
H        0.449   0.1286   0.0853     H
H        0.449   0.8714   0.5853     H
C     0.4605416  0.05915  0.49402     C
C     0.4605416  0.94095  0.99402     C
C     0.4653016  0.03015  0.20412     C
C     0.4653016  0.96995  0.70412     C
C     0.4688614  0.08815  0.00412     C
C     0.4688614  0.91195  0.50412     C
C     0.4752716  0.08367  0.68182     C
C     0.4752716  0.91647  0.18182     C
C     0.4811918  0.29595  0.47584     C
C     0.4811918  0.70415  0.97584     C
C     0.4916716  0.14795  0.48842     C
C     0.4916716  0.85215  0.98842     C
H       0.4944   0.1062   0.8041     H
H       0.4944   0.8938   0.3041     H
H       0.4985   0.3554   0.0267     H
H       0.4985   0.6446   0.5267     H
O          0.5  0.11175     0.25     O
O          0.5  0.88835     0.75     O
H       0.5015   0.3554   0.4733     H
H       0.5015   0.6446   0.9733     H
H       0.5056   0.1062   0.6959     H
H       0.5056   0.8938   0.1959     H
C     0.5083316  0.14795  0.01162     C
C     0.5083316  0.85215  0.51162     C
C     0.5188118  0.29595  0.02424     C
C     0.5188118  0.70415  0.52424     C
C     0.5247316  0.08367  0.81822     C
C     0.5247316  0.91647  0.31822     C
C     0.5311414  0.08815  0.49592     C
C     0.5311414  0.91195  0.99592     C
C     0.5347016  0.03015  0.29592     C
C     0.5347016  0.96995  0.79592     C
C     0.5394616  0.05915  0.00602     C
C     0.5394616  0.94095  0.50602     C
H        0.551   0.1286   0.4147     H
H        0.551   0.8714   0.9147     H
H        0.553   0.2457   0.8766     H
H        0.553   0.7543   0.3766     H
C      0.55802  0.35387  0.03284     C
C      0.55802  0.64627  0.53284     C
C     0.5597616  0.16585  0.86212     C
C     0.5597616  0.83425  0.36212     C
H       0.5647   0.4506   0.0427     H
H       0.5647   0.5494   0.5427     H
C     0.5648514  0.18384  0.49452     C
C     0.5648514  0.81624  0.99452     C
C     0.5692617  0.18697  0.44722     C
C     0.5692617  0.81317  0.94722     C
C     0.5788317  0.07275  0.31922     C
C     0.5788317  0.92735  0.81922     C
C     0.5794017  0.12705  0.01394     C
C     0.5794017  0.87305  0.51394     C
H       0.5852   0.1548   0.3053     H
H       0.5852   0.8452   0.8053     H
C      0.58842  0.26757  0.02664     C
C      0.58842  0.73257  0.52664     C
H       0.5917   0.2711   0.5741     H
H       0.5917   0.7289   0.0741     H
C     0.5931614  0.27184  0.54112     C
C     0.5931614  0.72824  0.04112     C
H       0.5998   0.0715   0.0102     H
H       0.5998   0.9285   0.5102     H
C     0.6013616  0.27845  0.44912     C
C     0.6013616  0.72165  0.94912     C
H       0.6045   0.2785   0.4174     H
H       0.6045   0.7215   0.9174     H
C     0.6050613  0.12945 0.8845217     C
C     0.6050613  0.87065 0.3845217     C
C     0.6138716  0.00845  0.86382     C
C     0.6138716  0.99165  0.36382     C
H       0.6145   0.3081   0.0313     H
H       0.6145   0.6919   0.5313     H
C     0.6236213  0.36084 0.5389618     C
C     0.6236213  0.63924 0.0389618     C
N     0.6278111  0.36594 0.4934514     N
N     0.6278111  0.63414 0.9934514     N
O     0.630201  0.34714 0.9361614     O
O     0.630201  0.65294 0.4361614     O
H       0.6422   0.4203   0.5709     H
H       0.6422   0.5797   0.0709     H
C     0.6425514  0.22584 0.9286017     C
C     0.6425514  0.77424 0.4286017     C
H        0.644   0.0202   0.3801     H
H        0.644   0.9798   0.8801     H
H       0.6714   0.3658   0.7247     H
H       0.6714   0.6342   0.2247     H
Zn    0.67203014 0.493735 0.99009019    Zn
Zn    0.67203014 0.506275 0.49009019    Zn
H       0.6742   0.0536   0.5899     H
H       0.6742   0.9464   0.0899     H
O     0.6799613  0.35844 0.4357218     O
O     0.6799613  0.64164 0.9357218     O
O     0.682389  0.18084 0.9545613     O
O     0.682389  0.81924 0.4545613     O
H        0.694   0.2218   0.3691     H
H        0.694   0.7782   0.8691     H
C     0.6961516  0.30485 0.7476018     C
C     0.6961516  0.69525 0.2476018     C
O     0.696651  0.25404 0.6641112     O
O     0.696651  0.74604 0.1641112     O
H        0.699   0.3332   0.8224     H
H        0.699   0.6668   0.3224     H
C     0.7007814  0.09915  0.59812     C
C     0.7007814  0.90095  0.09812     C
O     0.700901  0.41944 0.0694812     O
O     0.700901  0.58064 0.5694812     O
H        0.706    0.435   0.1622     H
H        0.706    0.565   0.6622     H
H       0.7086   0.0137   0.0413     H
H       0.7086   0.9863   0.5413     H
C     0.7125716  0.28465 0.8058417     C
C     0.7125716  0.71545 0.3058417     C
C     0.7150116  0.42235 0.4466118     C
C     0.7150116  0.57775 0.9466118     C
C     0.7167213  0.23375 0.7236016     C
C     0.7167213  0.76635 0.2236016     C
C     0.7201414  0.20835 0.6390117     C
C     0.7201414  0.79175 0.1390117     C
C     0.7206917  0.26747  0.37752     C
C     0.7206917  0.73267  0.87752     C
C     0.7215916  0.05875  0.56942     C
C     0.7215916  0.94135  0.06942     C
H       0.7286   0.1504   0.3214     H
H       0.7286   0.8496   0.8214     H
O     0.729831  0.47274 0.9821412     O
O     0.729831  0.52734 0.4821412     O
C     0.7309916  0.37525 0.1852018     C
C     0.7309916  0.62485 0.6852018     C
H       0.7334   0.4057   0.2602     H
H       0.7334   0.5943   0.7602     H
C     0.7342013  0.33264 0.0970616     C
C     0.7342013  0.66744 0.5970616     C
C     0.7388214  0.37574 0.4179318     C
C     0.7388214  0.62434 0.9179318     C
C     0.7412118  0.22467  0.34882     C
C     0.7412118  0.77547  0.84882     C
O     0.745831  0.23084 0.9228511     O
O     0.745831  0.76924 0.4228511     O
C     0.7469016  0.35745 0.2435818     C
C     0.7469016  0.64265 0.7435818     C
C     0.7487913  0.19344 0.8399516     C
C     0.7487913  0.80664 0.3399516     C
Zn        0.75     0.25      0.0    Zn
Zn        0.75     0.75      0.5    Zn
C     0.7512113  0.30664 0.1600516     C
C     0.7512113  0.69344 0.6600516     C
C     0.7531016  0.14265 0.7564218     C
C     0.7531016  0.85745 0.2564218     C
O     0.754171  0.26924 0.0771511     O
O     0.754171  0.73084 0.5771511     O
C     0.7587918  0.27547  0.65122     C
C     0.7587918  0.72467  0.15122     C
C     0.7611814  0.12434 0.5820718     C
C     0.7611814  0.87574 0.0820718     C
C     0.7658013  0.16744 0.9029416     C
C     0.7658013  0.83264 0.4029416     C
H       0.7666   0.0943   0.7398     H
H       0.7666   0.9057   0.2398     H
C     0.7690116  0.12485 0.8148018     C
C     0.7690116  0.87525 0.3148018     C
O     0.770171  0.02734 0.0178612     O
O     0.770171  0.97274 0.5178612     O
H       0.7714   0.3496   0.6786     H
H       0.7714   0.6504   0.1786     H
C     0.7784116  0.44135  0.43062     C
C     0.7784116  0.55875  0.93062     C
C     0.7793117  0.23267  0.62252     C
C     0.7793117  0.76747  0.12252     C
C     0.7798614  0.29175 0.3609917     C
C     0.7798614  0.70835 0.8609917     C
C     0.7832813  0.26635 0.2764016     C
C     0.7832813  0.73375 0.7764016     C
C     0.7849916  0.07775 0.5533918     C
C     0.7849916  0.92235 0.0533918     C
C     0.7874316  0.21545 0.1941617     C
C     0.7874316  0.78465 0.6941617     C
H       0.7914   0.4863   0.9587     H
H       0.7914   0.5137   0.4587     H
H        0.794    0.065   0.8378     H
H        0.794    0.935   0.3378     H
O     0.799101  0.08064 0.9305212     O
O     0.799101  0.91944 0.4305212     O
C     0.7992214  0.40095  0.40192     C
C     0.7992214  0.59915  0.90192     C
H        0.801   0.1668   0.1776     H
H        0.801   0.8332   0.6776     H
O     0.803351  0.24604 0.3358912     O
O     0.803351  0.75404 0.8358912     O
C     0.8038516  0.19525 0.2524018     C
C     0.8038516  0.80485 0.7524018     C
H        0.806   0.2782   0.6309     H
H        0.806   0.7218   0.1309     H
O     0.817629  0.31924 0.0454413     O
O     0.817629  0.68084 0.5454413     O
O     0.8200413  0.14164 0.5642818     O
O     0.8200413  0.85844 0.0642818     O
H       0.8258   0.4464   0.4101     H
H       0.8258   0.5536   0.9101     H
Zn    0.82797014 0.006275 0.00991019    Zn
Zn    0.82797014 0.993735 0.50991019    Zn
H       0.8286   0.1342   0.2753     H
H       0.8286   0.8658   0.7753     H
H        0.856   0.4798   0.6199     H
H        0.856   0.5202   0.1199     H
C     0.8574514  0.27424 0.0714017     C
C     0.8574514  0.72584 0.5714017     C
H       0.8578   0.0797   0.4291     H
H       0.8578   0.9203   0.9291     H
O     0.869801  0.15294 0.0638414     O
O     0.869801  0.84714 0.5638414     O
N     0.8721911  0.13414 0.5065514     N
N     0.8721911  0.86594 0.0065514     N
C     0.8763813  0.13924 0.4610418     C
C     0.8763813  0.86084 0.9610418     C
H       0.8855   0.1919   0.9687     H
H       0.8855   0.8081   0.4687     H
C     0.8861316  0.49165  0.13622     C
C     0.8861316  0.50845  0.63622     C
C     0.8949413  0.37065 0.1154817     C
C     0.8949413  0.62945 0.6154817     C
H       0.8955   0.2215   0.5826     H
H       0.8955   0.7785   0.0826     H
C     0.8986416  0.22165  0.55092     C
C     0.8986416  0.77845  0.05092     C
H       0.9002   0.4285   0.9898     H
H       0.9002   0.5715   0.4898     H
C     0.9068414  0.22824  0.45892     C
C     0.9068414  0.77184  0.95892     C
H       0.9083   0.2289   0.4259     H
H       0.9083   0.7711   0.9259     H
C      0.91162  0.23257  0.97344     C
C      0.91162  0.76757  0.47344     C
H       0.9148   0.3452   0.6947     H
H       0.9148   0.6548   0.1947     H
C     0.9206017  0.37305  0.98614     C
C     0.9206017  0.62705  0.48614     C
C     0.9211717  0.42735  0.68082     C
C     0.9211717  0.57275  0.18082     C
C     0.9307417  0.31317  0.55282     C
C     0.9307417  0.68697  0.05282     C
C     0.9351514  0.31624  0.50552     C
C     0.9351514  0.68384  0.00552     C
H       0.9353   0.0494   0.9573     H
H       0.9353   0.9506   0.4573     H
C     0.9402416  0.33425  0.13792     C
C     0.9402416  0.66585  0.63792     C
C      0.94202  0.14627  0.96724     C
C      0.94202  0.85387  0.46724     C
H        0.947   0.2543   0.1234     H
H        0.947   0.7457   0.6234     H
H        0.949   0.3714   0.5853     H
H        0.949   0.6286   0.0853     H
C     0.9605416  0.44095  0.99402     C
C     0.9605416  0.55915  0.49402     C
C     0.9653016  0.46995  0.70412     C
C     0.9653016  0.53015  0.20412     C
C     0.9688614  0.41195  0.50412     C
C     0.9688614  0.58815  0.00412     C
C     0.9752716  0.41647  0.18182     C
C     0.9752716  0.58367  0.68182     C
C     0.9811918  0.20415  0.97584     C
C     0.9811918  0.79595  0.47584     C
C     0.9916716  0.35215  0.98842     C
C     0.9916716  0.64795  0.48842     C
H       0.9944   0.3938   0.3041     H
H       0.9944   0.6062   0.8041     H
H       0.9985   0.1446   0.5267     H
H       0.9985   0.8554   0.0267     H
