data_I
_chemical_name_common  'val_38'
_cell_length_a 23.97820
_cell_length_b 23.97820
_cell_length_c 23.97820
_cell_angle_alpha 90.00000
_cell_angle_beta  90.00000
_cell_angle_gamma 90.00000
_space_group_name_H-M_alt      'P 1'


loop_
_space_group_symop_operation_xyz
  'x, y, z' 

loop_
_atom_site_label
_atom_site_fract_x
_atom_site_fract_y
_atom_site_fract_z
_atom_site_type_symbol
Zn    -0.119102 0.565982 0.798602    Zn
Zn    -0.119102 0.934022 0.298602    Zn
Zn    -0.119102 0.934022 1.298602    Zn
H     -0.11742 0.299032 0.446105     H
H     -0.117418  1.20103 0.946116     H
H     -0.104738 0.455382  0.74209     H
H     -0.104737  1.04462  1.24209     H
H     -0.0821602  1.12568  1.00453     H
H     -0.0821539 0.374382  0.50452     H
N     -0.0821114 0.5384714 0.7271014     N
N     -0.0821114 0.9615314 1.2271014     N
C     -0.08052 0.4835118  0.71592     C
C     -0.08052 1.0164918  1.21592     C
C     -0.0726417  0.30642  0.44782     C
C     -0.0726417  1.19362  0.94782     C
O     -0.0685713 0.5833314 0.8602414     O
O     -0.0685713 0.9166714 0.3602414     O
Zn    -0.065982 0.201402 0.380902    Zn
Zn    -0.065982 0.201402 1.380902    Zn
Zn    -0.065982 0.298602 0.880902    Zn
Zn    -0.065982 1.298602 0.880902    Zn
H     -0.0656632 0.293983 0.756478     H
H     -0.0656539 0.206084  1.25649     H
H     -0.0539465 0.617419 0.701015     H
H     -0.0539463 0.882585  1.20101     H
C     -0.0531018  0.34932  0.48022     C
C     -0.0531018  1.15072  0.98022     C
C     -0.05222 0.5726417  0.69362     C
C     -0.05222 0.9273617  1.19362     C
H     -0.0501255 0.416331 0.665329     H
H     -0.0501254  1.08367  1.16533     H
C     -0.04962 0.4611217 0.6728218     C
C     -0.04962 1.0388817 1.1728218     C
O     -0.0445718 0.4974616 0.8396317     O
O     -0.0445718 1.0025416 0.3396317     O
H     -0.039751 0.404851 0.577066     H
H     -0.0397509  1.09515  1.07707     H
N     -0.0384714 0.2729014 0.4178914     N
N     -0.0384714 1.2271014 0.9178914     N
C     -0.03812 0.5400918  0.86802     C
C     -0.03812 0.9599118  0.36802     C
H     -0.0304747 0.616243 0.951777     H
H     -0.0304747  0.88376 0.451777     H
H     -0.0267737 0.827168 0.663704     H
H     -0.0267735 0.672834 0.163704     H
C     -0.0244818  0.18942 1.2659618     C
C     -0.0244818  0.31062 0.7659618     C
C     -0.01982 0.5531018  0.65072     C
C     -0.01982 0.9469018  1.15072     C
C     -0.0178516 0.4958816 0.6390016     C
C     -0.0178516 1.0041216 1.1390016     C
N     -0.0115514 0.1792816 1.3195214     N
N     -0.0115514 0.3207216 0.8195214     N
C     -0.0030517 0.4273517 0.5625917     C
C     -0.0030517 1.0726517 1.0625917     C
O     -0.0025416 0.6603717 1.0445718     O
O     -0.0025416 0.8396317 0.5445718     O
H     -0.0009824   0.3105 0.680045     H
H     -0.000972152 0.189564  1.18005     H
H     0.000108065 0.733681 0.565474     H
H     0.00010823 0.766322 0.0654738     H
C     0.0024116 0.5849616 0.9533817     C
C     0.0024116 0.9150416 0.4533817     C
C     0.0041216 0.3610016 0.4821516     C
C     0.0041216 1.1390016 0.9821516     C
C     0.0044216 0.5424916 0.9129216     C
C     0.0044216 0.9575116 0.4129216     C
H     0.00447061  0.58217 0.625667     H
H     0.00447066 0.917834  1.12567     H
H     0.00933939 0.710279 0.209223     H
H     0.00933987 0.789724 0.709223     H
N     0.0115514 0.6792816 0.1804814     N
N     0.0115514 0.8207216 0.6804814     N
C      0.01162  0.17982 1.2225818     C
C      0.01162  0.32022 0.7225818     C
C     0.0152217 0.4742916 0.5910816     C
C     0.0152217 1.0257116 1.0910816     C
C     0.0164918  0.28412  0.41952     C
C     0.0164918  1.21592  0.91952     C
H     0.024971 0.856292 0.699095     H
H     0.0249714 0.643711 0.199095     H
C     0.0257116 0.4089216 0.5152217     C
C     0.0257116 1.0910816 1.0152217     C
H     0.0362212 0.803766 0.110993     H
H     0.0362216 0.696237 0.610993     H
C      0.03842  0.15602  1.32962     C
C      0.03842  0.34402  0.82962     C
N     0.0384714 0.7271014 0.5821114     N
N     0.0384714 0.7729014 0.0821114     N
C     0.0388817 0.3271818  0.45042     C
C     0.0388817 1.1728218  0.95042     C
C     0.0400918  0.63202  1.03812     C
C     0.0400918  0.86802  0.53812     C
H     0.0422977 0.113143 0.651423     H
C     0.0424916 0.5870816 0.9955816     C
C     0.0424916 0.9129216 0.4955816     C
H     0.0446313   1.2421 0.895325     H
H     0.0446336 0.257967 0.395298     H
C     0.0466217 0.5024116 0.9150416     C
C     0.0466217 0.9975916 0.4150416     C
H     0.0472232 0.450623 0.129438     H
H     0.0482261 0.469525  0.88376     H
H     0.0482261  1.03048  0.38376     H
H     0.0485153 0.626544 0.0504564     H
H     0.0490584 0.354673 0.872468     H
H     0.0490703 0.145392  1.37247     H
H     0.0555478 0.0680954 0.787345     H
H     0.0555486 0.431907 0.287346     H
H     0.0605823 0.497083 0.264873     H
H     0.0605833 0.00291966 0.764873     H
N     0.0625917 0.5030517 0.5726517     N
C     0.0625917 0.9969517 1.0726517     C
C     0.0636617 0.1579217 1.2327118     C
C     0.0636617 0.3420817 0.7327118     C
H     0.065396  0.71581 0.551462     H
H     0.0653962 0.784193 0.0514618     H
Zn    0.065982 0.701402 0.119102    Zn
Zn    0.065982 0.701402 1.119102    Zn
Zn    0.065982 0.798602 0.619102    Zn
O     0.0685713 0.0833314 0.6397614     O
O     0.0685713 0.4166714 0.1397614     O
C     0.0726517 0.4374117 0.4969517     C
N     0.0726517 1.0625917 0.9969517     N
H     0.0764611 0.640163  1.06407     H
C      0.07702  0.14492  1.28812     C
C      0.07702  0.35512  0.78812     C
H     0.0770677 0.960254  1.09515     H
N     0.0821114 0.0384714 0.7729014     N
N     0.0821114 0.4615314 0.2729014     N
O     0.0833314 0.8602414 0.5685713     O
H     0.0836747  1.16534 0.949935     H
H     0.0836771 0.334651 0.449946     H
C     0.0849616 0.5466217 0.9975916     C
C     0.0849616 0.9533817 0.4975916     C
C     0.0870816 0.5044216 0.9575116     C
C     0.0870816 0.9955816 0.4575116     C
H     0.0905385 0.0962797  0.60713     H
H     0.0905387 0.403724  0.10713     H
C     0.0910816 0.4847817 0.5257116     C
C     0.0910816 1.0152217 1.0257116     C
H     0.0951546 0.422936 0.460254     H
C     0.1059318 0.1508117 1.1879417     C
C     0.1059318 0.3491917 0.6879417     C
H     0.108709 0.090021 0.399623     H
N     0.1087918 0.1902118 1.1451118     N
N     0.1087918 0.3097918 0.6451118     N
O      0.10892 0.1806318  0.75742     O
O      0.10892 0.3193718  0.25742     O
H     0.111797 0.0307105 0.802062     H
H     0.111797 0.469293 0.302062     H
H     0.116243 0.951777 0.530478     H
H     0.116244 0.548226  1.03048     H
H     0.117169 0.373707 0.798376     H
H     0.117178 0.126356  1.29838     H
Zn    0.119102 0.065982 0.701402    Zn
Zn    0.119102 0.434022 0.201402    Zn
Zn    0.119102 1.065982 0.701402    Zn
H     0.125667 0.495529 0.417834     H
H     0.125676  1.00453 0.917843     H
H     0.126353 0.201661 0.617178     H
H     0.126356 0.298384  1.11718     H
H     0.127573 0.549081 0.145383     H
H      0.13021 0.944655  0.64345     H
O     0.1316813 0.7063614 0.1666713     O
O     0.1316813 0.7936414 0.6666713     O
C      0.13202  0.46192 0.9599118     C
C      0.13202  1.03812 0.4599118     C
C     0.1390016 0.5178516 0.5041216     C
C     0.1390016 0.9821516 1.0041216     C
O     0.1397614 0.0685713 0.4166714     O
O     0.1397614 0.4314313 0.9166714     O
H      0.14265  0.42249 0.723048     H
H     0.142651 0.0775133  1.22305     H
C      0.14492  0.21192  0.57702     C
C      0.14492  0.28812  1.07702     C
C     0.1451118 0.1087918 1.1902118     C
C     0.1451118 0.3912118 0.6902118     C
H     0.145383 0.127573 0.549081     H
H     0.145392 0.372472  1.04907     H
C      0.15072  0.51982 0.4469018     C
C      0.15072  0.98022 0.9469018     C
C     0.1508117 0.1879417 1.1059318     C
C     0.1508117 0.3120617 0.6059318     C
H     0.152738 0.0395828 0.390095     H
C     0.1551217 0.1741617  0.73552     C
C     0.1551217 0.3258417  0.23552     C
C      0.15602  0.17042  0.53842     C
C      0.15602  0.32962  1.03842     C
C     0.1579217 0.2327118 1.0636617     C
C     0.1579217 0.2672918 0.5636617     C
O     0.1603717 0.4554318 1.0025416     O
O     0.1603717 1.0445718 0.5025416     O
H     0.163098 -0.0247566  0.66619     H
H     0.164133 0.242322 0.310629     H
H     0.164133 0.257681 0.810629     H
H     0.165329 0.550125 0.583673     H
H     0.165339 0.949935  1.08367     H
O     0.1666713 0.1316813 0.7063614     O
O     0.1666713 0.3683213 0.2063614     O
H     0.169755 0.970765 0.700501     H
C      0.17042  0.53842  0.15602     C
C      0.17042  0.96162  0.65602     C
C     0.1728218  0.54962 0.5388817     C
C     0.1728218  0.95042 1.0388817     C
C     0.1741617  0.73552 0.1551217     C
C     0.1741617  0.76452 0.6551217     C
H     0.178659 0.999795 0.632838     H
N     0.1792816 0.1804814 0.4884514     N
N     0.1792816 0.3195214 0.9884514     N
C      0.17982 0.2225818  1.01162     C
C      0.17982 0.2774218  0.51162     C
H     0.180048 -0.000972152  1.18956     H
H      0.18005 0.501033 0.689548     H
N     0.1804814 0.0115514 0.6792816     N
N     0.1804814 0.4884514 0.1792816     N
O     0.1806318  0.74262  0.60892     O
O     0.1806318  0.75742  0.10892     O
C     0.1879417 0.1059318 1.1508117     C
C     0.1879417 0.3940718 0.6508117     C
H     0.189374 0.664133 0.242322     H
H     0.189374  0.83587 0.742322     H
C      0.18942 0.2340418 0.4755218     C
C      0.18942 0.2659618 0.9755218     C
H     0.189564 0.180048 0.999027     H
H     0.189564 0.319955 0.499027     H
C     0.1902118 0.1451118 1.1087918     C
C     0.1902118 0.3548918 0.6087918     C
C      0.19362  0.55222 0.4273617     C
C      0.19362  0.94782 0.9273617     C
C     0.1967916 0.2406816 0.2791117     C
C     0.1967916 0.2593216 0.7791117     C
C     0.1985316 0.2190616 0.7367917     C
C     0.1985316 0.2809416 0.2367917     C
H     0.201015 0.553946 0.382585     H
H     0.201026 0.946116 0.882586     H
Zn    0.201402 0.119102 0.434022    Zn
Zn    0.201402 0.380902 -0.065982    Zn
Zn    0.201402 0.380902 0.934022    Zn
Zn    0.201402 1.119102 0.434022    Zn
H     0.201539 0.885324 0.668026     H
H     0.201661 0.617178 0.126353     H
H     0.203539 0.0282564 0.647959     H
H     0.204992  1.00572 0.718862     H
H     0.206085 0.243517  0.43435     H
H     0.206085 0.256486  0.93435     H
O     0.2063614 0.1666713 0.3683213     O
O     0.2063614 0.3333313 0.8683213     O
H     0.210442 0.914354 0.600363     H
C      0.21192  0.57702  0.14492     C
C      0.21192  0.92302  0.64492     C
C      0.21592  0.58052 0.5164918     C
C      0.21592  0.91952 1.0164918     C
C     0.2190616 0.7367917 0.1985316     C
C     0.2190616 0.7632117 0.6985316     C
C     0.2208917 0.6967916 0.2406816     C
C     0.2208917 0.8032116 0.7406816     C
C     0.2225818  0.01162  1.17982     C
C     0.2225818  0.48842  0.67982     C
H     0.223048 0.142651  1.07751     H
H     0.223048 0.357353 0.577513     H
N     0.2271014 0.5821114 0.4615314     N
N     0.2271014 0.9178914 0.9615314     N
C     0.2327118 0.0636617 1.1579217     C
C     0.2327118 0.4363417 0.6579217     C
C     0.2340418 0.4755218  0.18942     C
C     0.2340418 1.0244818  0.68942     C
C      0.23552 0.1551217 0.3258417     C
C      0.23552 0.3448817 0.8258417     C
C     0.2367917 0.1985316 0.2809416     C
C     0.2367917 0.3014716 0.7809416     C
C     0.2406816 0.2208917 0.6967916     C
C     0.2406816 0.2791117 0.1967916     C
H      0.24209 0.604737 0.544622     H
H       0.2421 0.895325  1.04463     H
H     0.242322 0.189374 0.664133     H
H     0.242322 0.310629 0.164133     H
O      0.24262  0.60892 0.3193718     O
O      0.24262  0.89112 0.8193718     O
H     0.243517  0.43435 0.206085     H
H     0.250146  1.06328 0.706679     H
H     0.255116  1.05283 0.495163     H
H     0.256486 -0.0656539  1.20608     H
H     0.256497 0.565652 0.706095     H
O      0.25742  0.10892 0.3193718     O
O      0.25742  0.39112 0.8193718     O
H     0.257681 0.689374 0.664133     H
H     0.257681 0.810629 0.164133     H
H     0.257967 0.395298 0.0446336     H
C     0.2593216 0.7208917 0.6967916     C
C     0.2593216 0.7791117 0.1967916     C
H     0.262376  1.10251 0.549754     H
C     0.2632117 0.6985316 0.2809416     C
C     0.2632117 0.8014716 0.7809416     C
C      0.26452 0.6551217 0.3258417     C
C      0.26452 0.8448817 0.8258417     C
C     0.2659618 -0.0244818  1.18942     C
C     0.2659618 0.5244818  0.68942     C
C     0.2672918 0.5636617 0.1579217     C
C     0.2672918 0.9363417 0.6579217     C
H      0.26735  1.03844 0.445969     H
N     0.2729014 0.0821114 0.4615314     N
N     0.2729014 0.4178914 -0.0384714     N
H     0.276955  0.64265 0.0775132     H
H     0.276956 0.857353 0.577513     H
C     0.2774218  0.51162  0.17982     C
C     0.2774218  0.98842  0.67982     C
C     0.2791117 0.1967916 0.2406816     C
C     0.2791117 0.3032116 0.7406816     C
C     0.2809416 0.2367917 0.1985316     C
C     0.2809416 0.2632117 0.6985316     C
C      0.28412  0.41952 0.0164918     C
C      0.28412  1.08052 0.5164918     C
H     0.287346 0.0555486 0.431907     H
C      0.28812  0.07702  1.14492     C
C      0.28812  0.42302  0.64492     C
O     0.2936414 0.6666713 0.3683213     O
O     0.2936414 0.8333313 0.8683213     O
H     0.293982 0.743525 0.434341     H
H     0.293983 0.756478 -0.0656632     H
H     0.298384 0.117178  1.12636     H
H     0.298395  0.38287 0.626346     H
Zn    0.298602 -0.119102 0.934022    Zn
Zn    0.298602 0.619102 0.434022    Zn
Zn    0.298602 0.880902 -0.065982    Zn
Zn    0.298602 0.880902 0.934022    Zn
H     0.299032 0.446105 -0.11742     H
H     0.300877  1.11061 0.486885     H
C     0.3014716 0.7190616 0.7367917     C
C     0.3014716 0.7809416 0.2367917     C
H     0.302062 0.111797 0.469293     H
C     0.3032116 0.7406816 0.2791117     C
C     0.3032116 0.7593216 0.7791117     C
H     0.303874  1.04833 0.382184     H
C      0.30642  0.44782 -0.0726417     C
C      0.30642  1.05222 0.4273617     C
C     0.3097918 0.6451118 0.1087918     C
C     0.3097918 0.8548918 0.6087918     C
H       0.3105 0.680045 -0.0009824     H
H     0.310501 0.819958 0.499016     H
C      0.31062 0.7340418 0.4755218     C
C      0.31062 0.7659618 -0.0244818     C
H     0.310629 0.164133 0.242322     H
H     0.310629  0.33587 0.742322     H
C     0.3120617 0.6059318 0.1508117     C
C     0.3120617 0.8940718 0.6508117     C
H     0.313974  1.09562 0.438418     H
O     0.3193718  0.24262  0.60892     O
O     0.3193718  0.25742  0.10892     O
N     0.3195214 -0.0115514 1.1792816     N
N     0.3195214 0.5115514 0.6792816     N
H     0.319953  1.00103 0.689548     H
H     0.319955 0.499027 0.189564     H
C      0.32022 0.7225818  0.01162     C
C      0.32022 0.7774218  0.51162     C
N     0.3207216 0.6804814 0.4884514     N
N     0.3207216 0.8195214 -0.0115514     N
C     0.3258417  0.23552 0.1551217     C
C     0.3258417  0.26452 0.6551217     C
C     0.3271818  0.45042 0.0388817     C
C     0.3271818  1.04962 0.5388817     C
C      0.32962  0.03842  1.15602     C
C      0.32962  0.46162  0.65602     C
O     0.3333313 0.6316813 0.7063614     O
O     0.3333313 0.8683213 0.2063614     O
H     0.334651 0.449946 0.0836771     H
H     0.334661  1.05011 0.583675     H
H      0.33587 0.742322 0.310629     H
H      0.33587 0.757681 0.810629     H
O     0.3396317 -0.0445718 1.0025416     O
O     0.3396317 0.5445718 0.5025416     O
H     0.340482 0.977212 0.433899     H
C     0.3420817 0.7327118 0.0636617     C
C     0.3420817 0.7672918 0.5636617     C
C      0.34402  0.67042  0.53842     C
C      0.34402  0.82962  0.03842     C
C     0.3448817 0.6741617  0.73552     C
C     0.3448817 0.8258417  0.23552     C
C     0.3491917 0.6879417 0.1059318     C
C     0.3491917 0.8120617 0.6059318     C
C      0.34932  0.48022 -0.0531018     C
C      0.34932  1.01982 0.4469018     C
H     0.354673 0.872468 0.0490584     H
H     0.354683 0.627577 0.549069     H
C     0.3548918 0.6087918 0.1902118     C
N     0.3548918 0.8912118 0.6902118     N
C      0.35512  0.71192  0.57702     C
C      0.35512  0.78812  0.07702     C
H     0.357353 0.577513 0.223048     H
O     0.3602414 -0.0685713 0.9166714     O
O     0.3602414 0.5685713 0.4166714     O
C     0.3610016 0.4821516 0.0041216     C
C     0.3610016 1.0178516 0.5041216     C
C      0.36802 -0.03812 0.9599118     C
C      0.36802  0.53812 0.4599118     C
O     0.3683213 0.2063614 0.1666713     O
O     0.3683213 0.2936414 0.6666713     O
H     0.372471 0.450978 0.645381     H
H     0.372472 0.0490703  1.14539     H
H     0.373707 0.798376 0.117169     H
H      0.37371 0.701669 0.617169     H
H     0.374382  0.50452 -0.0821539     H
Zn    0.380902 -0.065982 0.201402    Zn
Zn    0.380902 -0.065982 1.201402    Zn
Zn    0.380902 0.565982 0.701402    Zn
Zn    0.380902 0.934022 0.201402    Zn
H     0.382184 0.303874  1.04833     H
H       0.3824 0.148725 0.0471211     H
H     0.382585 0.201015 0.553946     H
H      0.38287 0.626346 0.298395     H
H     0.382878 0.873718 0.798387     H
H      0.38376 0.0482261  1.03048     H
H      0.38376 0.451777 0.530478     H
H     0.387107  1.03439 0.426347     H
O      0.39112 0.6806318  0.75742     O
O      0.39112 0.8193718  0.25742     O
N     0.3912118 0.6902118 0.1451118     N
C     0.3912118 0.8097918 0.6451118     C
C     0.3940718 0.6508117 0.1879417     C
C     0.3940718 0.8491917 0.6879417     C
H     0.395298 0.0446336 0.257967     H
H     0.395298  0.45537 0.757968     H
C     0.4089216 0.5152217 0.0257116     C
C     0.4089216 0.9847817 0.5257116     C
C     0.4129216 0.0044216 0.9575116     C
C     0.4129216 0.4955816 0.4575116     C
C     0.4150416 0.0466217 0.9975916     C
C     0.4150416 0.4533817 0.4975916     C
H     0.416326 0.834651 0.449946     H
H     0.416331 0.665329 -0.0501255     H
O     0.4166714 0.1397614 0.0685713     O
O     0.4166714 0.3602414 0.5685713     O
H     0.417834 0.125667 0.495529     H
N     0.4178914 -0.0384714 0.2729014     N
N     0.4178914 0.5384714 0.7729014     N
C      0.41952 0.0164918  0.28412     C
C      0.41952 0.4835118  0.78412     C
H      0.42249 0.776956  0.64265     H
H     0.422936 0.460254 0.0951546     H
H     0.422936  1.03975 0.595155     H
C      0.42302  0.64492  0.28812     C
C      0.42302  0.85512  0.78812     C
H     0.426347 0.387107  1.03439     H
N     0.4273517 0.5625917 -0.0030517     N
N     0.4273517 0.9374117 0.4969517     N
C     0.4273617  0.19362  0.55222     C
C     0.4273617  0.30642  1.05222     C
H     0.431023 0.288603 0.0573221     H
O     0.4314313 0.5833314 0.6397614     O
O     0.4314313 0.9166714 0.1397614     O
H     0.433899 0.340482 0.977212     H
Zn    0.434022 0.201402 0.119102    Zn
Zn    0.434022 0.201402 1.119102    Zn
Zn    0.434022 0.298602 0.619102    Zn
H     0.434341 0.293982 0.743525     H
H      0.43435 0.206085 0.243517     H
C     0.4363417 0.6579217 0.2327118     C
C     0.4363417 0.8420817 0.7327118     C
C     0.4374117 0.4969517 0.0726517     C
C     0.4374117 1.0030517 0.5726517     C
H     0.438418 0.313974  1.09562     H
H     0.445969  0.26735  1.03844     H
H     0.446105 -0.11742 0.299032     H
H     0.446105  0.61742 0.799032     H
C     0.4469018  0.15072  0.51982     C
C     0.4469018  0.34932  1.01982     C
C      0.44782 -0.0726417  0.30642     C
C      0.44782 0.5726417  0.80642     C
H     0.448249 0.134067 0.0423903     H
H     0.449946 0.0836771 0.334651     H
H     0.449946 0.416326 0.834651     H
C      0.45042 0.0388817 0.3271818     C
C      0.45042 0.4611217 0.8271818     C
H     0.450978 0.645381 0.372471     H
H      0.45099 0.854684 0.872468     H
H     0.451777 -0.0304747  0.88376     H
H     0.451777 0.530478  0.38376     H
C     0.4533817 0.0024116 0.9150416     C
C     0.4533817 0.4975916 0.4150416     C
H      0.45537 0.757968 0.395298     H
H     0.455382  0.74209 -0.104738     H
O     0.4554318 0.4974616 0.6603717     O
O     0.4554318 1.0025416 0.1603717     O
C     0.4575116 0.0870816 0.9955816     C
C     0.4575116 0.4129216 0.4955816     C
C     0.4599118  0.36802  0.53812     C
H     0.460254 0.404849 0.922936     H
C     0.4611217 0.6728218 -0.04962     C
C     0.4611217 0.8271818  0.45042     C
N     0.4615314 0.2271014 0.5821114     N
N     0.4615314 0.2729014 0.0821114     N
C      0.46162  0.65602  0.32962     C
C      0.46162  0.84402  0.82962     C
C      0.46192 0.5400918  0.63202     C
C      0.46192 0.9599118  0.13202     C
H     0.469525 0.616244 0.548226     H
H     0.469525  0.88376 0.0482261     H
H     0.471499 0.301269 0.111906     H
C     0.4742916 0.5910816 0.0152217     C
C     0.4742916 0.9089216 0.5152217     C
C     0.4755218  0.18942 0.2340418     C
C     0.4755218  0.31062 0.7340418     C
H     0.477211  1.06609 0.659571     H
C      0.48022 -0.0531018  0.34932     C
C      0.48022 0.5531018  0.84932     C
C     0.4821516 0.0041216 0.3610016     C
C     0.4821516 0.4958816 0.8610016     C
C     0.4835118  0.71592 -0.08052     C
C     0.4835118  0.78412  0.41952     C
C     0.4847817 0.5257116 0.0910816     C
C     0.4847817 0.9742916 0.5910816     C
H     0.486885 0.300877  1.11061     H
C      0.48842  0.67982 0.2225818     C
C      0.48842  0.82022 0.7225818     C
N     0.4884514 0.1792816 0.1804814     N
N     0.4884514 0.3207216 0.6804814     N
H     0.495163 0.255116  1.05283     H
H     0.495529 0.417834 0.125667     H
C     0.4955816 0.0424916 0.9129216     C
C     0.4955816 0.4575116 0.4129216     C
C     0.4958816 0.6390016 -0.0178516     C
C     0.4958816 0.8610016 0.4821516     C
N     0.4969517 0.0726517 0.4374117     N
C     0.4969517 0.4273517 0.9374117     C
O     0.4974616 0.6603717 0.4554318     O
O     0.4974616 0.8396317 -0.0445718     O
C     0.4975916 0.0849616 0.9533817     C
C     0.4975916 0.4150416 0.4533817     C
H     0.499016 0.310501 0.819958     H
H     0.499027 0.189564 0.319955     H
H     0.501033 0.689548  0.18005     H
H     0.501043 0.810517 0.680048     H
C     0.5024116 0.5849616 0.5466217     C
C     0.5024116 0.9150416 0.0466217     C
O     0.5025416 0.3396317 0.5445718     O
C     0.5030517 0.5726517 0.0625917     C
C     0.5030517 0.9273517 0.5625917     C
C     0.5041216 0.1390016 0.5178516     C
C     0.5041216 0.3610016 1.0178516     C
C     0.5044216 0.5424916 0.5870816     C
C     0.5044216 0.9575116 0.0870816     C
H      0.50452 -0.0821539 0.374382     H
H     0.504521 0.582154 0.874382     H
N     0.5115514 0.6792816 0.3195214     N
N     0.5115514 0.8207216 0.8195214     N
C      0.51162  0.17982 0.2774218     C
C      0.51162  0.32022 0.7774218     C
C     0.5152217 0.0257116 0.4089216     C
C     0.5152217 0.4742916 0.9089216     C
C     0.5164918  0.21592  0.58052     C
C     0.5164918  0.28412  1.08052     C
C     0.5178516 0.5041216 0.1390016     C
C     0.5178516 0.9958816 0.6390016     C
C      0.51982 0.4469018  0.15072     C
C      0.51982 1.0531018  0.65072     C
C     0.5244818  0.68942 0.2659618     C
C     0.5244818  0.81062 0.7659618     C
C     0.5257116 0.0910816 0.4847817     C
C     0.5257116 0.4089216 0.9847817     C
H     0.530478 0.116243 0.951777     H
H     0.530478  0.38376 0.451777     H
H     0.534381  1.07368  0.61294     H
C      0.53812 0.0400918  0.86802     C
C      0.53812 0.4599118  0.36802     C
C      0.53842  0.15602  0.17042     C
C      0.53842  0.34402  0.67042     C
H      0.53845  1.05402 0.732687     H
N     0.5384714 0.7271014 -0.0821114     N
N     0.5384714 0.7729014 0.4178914     N
C     0.5388817 0.1728218  0.54962     C
C     0.5388817 0.3271818  1.04962     C
H     0.539749 0.595155 0.0770676     H
H     0.539749 0.904849 0.577068     H
C     0.5400918  0.63202  0.46192     C
C     0.5400918  0.86802 -0.03812     C
C     0.5424916 0.5870816 0.5044216     C
C     0.5424916 0.9129216 0.0044216     C
O     0.5445718 -0.0025416 0.8396317     O
O     0.5445718 0.5025416 0.3396317     O
H     0.544622  0.24209 0.604737     H
C     0.5466217 0.5024116 0.5849616     C
C     0.5466217 0.9975916 0.0849616     C
H     0.548226 0.469525 0.616244     H
H     0.548226  1.03048 0.116244     H
H     0.548315  1.11782 0.696179     H
H     0.549069 0.354683 0.627577     H
H     0.549081 0.145383 0.127573     H
C      0.54962 0.5388817 0.1728218     C
C      0.54962 0.9611217 0.6728218     C
H     0.549754 0.262376  1.10251     H
H     0.550125 0.583673 0.165329     H
H     0.550125 0.916331 0.665329     H
C      0.55222 0.4273617  0.19362     C
C      0.55222 1.0726417  0.69362     C
H     0.552824  1.00483 0.744925     H
C     0.5531018  0.65072 -0.01982     C
C     0.5531018  0.84932  0.48022     C
H     0.553946 0.382585 0.201015     H
H     0.555548 0.0680956 0.712657     H
C     0.5625917 -0.0030517 0.4273517     C
C     0.5625917 0.5030517 0.9273517     C
C     0.5636617 0.1579217 0.2672918     C
C     0.5636617 0.3420817 0.7672918     C
H     0.565652 0.706095 0.256497     H
H     0.565661 0.793972  0.75649     H
Zn    0.565982 0.701402 0.380902    Zn
Zn    0.565982 0.798602 -0.119102    Zn
Zn    0.565982 0.798602 0.880902    Zn
O     0.5685713 0.0833314 0.8602414     O
O     0.5685713 0.4166714 0.3602414     O
C     0.5726417  0.69362 -0.05222     C
C     0.5726417  0.80642  0.44782     C
C     0.5726517 0.0625917 0.5030517     C
N     0.5726517 0.4374117 1.0030517     N
C      0.57702  0.14492  0.21192     C
C      0.57702  0.35512  0.71192     C
H     0.577066 -0.039751 0.404851     H
H     0.577068 0.539749 0.904849     H
H     0.577513 0.223048 0.357353     H
H     0.577513 0.276956 0.857353     H
C      0.58052 0.5164918  0.21592     C
C      0.58052 0.9835118  0.71592     C
N     0.5821114 0.0384714 0.7271014     N
N     0.5821114 0.4615314 0.2271014     N
H     0.582154 0.874382 0.504521     H
H      0.58217 0.625667 0.00447061     H
O     0.5833314 0.6397614 0.4314313     O
O     0.5833314 0.8602414 -0.0685713     O
H     0.583673 0.165329 0.550125     H
H     0.583675 0.334661  1.05011     H
C     0.5849616 0.5466217 0.5024116     C
C     0.5849616 0.9533817 0.0024116     C
C     0.5870816 0.5044216 0.5424916     C
C     0.5870816 0.9955816 0.0424916     C
C     0.5910816 0.0152217 0.4742916     C
C     0.5910816 0.4847817 0.9742916     C
H     0.595155 0.0770676 0.539749     H
H      0.59562   1.0616 0.686056     H
H     0.600363 0.210442 0.914354     H
H     0.602508 0.950246 0.737657     H
H     0.604737 0.544622  0.24209     H
C     0.6059318 0.1508117 0.3120617     C
C     0.6059318 0.3491917 0.8120617     C
C     0.6087918 0.1902118 0.3548918     C
C     0.6087918 0.3097918 0.8548918     C
O      0.60892 0.1806318  0.74262     O
O      0.60892 0.3193718  0.24262     O
H     0.610607  1.01313 0.699181     H
H     0.611798 0.0307103 0.697941     H
H      0.61294 0.534381  1.07368     H
H     0.616243 0.951777 -0.0304747     H
H     0.616244 0.548226 0.469525     H
H     0.617169  0.37371 0.701669     H
H     0.617178 0.126353 0.201661     H
H     0.617419 0.701015 -0.0539465     H
H      0.61742 0.799032 0.446105     H
Zn    0.619102 0.065982 0.798602    Zn
Zn    0.619102 0.434022 0.298602    Zn
Zn    0.619102 1.065982 -0.201402    Zn
Zn    0.619102 1.065982 0.798602    Zn
H     0.625667 0.00447061  0.58217     H
H     0.626346 0.298395  0.38287     H
H     0.626544 0.0504564 0.0485153     H
H     0.627577 0.549069 0.354683     H
H      0.63021 0.944655 -0.14345     H
O     0.6316813 0.7063614 0.3333313     O
O     0.6316813 0.7936414 0.8333313     O
C      0.63202  0.46192 0.5400918     C
C      0.63202  1.03812 0.0400918     C
H     0.632838 0.178659 0.999795     H
C     0.6390016 -0.0178516 0.4958816     C
C     0.6390016 0.5178516 0.9958816     C
O     0.6397614 0.0685713 0.0833314     O
O     0.6397614 0.4314313 0.5833314     O
H      0.64265 0.0775132 0.276955     H
H      0.64345  0.13021 0.944655     H
C      0.64492  0.21192  0.92302     C
C      0.64492  0.28812  0.42302     C
C     0.6451118 0.1087918 0.3097918     C
N     0.6451118 0.3912118 0.8097918     N
H     0.645381 0.372471 0.450978     H
H     0.647959 0.203539 0.0282564     H
C      0.65072 -0.01982 0.5531018     C
C      0.65072  0.51982 1.0531018     C
C     0.6508117 0.1879417 0.3940718     C
C     0.6508117 0.3120617 0.8940718     C
H     0.652738 0.0395829 0.109908     H
C     0.6551217 0.1741617  0.76452     C
C     0.6551217 0.3258417  0.26452     C
C      0.65602  0.17042  0.96162     C
C      0.65602  0.32962  0.46162     C
C     0.6579217 0.2327118 0.4363417     C
C     0.6579217 0.2672918 0.9363417     C
H     0.659571 0.477211  1.06609     H
O     0.6603717 0.4554318 0.4974616     O
O     0.6603717 1.0445718 -0.0025416     O
H     0.663098 -0.0247568 0.833813     H
H     0.664133 0.242322 0.189374     H
H     0.664133 0.257681 0.689374     H
H     0.665329 -0.0501255 0.416331     H
H     0.665329 0.550125 0.916331     H
H      0.66619 0.163098 -0.0247566     H
O     0.6666713 0.1316813 0.7936414     O
O     0.6666713 0.3683213 0.2936414     O
H     0.668026 0.201539 0.885324     H
H     0.669755 0.970765 -0.200501     H
C      0.67042  0.53842  0.34402     C
C      0.67042  0.96162 -0.15602     C
C     0.6728218 -0.04962 0.4611217     C
C     0.6728218  0.54962 0.9611217     C
C     0.6741617  0.73552 0.3448817     C
C     0.6741617  0.76452 0.8448817     C
H     0.678659 0.999795 -0.132838     H
N     0.6792816 0.1804814 0.0115514     N
N     0.6792816 0.3195214 0.5115514     N
C      0.67982 0.2225818  0.48842     C
C      0.67982 0.2774218  0.98842     C
H     0.680045 -0.0009824   0.3105     H
H     0.680048 0.501043 0.810517     H
N     0.6804814 0.0115514 0.8207216     N
N     0.6804814 0.4884514 0.3207216     N
O     0.6806318  0.74262  0.89112     O
O     0.6806318  0.75742  0.39112     O
H     0.686056  0.59562   1.0616     H
C     0.6879417 0.1059318 0.3491917     C
C     0.6879417 0.3940718 0.8491917     C
H     0.689374 0.664133 0.257681     H
H     0.689374  0.83587 0.757681     H
C      0.68942 0.2340418 1.0244818     C
C      0.68942 0.2659618 0.5244818     C
H     0.689548  0.18005 0.501033     H
H     0.689548 0.319953  1.00103     H
N     0.6902118 0.1451118 0.3912118     N
C     0.6902118 0.3548918 0.8912118     C
C      0.69362 -0.05222 0.5726417     C
C      0.69362  0.55222 1.0726417     C
H     0.696179 0.548315  1.11782     H
C     0.6967916 0.2406816 0.2208917     C
C     0.6967916 0.2593216 0.7208917     C
C     0.6985316 0.2190616 0.7632117     C
C     0.6985316 0.2809416 0.2632117     C
H     0.698734 0.611907 0.0285026     H
H     0.699181 0.610607  1.01313     H
H     0.700501 0.169755 0.970765     H
H     0.701015 -0.0539465 0.617419     H
Zn    0.701402 0.119102 0.065982    Zn
Zn    0.701402 0.119102 1.065982    Zn
Zn    0.701402 0.380902 0.565982    Zn
Zn    0.701402 1.119102 0.065982    Zn
H     0.701539 0.885324 -0.168026     H
H     0.701669 0.617169  0.37371     H
H     0.703539 0.0282561 0.852044     H
H     0.704992  1.00572 -0.218862     H
H     0.706095 0.256497 0.565652     H
O     0.7063614 0.1666713 0.1316813     O
O     0.7063614 0.3333313 0.6316813     O
H     0.706679 0.250146  1.06328     H
H     0.710442 0.914354 -0.100363     H
H     0.711399 0.557323 0.0689801     H
C      0.71192  0.57702  0.35512     C
C      0.71192  0.92302 -0.14492     C
H     0.712676 0.205385 0.00403747     H
C      0.71592 -0.08052 0.4835118     C
C      0.71592  0.58052 0.9835118     C
C     0.7190616 0.7367917 0.3014716     C
C     0.7190616 0.7632117 0.8014716     C
C     0.7208917 0.6967916 0.2593216     C
C     0.7208917 0.8032116 0.7593216     C
C     0.7225818  0.01162  0.32022     C
C     0.7225818  0.48842  0.82022     C
H     0.723048 0.357353  0.92249     H
N     0.7271014 -0.0821114 0.5384714     N
N     0.7271014 0.5821114 0.0384714     N
H     0.732687  0.53845  1.05402     H
C     0.7327118 0.0636617 0.3420817     C
C     0.7327118 0.4363417 0.8420817     C
C     0.7340418 0.4755218  0.31062     C
C     0.7340418 1.0244818 -0.18942     C
C      0.73552 0.1551217 0.1741617     C
C      0.73552 0.3448817 0.6741617     C
H     0.735595 0.558699 0.00424299     H
C     0.7367917 0.1985316 0.2190616     C
C     0.7367917 0.3014716 0.7190616     C
H     0.737657 0.602508 0.950246     H
C     0.7406816 0.2208917 0.8032116     C
C     0.7406816 0.2791117 0.3032116     C
H      0.74209 -0.104738 0.455382     H
H     0.742322 0.189374  0.83587     H
H     0.742322 0.310629  0.33587     H
O      0.74262  0.60892 0.1806318     O
O      0.74262  0.89112 0.6806318     O
H     0.743525 0.434341 0.293982     H
H     0.750146  1.06328 -0.206679     H
H     0.756478 -0.0656632 0.293983     H
H      0.75649 0.565661 0.793972     H
O      0.75742  0.10892 0.1806318     O
O      0.75742  0.39112 0.6806318     O
H     0.757681 0.689374  0.83587     H
H     0.757681 0.810629  0.33587     H
H     0.757968 0.395298  0.45537     H
H     0.757977 0.104764 -0.0446238     H
C     0.7593216 0.7208917 0.8032116     C
C     0.7593216 0.7791117 0.3032116     C
C     0.7632117 0.6985316 0.2190616     C
C     0.7632117 0.8014716 0.7190616     C
C      0.76452 0.6551217 0.1741617     C
C      0.76452 0.8448817 0.6741617     C
C     0.7659618 -0.0244818  0.31062     C
C     0.7659618 0.5244818  0.81062     C
C     0.7672918 0.5636617 0.3420817     C
C     0.7672918 0.9363417 -0.1579217     C
N     0.7729014 0.0821114 0.0384714     N
N     0.7729014 0.4178914 0.5384714     N
H     0.776956  0.64265  0.42249     H
C     0.7774218  0.51162  0.32022     C
C     0.7774218  0.98842 -0.17982     C
C     0.7791117 0.1967916 0.2593216     C
C     0.7791117 0.3032116 0.7593216     C
C     0.7809416 0.2367917 0.3014716     C
C     0.7809416 0.2632117 0.8014716     C
C      0.78412  0.08052 -0.0164918     C
C      0.78412  0.41952 0.4835118     C
C      0.78812  0.07702  0.35512     C
C      0.78812  0.42302  0.85512     C
O     0.7936414 0.6666713 0.1316813     O
O     0.7936414 0.8333313 0.6316813     O
H     0.793972  0.75649 0.565661     H
H     0.793983 0.743525 0.0656632     H
H     0.798376 0.117169 0.373707     H
H     0.798387 0.382878 0.873718     H
Zn    0.798602 -0.119102 0.565982    Zn
Zn    0.798602 0.619102 0.065982    Zn
Zn    0.798602 0.619102 1.065982    Zn
Zn    0.798602 0.880902 0.565982    Zn
H     0.799032 0.446105  0.61742     H
H     0.799043 0.0539569 0.117421     H
C     0.8014716 0.7190616 0.7632117     C
C     0.8014716 0.7809416 0.2632117     C
C     0.8032116 0.7406816 0.2208917     C
C     0.8032116 0.7593216 0.7208917     C
C      0.80642  0.05222 0.0726417     C
C      0.80642  0.44782 0.5726417     C
C     0.8097918 0.6451118 0.3912118     C
N     0.8097918 0.8548918 -0.1087918     N
H       0.8105 0.819958 0.0009824     H
H     0.810517 0.680048 0.501043     H
C      0.81062 0.7340418 0.0244818     C
C      0.81062 0.7659618 0.5244818     C
H     0.810629 0.164133 0.257681     H
H     0.810629  0.33587 0.757681     H
C     0.8120617 0.6059318 0.3491917     C
C     0.8120617 0.8940718 -0.1508117     C
O     0.8193718  0.24262  0.89112     O
O     0.8193718  0.25742  0.39112     O
N     0.8195214 -0.0115514 0.3207216     N
N     0.8195214 0.5115514 0.8207216     N
H     0.819953  1.00103 -0.189548     H
H     0.819958 0.499016 0.310501     H
C      0.82022 0.7225818  0.48842     C
C      0.82022 0.7774218 -0.01162     C
N     0.8207216 0.6804814 0.0115514     N
N     0.8207216 0.8195214 0.5115514     N
C     0.8258417  0.23552 0.3448817     C
C     0.8258417  0.26452 0.8448817     C
C     0.8271818  0.04962 -0.0388817     C
C     0.8271818  0.45042 0.4611217     C
C      0.82962  0.03842  0.34402     C
C      0.82962  0.46162  0.84402     C
O     0.8333313 0.6316813 0.7936414     O
O     0.8333313 0.8683213 0.2936414     O
H     0.834651 0.449946 0.416326     H
H     0.834661 0.0501139 -0.0836751     H
H      0.83587 0.742322 0.189374     H
H      0.83587 0.757681 0.689374     H
O     0.8396317 -0.0445718 0.4974616     O
O     0.8396317 0.5445718 -0.0025416     O
C     0.8420817 0.7327118 0.4363417     C
C     0.8420817 0.7672918 -0.0636617     C
C      0.84402  0.67042 -0.03842     C
C      0.84402  0.82962  0.46162     C
C     0.8448817 0.6741617  0.76452     C
C     0.8448817 0.8258417  0.26452     C
C     0.8491917 0.6879417 0.3940718     C
C     0.8491917 0.8120617 -0.1059318     C
C      0.84932  0.01982 0.0531018     C
C      0.84932  0.48022 0.5531018     C
H     0.854682 0.627577 -0.0490699     H
H     0.854684 0.872468  0.45099     H
N     0.8548918 0.6087918 0.3097918     N
C     0.8548918 0.8912118 -0.1902118     C
C      0.85512  0.71192 -0.07702     C
C      0.85512  0.78812  0.42302     C
H     0.857353  0.92249 -0.223048     H
O     0.8602414 -0.0685713 0.5833314     O
O     0.8602414 0.5685713 0.0833314     O
C     0.8610016 0.0178516 -0.0041216     C
C     0.8610016 0.4821516 0.4958816     C
C      0.86802 -0.03812 0.5400918     C
C      0.86802  0.53812 0.0400918     C
O     0.8683213 0.2063614 0.3333313     O
O     0.8683213 0.2936414 0.8333313     O
H     0.872468 0.0490584 0.354673     H
H     0.872468  0.45099 0.854684     H
H      0.87371 0.701669 -0.117169     H
H     0.873718 0.798387 0.382878     H
H     0.874382 0.504521 0.582154     H
H     0.874391 -0.00446029 0.0821631     H
Zn    0.880902 -0.065982 0.298602    Zn
Zn    0.880902 0.565982 0.798602    Zn
Zn    0.880902 0.934022 0.298602    Zn
H      0.88376 0.0482261 0.469525     H
H      0.88376 0.451777 -0.0304747     H
H     0.885316 0.832033 -0.298514     H
H     0.885324 0.668026 0.201539     H
O      0.89112 0.6806318  0.74262     O
O      0.89112 0.8193718  0.24262     O
C     0.8912118 0.6902118 0.3548918     C
C     0.8912118 0.8097918 -0.1451118     C
C     0.8940718 0.6508117 0.3120617     C
C     0.8940718 0.8491917 -0.1879417     C
H     0.904849 0.577068 0.539749     H
H     0.904851 -0.077066 0.039751     H
C     0.9089216 -0.0152217 -0.0257116     C
C     0.9089216 0.5152217 0.4742916     C
C     0.9129216 0.0044216 0.5424916     C
C     0.9129216 0.4955816 0.0424916     C
H     0.914354 0.600363 0.210442     H
H     0.914373 0.899681 -0.289581     H
C     0.9150416 0.0466217 0.5024116     C
C     0.9150416 0.4533817 0.0024116     C
H     0.916331 -0.165329 0.0501255     H
H     0.916331 0.665329 0.550125     H
O     0.9166714 0.1397614 0.4314313     O
O     0.9166714 0.3602414 -0.0685713     O
H      0.92249 0.723048 0.357353     H
H      0.92249 0.776956 -0.14265     H
H     0.922936 0.460254 0.404849     H
H     0.922937 0.039751 -0.0951527     H
C      0.92302  0.64492  0.21192     C
C      0.92302  0.85512 -0.28812     C
C     0.9273517 -0.0625917 0.0030517     C
C     0.9273517 0.5625917 0.5030517     C
Zn    0.934022 0.201402 0.380902    Zn
Zn    0.934022 0.298602 -0.119102    Zn
Zn    0.934022 0.298602 0.880902    Zn
C     0.9363417 0.6579217 0.2672918     C
C     0.9363417 0.8420817 -0.2327118     C
C     0.9374117 0.0030517 -0.0726517     C
C     0.9374117 0.4969517 0.4273517     C
H     0.944655  0.64345  0.13021     H
H     0.944664 0.856612 -0.369827     H
H     0.950246 -0.237657 0.102508     H
H     0.950246 0.737657 0.602508     H
H     0.951777 -0.0304747 0.616243     H
H     0.951777 0.530478 0.116243     H
C     0.9533817 0.0024116 0.5849616     C
C     0.9533817 0.4975916 0.0849616     C
C     0.9575116 0.0870816 0.5044216     C
C     0.9575116 0.4129216 0.0044216     C
C     0.9599118  0.13202  0.46192     C
C     0.9599118  0.36802 -0.03812     C
C     0.9611217 -0.1728218  0.04962     C
C     0.9611217 0.6728218  0.54962     C
C      0.96162  0.65602  0.17042     C
C      0.96162  0.84402 -0.32962     C
H     0.970747 0.799535  -0.3303     H
H     0.970765 0.700501 0.169755     H
C     0.9742916 -0.0910816 -0.0152217     C
C     0.9742916 0.5910816 0.4847817     C
H     0.977211 0.0660926 -0.159571     H
H     0.977212 0.433899 0.340482     H
C     0.9835118 -0.21592  0.08052     C
C     0.9835118  0.71592  0.58052     C
C     0.9847817 -0.0257116 -0.0910816     C
C     0.9847817 0.5257116 0.4089216     C
C      0.98842  0.67982 0.2774218     C
C      0.98842  0.82022 -0.2225818     C
C     0.9955816 0.0424916 0.5870816     C
C     0.9955816 0.4575116 0.0870816     C
C     0.9958816 -0.1390016 0.0178516     C
C     0.9958816 0.6390016 0.5178516     C
C     0.9975916 0.0849616 0.5466217     C
C     0.9975916 0.4150416 0.0466217     C
H     0.999795 0.632838 0.178659     H
H     0.999804 0.867184 -0.321368     H
H      1.00103 0.689548 0.319953     H
H      1.00104 0.810517 -0.180048     H
O     1.0025416 0.1603717 0.4554318     O
O     1.0025416 0.3396317 -0.0445718     O
N     1.0030517 -0.0726517 -0.0625917     N
N     1.0030517 0.5726517 0.4374117     N
H      1.00483 -0.244925 0.0528235     H
H      1.00483 0.744925 0.552824     H
H      1.01313 -0.199181 0.110607     H
H      1.01313 0.699181 0.610607     H
C     1.0178516 -0.0041216 -0.1390016     C
C     1.0178516 0.5041216 0.3610016     C
C      1.01982 0.0531018 -0.15072     C
C      1.01982 0.4469018  0.34932     C
C     1.0244818  0.68942 0.2340418     C
C     1.0244818  0.81062 -0.2659618     C
H      1.03048 0.116244 0.548226     H
H      1.03048  0.38376 0.0482261     H
H      1.03304 0.849697 -0.287464     H
H      1.03306 0.650338 0.212557     H
H      1.03438 0.0736753 -0.11294     H
H      1.03439 0.426347 0.387107     H
C      1.03812 0.0400918  0.63202     C
C      1.03812 0.4599118  0.13202     C
H      1.03844 0.445969  0.26735     H
H      1.03845 0.0540196 -0.232687     H
O     1.0445718 -0.0025416 0.6603717     O
O     1.0445718 0.5025416 0.1603717     O
H      1.04831 0.117817 -0.196178     H
H      1.04833 0.382184 0.303874     H
C      1.04962 -0.0388817 -0.1728218     C
C      1.04962 0.5388817 0.3271818     C
H      1.05011 0.583675 0.334661     H
H      1.05013 -0.0836727 -0.165329     H
C      1.05222 0.0726417 -0.19362     C
C      1.05222 0.4273617  0.30642     C
C     1.0531018 -0.15072  0.01982     C
C     1.0531018  0.65072  0.51982     C
H      1.05402 -0.232687 0.0384501     H
H      1.05402 0.732687  0.53845     H
H       1.0616 -0.186056  0.09562     H
H       1.0616 0.686056  0.59562     H
H      1.06328 0.706679 0.250146     H
H      1.06329 0.793388 -0.249855     H
Zn    1.065982 -0.298602 0.119102    Zn
Zn    1.065982 0.701402 0.119102    Zn
Zn    1.065982 0.798602 -0.380902    Zn
Zn    1.065982 0.798602 0.619102    Zn
H      1.06609 -0.159571 -0.0227891     H
H      1.06609 0.659571 0.477211     H
C     1.0726417 -0.19362  0.05222     C
C     1.0726417  0.69362  0.55222     C
H      1.07368 -0.11294 0.0343807     H
H      1.07368  0.61294 0.534381     H
C      1.08052 -0.0164918 -0.21592     C
C      1.08052 0.5164918  0.28412     C
H      1.09562 0.0616023 -0.186056     H
H      1.09562 0.438418 0.313974     H
H      1.10251 -0.0497581 -0.237657     H
H      1.10251 0.549754 0.262376     H
H      1.11061 0.013126 -0.199182     H
H      1.11061 0.486885 0.300877     H
H      1.11782 -0.196179 0.0483147     H
H      1.11782 0.696179 0.548315     H
Zn    1.119102 0.065982 -0.298602    Zn
Zn    1.119102 0.065982 0.701402    Zn
Zn    1.119102 0.434022 0.201402    Zn
