data_I
_chemical_name_common  'val_46'
_cell_length_a 26.52550
_cell_length_b 25.58750
_cell_length_c 29.80160
_cell_angle_alpha 90.00000
_cell_angle_beta  107.42300
_cell_angle_gamma 90.00000
_space_group_name_H-M_alt      'P 1'


loop_
_space_group_symop_operation_xyz
  'x, y, z' 

loop_
_atom_site_label
_atom_site_fract_x
_atom_site_fract_y
_atom_site_fract_z
_atom_site_type_symbol
C      0.00342  0.11942 0.5706716     C
C      0.00342  0.88062 0.0706716     C
C     0.0051518  0.11772 0.3777717     C
C     0.0051518  0.88232 0.8777717     C
O     0.0052712 0.2596313 0.0870111     O
O     0.0052712 0.7403713 0.5870111     O
C      0.00662  0.28082 0.0493518     C
C      0.00662  0.71922 0.5493518     C
O     0.0068812 0.1626413 0.1386811     O
O     0.0068812 0.8373613 0.6386811     O
C      0.00802  0.06902 0.5854316     C
C      0.00802  0.93102 0.0854316     C
H     0.008712 0.043072 0.935694     H
H     0.008712 0.956928 0.435694     H
O     0.0097214 0.0972514 0.0902911     O
O     0.0097214 0.9027514 0.5902911     O
H     0.021706 0.318104 0.537703     H
H     0.021706 0.681896 0.037703     H
H     0.026082  0.19175 0.593989     H
H     0.026082  0.80825 0.093989     H
C      0.02932  0.15682 0.6028217     C
C      0.02932  0.84322 0.1028217     C
H     0.030281 0.126894 0.296762     H
H     0.030281 0.873106 0.796762     H
C      0.03102  0.13622 0.9773016     C
C      0.03102  0.86382 0.4773016     C
C      0.03632  0.05462 0.6300716     C
C      0.03632  0.94542 0.1300716     C
C     0.0370617  0.08302 0.3562216     C
C     0.0370617  0.91702 0.8562216     C
H     0.037313 0.019755 0.639106     H
H     0.037313 0.980245 0.139106     H
C      0.03992  0.31412 0.4773217     C
C      0.03992  0.68592 0.9773217     C
O     0.0416713 0.1840814 0.982301     O
O     0.0416713 0.8159214 0.482301     O
C      0.04182  0.09492 0.3108917     C
C      0.04182  0.90512 0.8108917     C
O     0.0435812 0.2762311 0.030581     O
O     0.0435812 0.7237711 0.530581     O
O     0.0443414 0.2558914 0.1857812     O
O     0.0443414 0.7441114 0.6857812     O
O     0.0463613 0.1018613 0.008081     O
O     0.0463613 0.8981413 0.508081     O
H      0.04641 0.019205 0.718717     H
H      0.04641 0.980795 0.218717     H
C      0.04642  0.32852 0.5230118     C
C      0.04642  0.67152 0.0230118     C
H     0.056994 0.029998 0.407206     H
H     0.056994 0.970002 0.907206     H
C     0.0581618  0.03722 0.3769516     C
C     0.0581618  0.96282 0.8769516     C
C      0.05942  0.14372 0.6472517     C
C      0.05942  0.85632 0.1472517     C
Fe    0.061432 0.215802 0.130702    Fe
Fe    0.061432 0.784202 0.630702    Fe
C     0.0629718  0.09122 0.6613016     C
C     0.0629718  0.90882 0.1613016     C
C     0.0635818  0.05852 0.2883916     C
C     0.0635818  0.94152 0.7883916     C
H     0.066063 0.066018 0.258594     H
H     0.066063 0.933982 0.758594     H
H      0.07045 0.035029 0.502054     H
H      0.07045 0.964971 0.002054     H
H     0.072668 0.320203 0.426484     H
H     0.072668 0.679797 0.926484     H
C     0.0756118 0.0391818 0.7345514     C
C     0.0756118 0.9608218 0.2345514     C
C      0.07662  0.33002  0.45742     C
C      0.07662  0.67002  0.95742     C
H     0.077283 0.169472 0.667956     H
H     0.077283 0.830528 0.167956     H
H     0.078754 0.093971 0.516772     H
H     0.078754 0.906029 0.016772     H
O     0.079261 0.1811911 0.081858     O
O     0.079261 0.8188111 0.581858     O
C      0.08092  0.00172 0.3549017     C
C      0.08092  0.99832 0.8549017     C
Fe    0.081302 0.106173 0.081372    Fe
Fe    0.081302 0.893833 0.581372    Fe
C     0.0819217 0.0109118 0.3087816     C
C     0.0819217 0.9890918 0.8087816     C
O      0.08592 0.0276918 0.0756714     O
O      0.08592 0.9723118 0.5756714     O
C      0.08872  0.35772  0.54712     C
C      0.08872  0.64232  0.04712     C
H     0.092809 0.366603 0.578277     H
H     0.092809 0.633397 0.078277     H
C     0.0930318  0.07752 0.7116516     C
C     0.0930318  0.92252 0.2116516     C
H     0.095805 0.028639 0.870467     H
H     0.095805 0.971361 0.370467     H
C      0.09627  0.06117  0.51665     C
C      0.09627  0.93897  0.01665     C
Fe    0.097452 0.218272 0.034332    Fe
Fe    0.097452 0.781732 0.534332    Fe
C     0.1018117 0.0295518 0.7825116     C
C     0.1018117 0.9704518 0.2825116     C
O     0.1158613 0.1784814 0.181871     O
O     0.1158613 0.8215214 0.681871     O
O     0.1171914 0.0971914 0.1541911     O
O     0.1171914 0.9028114 0.6541911     O
O     0.1175312 0.2725612 0.1376611     O
O     0.1175312 0.7274412 0.6376611     O
O     0.1176116 0.2635714 0.9834611     O
O     0.1176116 0.7364314 0.4834611     O
C      0.11942  0.35982 0.4802718     C
C      0.11942  0.64022 0.9802718     C
C      0.11964  0.00074  0.59144     C
C      0.11964  0.99934  0.09144     C
H     0.121221  0.06456 0.499297     H
H     0.121221  0.93544 0.999297     H
N      0.12284  0.04604  0.56344     N
N      0.12284  0.95404  0.06344     N
C      0.12612  0.37472  0.52542     C
C      0.12612  0.62532  0.02542     C
C      0.13092  0.13282 0.1860716     C
C      0.13092  0.86722 0.6860716     C
C      0.13882 0.1067818 0.7350916     C
C      0.13882 0.8932218 0.2350916     C
H     0.143763 0.369843 0.465009     H
H     0.143763 0.630157 0.965009     H
H     0.143908 0.004935  0.12074     H
H     0.143908 0.995065  0.62074     H
C     0.1449118 0.0607218 0.8054816     C
C     0.1449118 0.9392818 0.3054816     C
H     0.148913 0.109989 0.600168     H
H     0.148913 0.890011 0.100168     H
O     0.1507313 0.1665013 0.0207711     O
O     0.1507313 0.8335013 0.5207711     O
H     0.151351 0.131933 0.718584     H
H     0.151351 0.868067 0.218584     H
C      0.15382 0.2779017 0.1194817     C
C      0.15382 0.7221017 0.6194817     C
O     0.1549012 0.2583812 0.0807011     O
O     0.1549012 0.7416212 0.5807011     O
O     0.1555314 0.1054614 0.0752611     O
O     0.1555314 0.8945414 0.5752611     O
H     0.160719 0.056055 0.837577     H
H     0.160719 0.943945 0.337577     H
C      0.16325  0.07675  0.59554     C
C      0.16325  0.92335  0.09554     C
C     0.1649718 0.0983718 0.7821616     C
C     0.1649718 0.9016318 0.2821616     C
C      0.16502  0.12232 0.0387917     C
C      0.16502  0.87772 0.5387917     C
C      0.16632  0.11532 0.2338916     C
C      0.16632  0.88472 0.7338916     C
H     0.169392 0.038969 0.222029     H
H     0.169392 0.961031 0.722029     H
H     0.172239  0.18909 0.260818     H
H     0.172239  0.81091 0.760818     H
C      0.17332  0.40582 0.5535318     C
C      0.17332  0.59422 0.0535318     C
H     0.175737 0.058756 0.625014     H
H     0.175737 0.941244 0.125014     H
H     0.177006 0.452335 0.498939     H
H     0.177006 0.547665 0.998939     H
C      0.18022  0.06482 0.2448316     C
C      0.18022  0.93522 0.7448316     C
H     0.182064 0.317922 0.204729     H
H     0.182064 0.682078 0.704729     H
C      0.18212  0.15452 0.2680218     C
C      0.18212  0.84552 0.7680218     C
H     0.186954 0.129267 0.958614     H
H     0.186954 0.870733 0.458614     H
H     0.187985 0.368191  0.61529     H
H     0.187985 0.631809  0.11529     H
H     0.191976   0.0818  0.58259     H
H     0.191976   0.9182  0.08259     H
H     0.192087  0.14067  0.86723     H
H     0.192087  0.85933  0.36723     H
C      0.19342  0.44562 0.5306416     C
C      0.19342  0.55442 0.0306416     C
C      0.19422  0.08712 0.0162517     C
C      0.19422  0.91292 0.5162517     C
C      0.19902  0.09752  0.97292     C
C      0.19902  0.90252  0.47292     C
C      0.19972  0.39522 0.6001016     C
C      0.19972  0.60482 0.1001016     C
C     0.2011118 0.3099718 0.1455116     C
C     0.2011118 0.6900318 0.6455116     C
C      0.20712  0.32702 0.1899316     C
C      0.20712  0.67302 0.6899316     C
H     0.210207 0.016706 0.382042     H
H     0.210207 0.983294 0.882042     H
C      0.21052  0.05172 0.2901717     C
C      0.21052  0.94832 0.7901717     C
C     0.2116318 0.1292217 0.8072414     C
C     0.2116318 0.8707817 0.3072414     C
C      0.21324  0.14042 0.3131018     C
C      0.21324  0.85962 0.8131018     C
H      0.21401 0.033918 0.068199     H
H      0.21401 0.966082 0.568199     H
C      0.21552  0.04082  0.03802     C
C      0.21552  0.95922  0.53802     C
C      0.21782  0.14812 0.8527117     C
C      0.21782  0.85192 0.3527117     C
H     0.220208 0.017061 0.297178     H
H     0.220208 0.982939 0.797178     H
C      0.22202  0.06112 0.9492918     C
C      0.22202  0.93892 0.4492918     C
H      0.22372 0.068711 0.919253     H
H      0.22372 0.931289 0.419253     H
H     0.225017 0.166551 0.335503     H
H     0.225017 0.833449 0.835503     H
C      0.22682  0.08972 0.3255917     C
C      0.22682  0.91032 0.8255917     C
H     0.234439 0.311092 0.092975     H
H     0.234439 0.688908 0.592975     H
C      0.23612  0.47412 0.5542616     C
C      0.23612  0.52592 0.0542616     C
C      0.23852  0.32242 0.1235116     C
C      0.23852  0.67762 0.6235116     C
C      0.23862  0.00482 0.0163218     C
C      0.23862  0.99522 0.5163218     C
C      0.23922  0.03662 0.3984416     C
C      0.23922  0.96342 0.8984416     C
C      0.24222  0.01392 0.9704917     C
C      0.24222  0.98612 0.4704917     C
C      0.24342  0.42422 0.6245616     C
C      0.24342  0.57582 0.1245616     C
H     0.247782 0.130483 0.756394     H
H     0.247782 0.869517 0.256394     H
H     0.247939 0.473963 0.468104     H
H     0.247939 0.526037 0.968104     H
C      0.24952  0.35762 0.2135017     C
C      0.24952  0.64242 0.7135017     C
C      0.25052  0.14242 0.7865017     C
C      0.25052  0.85762 0.2865017     C
H     0.252061 0.026037 0.531896     H
H     0.252061 0.973963 0.031896     H
H     0.252218 0.369517 0.243606     H
H     0.252218 0.630483 0.743606     H
C      0.25662  0.07582 0.3754416     C
C      0.25662  0.92422 0.8754416     C
C      0.25782  0.48612 0.0295117     C
C      0.25782  0.51392 0.5295117     C
C      0.26082  0.46342 0.6015616     C
C      0.26082  0.53662 0.1015616     C
C      0.26142  0.49522 0.9836818     C
C      0.26142  0.50482 0.4836818     C
C      0.26152  0.17762 0.8764916     C
C      0.26152  0.82242 0.3764916     C
C      0.26392  0.02592 0.4457416     C
C      0.26392  0.97412 0.9457416     C
H     0.265561 0.188908 0.907025     H
H     0.265561 0.811092 0.407025     H
C      0.27322  0.41032 0.6744117     C
C      0.27322  0.58972 0.1744117     C
H     0.274983 0.333449 0.664497     H
H     0.274983 0.666551 0.164497     H
H      0.27628 0.431289 0.080747     H
H      0.27628 0.568711 0.580747     H
C      0.27802  0.43892 0.0507118     C
C      0.27802  0.56112 0.5507118     C
H     0.279792 0.482939 0.702822     H
H     0.279792 0.517061 0.202822     H
C      0.28222  0.35192 0.1472917     C
C      0.28222  0.64812 0.6472917     C
C      0.28452  0.45922  0.96202     C
C      0.28452  0.54082  0.46202     C
H      0.28599 0.466082 0.931801     H
H      0.28599 0.533918 0.431801     H
C      0.28684  0.35962 0.6869018     C
C      0.28684  0.64042 0.1869018     C
C     0.2883718 0.3707817 0.1927614     C
C     0.2883718 0.6292217 0.6927614     C
C      0.28952  0.44832 0.7098317     C
C      0.28952  0.55172 0.2098317     C
H     0.289793 0.483294 0.617958     H
H     0.289793 0.516706 0.117958     H
C      0.29292  0.17302 0.8100716     C
C      0.29292  0.82702 0.3100716     C
C     0.2988918 0.1900318 0.8544916     C
C     0.2988918 0.8099718 0.3544916     C
C      0.30032  0.10482 0.3999016     C
C      0.30032  0.89522 0.8999016     C
C      0.30102  0.40252  0.02712     C
C      0.30102  0.59752  0.52712     C
C      0.30582  0.41292 0.9837517     C
C      0.30582  0.58712 0.4837517     C
C      0.30662  0.05442 0.4693616     C
C      0.30662  0.94562 0.9693616     C
H     0.307913  0.35933  0.13277     H
H     0.307913  0.64067  0.63277     H
H     0.308024   0.4182  0.41741     H
H     0.308024   0.5818  0.91741     H
H     0.312015 0.131809  0.38471     H
H     0.312015 0.868191  0.88471     H
H     0.313046 0.370733 0.041386     H
H     0.313046 0.629267 0.541386     H
C      0.31792  0.34552 0.7319818     C
C      0.31792  0.65452 0.2319818     C
H     0.317936 0.182078 0.795271     H
H     0.317936 0.817922 0.295271     H
C      0.31982  0.43522 0.7551716     C
C      0.31982  0.56482 0.2551716     C
H     0.322994 0.047665 0.501061     H
H     0.322994 0.952335 0.001061     H
H     0.324263 0.441244 0.374986     H
H     0.324263 0.558756 0.874986     H
C      0.32672  0.09422 0.4464718     C
C      0.32672  0.90582 0.9464718     C
H     0.327761  0.31091 0.739182     H
H     0.327761  0.68909 0.239182     H
H     0.330608 0.461031 0.777971     H
H     0.330608 0.538969 0.277971     H
C      0.33372  0.38472 0.7661116     C
C      0.33372  0.61532 0.2661116     C
C      0.33502  0.37772 0.9612117     C
C      0.33502  0.62232 0.4612117     C
C     0.3350318 0.4016318 0.2178416     C
C     0.3350318 0.5983718 0.7178416     C
C      0.33685  0.42335  0.40454     C
C      0.33685  0.57675  0.90454     C
H     0.339281 0.443945 0.162423     H
H     0.339281 0.556055 0.662423     H
O     0.3444714 0.3945414 0.9247411     O
O     0.3444714 0.6054614 0.4247411     O
O     0.3451012 0.2416212 0.9193011     O
O     0.3451012 0.7583812 0.4193011     O
C      0.34622 0.2221017 0.8805217     C
C      0.34622 0.7779017 0.3805217     C
H     0.348649 0.368067 0.281416     H
H     0.348649 0.631933 0.781416     H
O     0.3492713 0.3335013 0.9792311     O
O     0.3492713 0.6665013 0.4792311     O
H     0.351087 0.390011 0.399832     H
H     0.351087 0.609989 0.899832     H
C     0.3550918 0.4392818 0.1945216     C
C     0.3550918 0.5607218 0.6945216     C
H     0.356092 0.495065  0.87926     H
H     0.356092 0.504935  0.37926     H
H     0.356237 0.130157 0.534991     H
H     0.356237 0.869843 0.034991     H
C      0.36122 0.3932218 0.2649116     C
C      0.36122 0.6067818 0.7649116     C
C      0.36912  0.36722 0.8139316     C
C      0.36912  0.63282 0.3139316     C
C      0.37392  0.12532  0.47462     C
C      0.37392  0.87472  0.97462     C
N      0.37724  0.45404  0.43664     N
N      0.37724  0.54604  0.93664     N
H     0.378779  0.43544 0.500703     H
H     0.378779  0.56456 0.000703     H
C      0.38044  0.49934  0.40864     C
C      0.38044  0.50074  0.90864     C
C      0.38062  0.14022 0.5197318     C
C      0.38062  0.85982 0.0197318     C
O     0.3823916 0.2364314 0.0165411     O
O     0.3823916 0.7635714 0.5165411     O
O     0.3824712 0.2274412 0.8623411     O
O     0.3824712 0.7725612 0.3623411     O
O     0.3828114 0.4028114 0.8458111     O
O     0.3828114 0.5971914 0.3458111     O
O     0.3841413 0.3215214 0.818131     O
O     0.3841413 0.6784814 0.318131     O
C     0.3981917 0.4704518 0.2174916     C
C     0.3981917 0.5295518 0.7174916     C
Fe    0.402552 0.281732 0.965672    Fe
Fe    0.402552 0.718272 0.465672    Fe
C      0.40387  0.43897  0.48345     C
C      0.40387  0.56117  0.98345     C
H     0.404195 0.471361 0.129533     H
H     0.404195 0.528639 0.629533     H
C     0.4069718  0.42252 0.2883516     C
C     0.4069718  0.57752 0.7883516     C
H     0.407191 0.133397 0.421723     H
H     0.407191 0.866603 0.921723     H
C      0.41132  0.14232  0.45292     C
C      0.41132  0.85772  0.95292     C
O      0.41412 0.4723118 0.9243314     O
O      0.41412 0.5276918 0.4243314     O
C     0.4180817 0.4890918 0.6912216     C
C     0.4180817 0.5109118 0.1912216     C
Fe    0.418702 0.393833 0.918632    Fe
Fe    0.418702 0.606173 0.418632    Fe
C      0.41912  0.49832 0.6451017     C
C      0.41912  0.50172 0.1451017     C
O     0.420741 0.3188111 0.918158     O
O     0.420741 0.6811911 0.418158     O
H     0.421246 0.406029 0.483228     H
H     0.421246 0.593971 0.983228     H
H     0.422717 0.330528 0.332044     H
H     0.422717 0.669472 0.832044     H
C      0.42342  0.17002  0.54262     C
C      0.42342  0.83002  0.04262     C
C     0.4243918 0.4608218 0.2654514     C
C     0.4243918 0.5391818 0.7654514     C
H     0.427332 0.179797 0.573516     H
H     0.427332 0.820203 0.073516     H
H      0.42955 0.464971 0.497946     H
H      0.42955 0.535029 0.997946     H
H     0.433937 0.433982 0.741406     H
H     0.433937 0.566018 0.241406     H
C     0.4364218  0.44152 0.7116116     C
C     0.4364218  0.55852 0.2116116     C
C     0.4370318  0.40882 0.3387016     C
C     0.4370318  0.59122 0.8387016     C
Fe    0.438572 0.284202 0.869302    Fe
Fe    0.438572 0.715802 0.369302    Fe
C      0.44062  0.35632 0.3527517     C
C      0.44062  0.64372 0.8527517     C
C     0.4418418  0.46282 0.6230516     C
C     0.4418418  0.53722 0.1230516     C
H     0.443006 0.470002 0.592794     H
H     0.443006 0.529998 0.092794     H
H      0.45359 0.480795 0.281283     H
H      0.45359 0.519205 0.781283     H
C      0.45362  0.17152 0.4769918     C
C      0.45362  0.82852 0.9769918     C
O     0.4536413 0.3981413 0.991921     O
O     0.4536413 0.6018613 0.491921     O
O     0.4556614 0.2441114 0.8142212     O
O     0.4556614 0.7558914 0.3142212     O
O     0.4564212 0.2237711 0.969421     O
O     0.4564212 0.7762311 0.469421     O
C      0.45822  0.40512 0.6891117     C
C      0.45822  0.59492 0.1891117     C
O     0.4583313 0.3159214 0.017701     O
O     0.4583313 0.6840814 0.517701     O
C      0.46012  0.18592 0.5226817     C
C      0.46012  0.81412 0.0226817     C
H     0.462687 0.480245 0.360894     H
H     0.462687 0.519755 0.860894     H
C     0.4629417  0.41702 0.6437816     C
C     0.4629417  0.58302 0.1437816     C
C      0.46372  0.44542 0.3699316     C
C      0.46372  0.55462 0.8699316     C
C      0.46902  0.36382 0.0227016     C
C      0.46902  0.63622 0.5227016     C
H     0.469719 0.373106 0.703238     H
H     0.469719 0.626894 0.203238     H
C      0.47072  0.34322 0.3971817     C
C      0.47072  0.65682 0.8971817     C
H     0.473918  0.30825 0.406011     H
H     0.473918  0.69175 0.906011     H
H     0.478294 0.181896 0.462297     H
H     0.478294 0.818104 0.962297     H
O     0.4902814 0.4027514 0.9097111     O
O     0.4902814 0.5972514 0.4097111     O
H     0.491288 0.456928 0.064306     H
H     0.491288 0.543072 0.564306     H
C      0.49202  0.43102 0.4145716     C
C      0.49202  0.56902 0.9145716     C
O     0.4931212 0.3373613 0.8613211     O
O     0.4931212 0.6626413 0.3613211     O
C      0.49342  0.21922 0.9506518     C
C      0.49342  0.78082 0.4506518     C
O     0.4947312 0.2403713 0.9129911     O
O     0.4947312 0.7596313 0.4129911     O
C     0.4948518  0.38232 0.6222317     C
C     0.4948518  0.61772 0.1222317     C
C      0.49662  0.38062 0.4293316     C
C      0.49662  0.61942 0.9293316     C
C      0.50342  0.38062 0.0706716     C
C      0.50342  0.61942 0.5706716     C
C     0.5051518  0.38232 0.8777717     C
C     0.5051518  0.61772 0.3777717     C
O     0.5052712 0.2403713 0.5870111     O
O     0.5052712 0.7596313 0.0870111     O
C      0.50662  0.21922 0.5493518     C
C      0.50662  0.78082 0.0493518     C
O     0.5068812 0.3373613 0.6386811     O
O     0.5068812 0.6626413 0.1386811     O
C      0.50802  0.43102 0.0854316     C
C      0.50802  0.56902 0.5854316     C
H     0.508712 0.456928 0.435694     H
H     0.508712 0.543072 0.935694     H
O     0.5097214 0.4027514 0.5902911     O
O     0.5097214 0.5972514 0.0902911     O
H     0.521706 0.181896 0.037703     H
H     0.521706 0.818104 0.537703     H
H     0.526082  0.30825 0.093989     H
H     0.526082  0.69175 0.593989     H
C      0.52932  0.34322 0.1028217     C
C      0.52932  0.65682 0.6028217     C
H     0.530281 0.373106 0.796762     H
H     0.530281 0.626894 0.296762     H
C      0.53102  0.36382 0.4773016     C
C      0.53102  0.63622 0.9773016     C
C      0.53632  0.44542 0.1300716     C
C      0.53632  0.55462 0.6300716     C
C     0.5370617  0.41702 0.8562216     C
C     0.5370617  0.58302 0.3562216     C
H     0.537313 0.480245 0.139106     H
H     0.537313 0.519755 0.639106     H
C      0.53992  0.18592 0.9773217     C
C      0.53992  0.81412 0.4773217     C
O     0.5416713 0.3159214 0.482301     O
O     0.5416713 0.6840814 0.982301     O
C      0.54182  0.40512 0.8108917     C
C      0.54182  0.59492 0.3108917     C
O     0.5435812 0.2237711 0.530581     O
O     0.5435812 0.7762311 0.030581     O
O     0.5443414 0.2441114 0.6857812     O
O     0.5443414 0.7558914 0.1857812     O
O     0.5463613 0.3981413 0.508081     O
O     0.5463613 0.6018613 0.008081     O
H      0.54641 0.480795 0.218717     H
H      0.54641 0.519205 0.718717     H
C      0.54642  0.17152 0.0230118     C
C      0.54642  0.82852 0.5230118     C
H     0.556994 0.470002 0.907206     H
H     0.556994 0.529998 0.407206     H
C     0.5581618  0.46282 0.8769516     C
C     0.5581618  0.53722 0.3769516     C
C      0.55942  0.35632 0.1472517     C
C      0.55942  0.64372 0.6472517     C
Fe    0.561432 0.284202 0.630702    Fe
Fe    0.561432 0.715802 0.130702    Fe
C     0.5629718  0.40882 0.1613016     C
C     0.5629718  0.59122 0.6613016     C
C     0.5635818  0.44152 0.7883916     C
C     0.5635818  0.55852 0.2883916     C
H     0.566063 0.433982 0.758594     H
H     0.566063 0.566018 0.258594     H
H      0.57045 0.464971 0.002054     H
H      0.57045 0.535029 0.502054     H
H     0.572668 0.179797 0.926484     H
H     0.572668 0.820203 0.426484     H
C     0.5756118 0.4608218 0.2345514     C
C     0.5756118 0.5391818 0.7345514     C
C      0.57662  0.17002  0.95742     C
C      0.57662  0.83002  0.45742     C
H     0.577283 0.330528 0.167956     H
H     0.577283 0.669472 0.667956     H
H     0.578754 0.406029 0.016772     H
H     0.578754 0.593971 0.516772     H
O     0.579261 0.3188111 0.581858     O
O     0.579261 0.6811911 0.081858     O
C      0.58092  0.49832 0.8549017     C
C      0.58092  0.50172 0.3549017     C
Fe    0.581302 0.393833 0.581372    Fe
Fe    0.581302 0.606173 0.081372    Fe
C     0.5819217 0.4890918 0.8087816     C
C     0.5819217 0.5109118 0.3087816     C
O      0.58592 0.4723118 0.5756714     O
O      0.58592 0.5276918 0.0756714     O
C      0.58872  0.14232  0.04712     C
C      0.58872  0.85772  0.54712     C
H     0.592809 0.133397 0.078277     H
H     0.592809 0.866603 0.578277     H
C     0.5930318  0.42252 0.2116516     C
C     0.5930318  0.57752 0.7116516     C
H     0.595805 0.471361 0.370467     H
H     0.595805 0.528639 0.870467     H
C      0.59627  0.43897  0.01665     C
C      0.59627  0.56117  0.51665     C
Fe    0.597452 0.281732 0.534332    Fe
Fe    0.597452 0.718272 0.034332    Fe
C     0.6018117 0.4704518 0.2825116     C
C     0.6018117 0.5295518 0.7825116     C
O     0.6158613 0.3215214 0.681871     O
O     0.6158613 0.6784814 0.181871     O
O     0.6171914 0.4028114 0.6541911     O
O     0.6171914 0.5971914 0.1541911     O
O     0.6175312 0.2274412 0.6376611     O
O     0.6175312 0.7725612 0.1376611     O
O     0.6176116 0.2364314 0.4834611     O
O     0.6176116 0.7635714 0.9834611     O
C      0.61942  0.14022 0.9802718     C
C      0.61942  0.85982 0.4802718     C
C      0.61964  0.49934  0.09144     C
C      0.61964  0.50074  0.59144     C
H     0.621221  0.43544 0.999297     H
H     0.621221  0.56456 0.499297     H
N      0.62284  0.45404  0.06344     N
N      0.62284  0.54604  0.56344     N
C      0.62612  0.12532  0.02542     C
C      0.62612  0.87472  0.52542     C
C      0.63092  0.36722 0.6860716     C
C      0.63092  0.63282 0.1860716     C
C      0.63882 0.3932218 0.2350916     C
C      0.63882 0.6067818 0.7350916     C
H     0.643763 0.130157 0.965009     H
H     0.643763 0.869843 0.465009     H
H     0.643908 0.495065  0.62074     H
H     0.643908 0.504935  0.12074     H
C     0.6449118 0.4392818 0.3054816     C
C     0.6449118 0.5607218 0.8054816     C
H     0.648913 0.390011 0.100168     H
H     0.648913 0.609989 0.600168     H
O     0.6507313 0.3335013 0.5207711     O
O     0.6507313 0.6665013 0.0207711     O
H     0.651351 0.368067 0.218584     H
H     0.651351 0.631933 0.718584     H
C      0.65382 0.2221017 0.6194817     C
C      0.65382 0.7779017 0.1194817     C
O     0.6549012 0.2416212 0.5807011     O
O     0.6549012 0.7583812 0.0807011     O
O     0.6555314 0.3945414 0.5752611     O
O     0.6555314 0.6054614 0.0752611     O
H     0.660719 0.443945 0.337577     H
H     0.660719 0.556055 0.837577     H
C      0.66325  0.42335  0.09554     C
C      0.66325  0.57675  0.59554     C
C     0.6649718 0.4016318 0.2821616     C
C     0.6649718 0.5983718 0.7821616     C
C      0.66502  0.37772 0.5387917     C
C      0.66502  0.62232 0.0387917     C
C      0.66632  0.38472 0.7338916     C
C      0.66632  0.61532 0.2338916     C
H     0.669392 0.461031 0.722029     H
H     0.669392 0.538969 0.222029     H
H     0.672239  0.31091 0.760818     H
H     0.672239  0.68909 0.260818     H
C      0.67332  0.09422 0.0535318     C
C      0.67332  0.90582 0.5535318     C
H     0.675737 0.441244 0.125014     H
H     0.675737 0.558756 0.625014     H
H     0.677006 0.047665 0.998939     H
H     0.677006 0.952335 0.498939     H
C      0.68022  0.43522 0.7448316     C
C      0.68022  0.56482 0.2448316     C
H     0.682064 0.182078 0.704729     H
H     0.682064 0.817922 0.204729     H
C      0.68212  0.34552 0.7680218     C
C      0.68212  0.65452 0.2680218     C
H     0.686954 0.370733 0.458614     H
H     0.686954 0.629267 0.958614     H
H     0.687985 0.131809  0.11529     H
H     0.687985 0.868191  0.61529     H
H     0.691976   0.4182  0.08259     H
H     0.691976   0.5818  0.58259     H
H     0.692087  0.35933  0.36723     H
H     0.692087  0.64067  0.86723     H
C      0.69342  0.05442 0.0306416     C
C      0.69342  0.94562 0.5306416     C
C      0.69422  0.41292 0.5162517     C
C      0.69422  0.58712 0.0162517     C
C      0.69902  0.40252  0.47292     C
C      0.69902  0.59752  0.97292     C
C      0.69972  0.10482 0.1001016     C
C      0.69972  0.89522 0.6001016     C
C     0.7011118 0.1900318 0.6455116     C
C     0.7011118 0.8099718 0.1455116     C
C      0.70712  0.17302 0.6899316     C
C      0.70712  0.82702 0.1899316     C
H     0.710207 0.483294 0.882042     H
H     0.710207 0.516706 0.382042     H
C      0.71052  0.44832 0.7901717     C
C      0.71052  0.55172 0.2901717     C
C     0.7116318 0.3707817 0.3072414     C
C     0.7116318 0.6292217 0.8072414     C
C      0.71324  0.35962 0.8131018     C
C      0.71324  0.64042 0.3131018     C
H      0.71401 0.466082 0.568199     H
H      0.71401 0.533918 0.068199     H
C      0.71552  0.45922  0.53802     C
C      0.71552  0.54082  0.03802     C
C      0.71782  0.35192 0.3527117     C
C      0.71782  0.64812 0.8527117     C
H     0.720208 0.482939 0.797178     H
H     0.720208 0.517061 0.297178     H
C      0.72202  0.43892 0.4492918     C
C      0.72202  0.56112 0.9492918     C
H      0.72372 0.431289 0.419253     H
H      0.72372 0.568711 0.919253     H
H     0.725017 0.333449 0.835503     H
H     0.725017 0.666551 0.335503     H
C      0.72682  0.41032 0.8255917     C
C      0.72682  0.58972 0.3255917     C
H     0.734439 0.188908 0.592975     H
H     0.734439 0.811092 0.092975     H
C      0.73612  0.02592 0.0542616     C
C      0.73612  0.97412 0.5542616     C
C      0.73852  0.17762 0.6235116     C
C      0.73852  0.82242 0.1235116     C
C      0.73862  0.49522 0.5163218     C
C      0.73862  0.50482 0.0163218     C
C      0.73922  0.46342 0.8984416     C
C      0.73922  0.53662 0.3984416     C
C      0.74222  0.48612 0.4704917     C
C      0.74222  0.51392 0.9704917     C
C      0.74342  0.07582 0.1245616     C
C      0.74342  0.92422 0.6245616     C
H     0.747782 0.369517 0.256394     H
H     0.747782 0.630483 0.756394     H
H     0.747939 0.026037 0.968104     H
H     0.747939 0.973963 0.468104     H
C      0.74952  0.14242 0.7135017     C
C      0.74952  0.85762 0.2135017     C
C      0.75052  0.35762 0.2865017     C
C      0.75052  0.64242 0.7865017     C
H     0.752061 0.473963 0.031896     H
H     0.752061 0.526037 0.531896     H
H     0.752218 0.130483 0.743606     H
H     0.752218 0.869517 0.243606     H
C      0.75662  0.42422 0.8754416     C
C      0.75662  0.57582 0.3754416     C
C      0.75782  0.01392 0.5295117     C
C      0.75782  0.98612 0.0295117     C
C      0.76082  0.03662 0.1015616     C
C      0.76082  0.96342 0.6015616     C
C      0.76142  0.00482 0.4836818     C
C      0.76142  0.99522 0.9836818     C
C      0.76152  0.32242 0.3764916     C
C      0.76152  0.67762 0.8764916     C
C      0.76392  0.47412 0.9457416     C
C      0.76392  0.52592 0.4457416     C
H     0.765561 0.311092 0.407025     H
H     0.765561 0.688908 0.907025     H
C      0.77322  0.08972 0.1744117     C
C      0.77322  0.91032 0.6744117     C
H     0.774983 0.166551 0.164497     H
H     0.774983 0.833449 0.664497     H
H      0.77628 0.068711 0.580747     H
H      0.77628 0.931289 0.080747     H
C      0.77802  0.06112 0.5507118     C
C      0.77802  0.93892 0.0507118     C
H     0.779792 0.017061 0.202822     H
H     0.779792 0.982939 0.702822     H
C      0.78222  0.14812 0.6472917     C
C      0.78222  0.85192 0.1472917     C
C      0.78452  0.04082  0.46202     C
C      0.78452  0.95922  0.96202     C
H      0.78599 0.033918 0.431801     H
H      0.78599 0.966082 0.931801     H
C      0.78684  0.14042 0.1869018     C
C      0.78684  0.85962 0.6869018     C
C     0.7883718 0.1292217 0.6927614     C
C     0.7883718 0.8707817 0.1927614     C
C      0.78952  0.05172 0.2098317     C
C      0.78952  0.94832 0.7098317     C
H     0.789793 0.016706 0.117958     H
H     0.789793 0.983294 0.617958     H
C      0.79292  0.32702 0.3100716     C
C      0.79292  0.67302 0.8100716     C
C     0.7988918 0.3099718 0.3544916     C
C     0.7988918 0.6900318 0.8544916     C
C      0.80032  0.39522 0.8999016     C
C      0.80032  0.60482 0.3999016     C
C      0.80102  0.09752  0.52712     C
C      0.80102  0.90252  0.02712     C
C      0.80582  0.08712 0.4837517     C
C      0.80582  0.91292 0.9837517     C
C      0.80662  0.44562 0.9693616     C
C      0.80662  0.55442 0.4693616     C
H     0.807913  0.14067  0.63277     H
H     0.807913  0.85933  0.13277     H
H     0.808024   0.0818  0.91741     H
H     0.808024   0.9182  0.41741     H
H     0.812015 0.368191  0.88471     H
H     0.812015 0.631809  0.38471     H
H     0.813046 0.129267 0.541386     H
H     0.813046 0.870733 0.041386     H
C      0.81792  0.15452 0.2319818     C
C      0.81792  0.84552 0.7319818     C
H     0.817936 0.317922 0.295271     H
H     0.817936 0.682078 0.795271     H
C      0.81982  0.06482 0.2551716     C
C      0.81982  0.93522 0.7551716     C
H     0.822994 0.452335 0.001061     H
H     0.822994 0.547665 0.501061     H
H     0.824263 0.058756 0.874986     H
H     0.824263 0.941244 0.374986     H
C      0.82672  0.40582 0.9464718     C
C      0.82672  0.59422 0.4464718     C
H     0.827761  0.18909 0.239182     H
H     0.827761  0.81091 0.739182     H
H     0.830608 0.038969 0.277971     H
H     0.830608 0.961031 0.777971     H
C      0.83372  0.11532 0.2661116     C
C      0.83372  0.88472 0.7661116     C
C      0.83502  0.12232 0.4612117     C
C      0.83502  0.87772 0.9612117     C
C     0.8350318 0.0983718 0.7178416     C
C     0.8350318 0.9016318 0.2178416     C
C      0.83685  0.07675  0.90454     C
C      0.83685  0.92335  0.40454     C
H     0.839281 0.056055 0.662423     H
H     0.839281 0.943945 0.162423     H
O     0.8444714 0.1054614 0.4247411     O
O     0.8444714 0.8945414 0.9247411     O
O     0.8451012 0.2583812 0.4193011     O
O     0.8451012 0.7416212 0.9193011     O
C      0.84622 0.2779017 0.3805217     C
C      0.84622 0.7221017 0.8805217     C
H     0.848649 0.131933 0.781416     H
H     0.848649 0.868067 0.281416     H
O     0.8492713 0.1665013 0.4792311     O
O     0.8492713 0.8335013 0.9792311     O
H     0.851087 0.109989 0.899832     H
H     0.851087 0.890011 0.399832     H
C     0.8550918 0.0607218 0.6945216     C
C     0.8550918 0.9392818 0.1945216     C
H     0.856092 0.004935  0.37926     H
H     0.856092 0.995065  0.87926     H
H     0.856237 0.369843 0.034991     H
H     0.856237 0.630157 0.534991     H
C      0.86122 0.1067818 0.7649116     C
C      0.86122 0.8932218 0.2649116     C
C      0.86912  0.13282 0.3139316     C
C      0.86912  0.86722 0.8139316     C
C      0.87392  0.37472  0.97462     C
C      0.87392  0.62532  0.47462     C
N      0.87724  0.04604  0.93664     N
N      0.87724  0.95404  0.43664     N
H     0.878779  0.06456 0.000703     H
H     0.878779  0.93544 0.500703     H
C      0.88044  0.00074  0.90864     C
C      0.88044  0.99934  0.40864     C
C      0.88062  0.35982 0.0197318     C
C      0.88062  0.64022 0.5197318     C
O     0.8823916 0.2635714 0.5165411     O
O     0.8823916 0.7364314 0.0165411     O
O     0.8824712 0.2725612 0.3623411     O
O     0.8824712 0.7274412 0.8623411     O
O     0.8828114 0.0971914 0.3458111     O
O     0.8828114 0.9028114 0.8458111     O
O     0.8841413 0.1784814 0.318131     O
O     0.8841413 0.8215214 0.818131     O
C     0.8981917 0.0295518 0.7174916     C
C     0.8981917 0.9704518 0.2174916     C
Fe    0.902552 0.218272 0.465672    Fe
Fe    0.902552 0.781732 0.965672    Fe
C      0.90387  0.06117  0.98345     C
C      0.90387  0.93897  0.48345     C
H     0.904195 0.028639 0.629533     H
H     0.904195 0.971361 0.129533     H
C     0.9069718  0.07752 0.7883516     C
C     0.9069718  0.92252 0.2883516     C
H     0.907191 0.366603 0.921723     H
H     0.907191 0.633397 0.421723     H
C      0.91132  0.35772  0.95292     C
C      0.91132  0.64232  0.45292     C
O      0.91412 0.0276918 0.4243314     O
O      0.91412 0.9723118 0.9243314     O
C     0.9180817 0.0109118 0.1912216     C
C     0.9180817 0.9890918 0.6912216     C
Fe    0.918702 0.106173 0.418632    Fe
Fe    0.918702 0.893833 0.918632    Fe
C      0.91912  0.00172 0.1451017     C
C      0.91912  0.99832 0.6451017     C
O     0.920741 0.1811911 0.418158     O
O     0.920741 0.8188111 0.918158     O
H     0.921246 0.093971 0.983228     H
H     0.921246 0.906029 0.483228     H
H     0.922717 0.169472 0.832044     H
H     0.922717 0.830528 0.332044     H
C      0.92342  0.33002  0.04262     C
C      0.92342  0.67002  0.54262     C
C     0.9243918 0.0391818 0.7654514     C
C     0.9243918 0.9608218 0.2654514     C
H     0.927332 0.320203 0.073516     H
H     0.927332 0.679797 0.573516     H
H      0.92955 0.035029 0.997946     H
H      0.92955 0.964971 0.497946     H
H     0.933937 0.066018 0.241406     H
H     0.933937 0.933982 0.741406     H
C     0.9364218  0.05852 0.2116116     C
C     0.9364218  0.94152 0.7116116     C
C     0.9370318  0.09122 0.8387016     C
C     0.9370318  0.90882 0.3387016     C
Fe    0.938572 0.215802 0.369302    Fe
Fe    0.938572 0.784202 0.869302    Fe
C      0.94062  0.14372 0.8527517     C
C      0.94062  0.85632 0.3527517     C
C     0.9418418  0.03722 0.1230516     C
C     0.9418418  0.96282 0.6230516     C
H     0.943006 0.029998 0.092794     H
H     0.943006 0.970002 0.592794     H
H      0.95359 0.019205 0.781283     H
H      0.95359 0.980795 0.281283     H
C      0.95362  0.32852 0.9769918     C
C      0.95362  0.67152 0.4769918     C
O     0.9536413 0.1018613 0.491921     O
O     0.9536413 0.8981413 0.991921     O
O     0.9556614 0.2558914 0.3142212     O
O     0.9556614 0.7441114 0.8142212     O
O     0.9564212 0.2762311 0.469421     O
O     0.9564212 0.7237711 0.969421     O
C      0.95822  0.09492 0.1891117     C
C      0.95822  0.90512 0.6891117     C
O     0.9583313 0.1840814 0.517701     O
O     0.9583313 0.8159214 0.017701     O
C      0.96012  0.31412 0.0226817     C
C      0.96012  0.68592 0.5226817     C
H     0.962687 0.019755 0.860894     H
H     0.962687 0.980245 0.360894     H
C     0.9629417  0.08302 0.1437816     C
C     0.9629417  0.91702 0.6437816     C
C      0.96372  0.05462 0.8699316     C
C      0.96372  0.94542 0.3699316     C
C      0.96902  0.13622 0.5227016     C
C      0.96902  0.86382 0.0227016     C
H     0.969719 0.126894 0.203238     H
H     0.969719 0.873106 0.703238     H
C      0.97072  0.15682 0.8971817     C
C      0.97072  0.84322 0.3971817     C
H     0.973918  0.19175 0.906011     H
H     0.973918  0.80825 0.406011     H
H     0.978294 0.318104 0.962297     H
H     0.978294 0.681896 0.462297     H
O     0.9902814 0.0972514 0.4097111     O
O     0.9902814 0.9027514 0.9097111     O
H     0.991288 0.043072 0.564306     H
H     0.991288 0.956928 0.064306     H
C      0.99202  0.06902 0.9145716     C
C      0.99202  0.93102 0.4145716     C
O     0.9931212 0.1626413 0.3613211     O
O     0.9931212 0.8373613 0.8613211     O
C      0.99342  0.28082 0.4506518     C
C      0.99342  0.71922 0.9506518     C
O     0.9947312 0.2596313 0.4129911     O
O     0.9947312 0.7403713 0.9129911     O
C     0.9948518  0.11772 0.1222317     C
C     0.9948518  0.88232 0.6222317     C
C      0.99662  0.11942 0.9293316     C
C      0.99662  0.88062 0.4293316     C
