data_I
_chemical_name_common  'val_3'
_cell_length_a 28.16930
_cell_length_b 28.16930
_cell_length_c 28.16930
_cell_angle_alpha 90.00000
_cell_angle_beta  90.00000
_cell_angle_gamma 90.00000
_space_group_name_H-M_alt      'P 1'


loop_
_space_group_symop_operation_xyz
  'x, y, z' 

loop_
_atom_site_label
_atom_site_fract_x
_atom_site_fract_y
_atom_site_fract_z
_atom_site_type_symbol
Zr    -0.086954      0.5      0.5    Zr
O     -0.0707216 0.4118914 0.4118914     O
O     -0.0707216 0.4118914 0.5881114     O
O     -0.0707216 0.5881114 0.4118914     O
O     -0.0707216 0.5881114 0.5881114     O
Zr    -0.062852 -0.062852      0.5    Zr
Zr    -0.062852 0.062852      0.5    Zr
Zr    -0.062852      0.5 -0.062852    Zr
Zr    -0.062852      0.5 0.062852    Zr
Zr    -0.062852      0.5 0.937152    Zr
Zr    -0.062852 0.937152      0.5    Zr
O     -0.06284      0.0  0.45712     O
O     -0.06284      0.0  0.54292     O
O     -0.06284  0.45712      0.0     O
O     -0.06284  0.54292      0.0     O
O     -0.0477714 -0.0477714 0.3731416     O
O     -0.0477714 -0.0477714 0.6268616     O
O     -0.0477714 0.0477714 0.3731416     O
O     -0.0477714 0.0477714 0.6268616     O
O     -0.0477714 0.3731416 -0.0477714     O
O     -0.0477714 0.3731416 0.0477714     O
O     -0.0477714 0.6268616 -0.0477714     O
O     -0.0477714 0.6268616 0.0477714     O
O     -0.04292  0.43724      0.5     O
O     -0.04292      0.5  0.43724     O
O     -0.04292      0.5  0.56284     O
O     -0.04292  0.56284      0.5     O
H     -0.0264201  0.34521 0.422245     H
H     -0.0264201  0.34521 0.577755     H
H     -0.0264201 0.422245  0.34521     H
H     -0.0264201 0.422245  0.65479     H
H     -0.0264201 0.577755  0.34521     H
H     -0.0264201 0.577755  0.65479     H
H     -0.0264201  0.65479 0.422245     H
H     -0.0264201  0.65479 0.577755     H
H     -0.00425167 0.348263 0.475283     H
H     -0.00425167 0.475283 0.651737     H
H     -0.00425167 0.524717 0.348263     H
H     -0.00425167 0.651737 0.524717     H
O          0.0 -0.06284  0.45712     O
O          0.0 -0.06284  0.54292     O
Zr         0.0      0.0 0.413054    Zr
Zr         0.0      0.0 0.586954    Zr
O          0.0  0.06284  0.45712     O
O          0.0  0.06284  0.54292     O
O          0.0  0.35812  0.44172     O
O          0.0  0.35812  0.55832     O
Zr         0.0 0.413054      0.0    Zr
Zr         0.0 0.413054      1.0    Zr
Zr         0.0 0.437152 0.437152    Zr
Zr         0.0 0.437152 0.562852    Zr
O          0.0  0.44172  0.35812     O
O          0.0  0.44172  0.64192     O
O          0.0  0.45712 -0.06284     O
O          0.0  0.45712  0.06284     O
O          0.0  0.54292 -0.06284     O
O          0.0  0.54292  0.06284     O
O          0.0  0.55832  0.35812     O
O          0.0  0.55832  0.64192     O
Zr         0.0 0.562852 0.437152    Zr
Zr         0.0 0.562852 0.562852    Zr
Zr         0.0 0.586954      0.0    Zr
Zr         0.0 0.586954      1.0    Zr
O          0.0  0.64192  0.44172     O
O          0.0  0.64192  0.55832     O
Zr         0.0      1.0 0.413054    Zr
Zr         0.0      1.0 0.586954    Zr
H     0.0247172 0.495748 0.151737     H
H     0.0306718 0.345634 0.570403     H
H     0.0306718 0.429597 0.345634     H
H     0.0306718 0.570403 0.654366     H
H     0.0306718 0.654366 0.429597     H
O      0.04292  0.43724      0.5     O
O      0.04292      0.5  0.43724     O
O      0.04292      0.5  0.56284     O
O      0.04292  0.56284      0.5     O
O     0.0477714 -0.0477714 0.3731416     O
O     0.0477714 -0.0477714 0.6268616     O
O     0.0477714 0.0477714 0.3731416     O
O     0.0477714 0.0477714 0.6268616     O
O     0.0477714 0.3731416 -0.0477714     O
O     0.0477714 0.3731416 0.0477714     O
O     0.0477714 0.6268616 -0.0477714     O
O     0.0477714 0.6268616 0.0477714     O
O      0.05832  0.14192      0.5     O
O      0.05832      0.5  0.14192     O
O      0.05832      0.5  0.85812     O
O      0.05832  0.85812      0.5     O
H     0.0601469 0.533139 0.846224     H
H     0.0601469 0.846224 0.466861     H
O      0.06284      0.0  0.45712     O
O      0.06284      0.0  0.54292     O
O      0.06284  0.45712      0.0     O
O      0.06284  0.54292      0.0     O
Zr    0.062852 -0.062852      0.5    Zr
Zr    0.062852 0.062852      0.5    Zr
Zr    0.062852      0.5 -0.062852    Zr
Zr    0.062852      0.5 0.062852    Zr
Zr    0.062852      0.5 0.937152    Zr
Zr    0.062852      0.5 1.062852    Zr
Zr    0.062852 0.937152      0.5    Zr
Zr    0.062852 1.062852      0.5    Zr
H     0.067572 0.067572  0.29297     H
H     0.067572 0.067572  0.70703     H
H     0.067572  0.29297 0.067572     H
H     0.067572  0.29297 0.932428     H
H     0.067572  0.70703 0.067572     H
H     0.067572  0.70703 0.932428     H
H     0.067572 0.932428  0.29297     H
H     0.067572 0.932428  0.70703     H
H     0.0704026 0.154366 0.530672     H
O     0.0707216 0.4118914 0.4118914     O
O     0.0707216 0.4118914 0.5881114     O
O     0.0707216 0.5881114 0.4118914     O
O     0.0707216 0.5881114 0.5881114     O
C      0.07772  0.07772  0.38642     C
C      0.07772  0.07772  0.61362     C
C      0.07772  0.38642  0.07772     C
C      0.07772  0.38642  0.92232     C
C      0.07772  0.61362  0.07772     C
C      0.07772  0.61362  0.92232     C
C      0.07772  0.92232  0.38642     C
C      0.07772  0.92232  0.61362     C
H     0.0777545  0.15479  0.47358     H
H     0.0777545  0.47358  0.15479     H
H     0.0830126 0.237524 0.212807     H
H     0.0830126 0.237524 0.787193     H
H     0.0830126 0.762476 0.212807     H
H     0.0830126 0.762476 0.787193     H
H     0.0850154 0.481243 0.844792     H
H     0.0850154 0.844792 0.518757     H
Zr    0.086954      0.5      0.5    Zr
O     0.0881114 0.0881114 0.4292816     O
O     0.0881114 0.0881114 0.5707216     O
O     0.0881114 0.4292816 0.0881114     O
O     0.0881114 0.4292816 0.9118914     O
O     0.0881114 0.5707216 0.0881114     O
O     0.0881114 0.5707216 0.9118914     O
O     0.0881114 0.9118914 0.4292816     O
O     0.0881114 0.9118914 0.5707216     O
C      0.09412  0.09412  0.30234     C
C      0.09412  0.09412  0.69774     C
C      0.09412  0.30234  0.09412     C
C      0.09412  0.30234  0.90592     C
C      0.09412  0.69774  0.09412     C
C      0.09412  0.69774  0.90592     C
C      0.09412  0.90592  0.30234     C
C      0.09412  0.90592  0.69774     C
H     0.101403 0.218638  0.27017     H
H     0.101403 0.218638  0.72983     H
H     0.101403 0.781362  0.27017     H
H     0.101403 0.781362  0.72983     H
H     0.103255 0.354483 0.354483     H
H     0.103255 0.354483 0.645517     H
H     0.103255 0.645517 0.354483     H
H     0.103255 0.645517 0.645517     H
C      0.10412  0.10412  0.34902     C
C      0.10412  0.10412  0.65102     C
C      0.10412  0.34902  0.10412     C
C      0.10412  0.34902  0.89592     C
C      0.10412  0.65102  0.10412     C
C      0.10412  0.65102  0.89592     C
C      0.10412  0.89592  0.34902     C
C      0.10412  0.89592  0.65102     C
H     0.111111 0.111111 0.230002     H
H     0.111111 0.111111 0.769998     H
H     0.111111 0.230002 0.111111     H
H     0.111111 0.230002 0.888889     H
H     0.111111 0.769998 0.111111     H
H     0.111111 0.769998 0.888889     H
H     0.111111 0.888889 0.230002     H
H     0.111111 0.888889 0.769998     H
C      0.11164  0.23882  0.23882     C
C      0.11164  0.23882  0.76122     C
C      0.11164  0.76122  0.23882     C
C      0.11164  0.76122  0.76122     C
C      0.11362  0.42232  0.42232     C
C      0.11362  0.42232  0.57772     C
C      0.11362  0.57772  0.42232     C
C      0.11362  0.57772  0.57772     C
H     0.118356 0.275546 0.248732     H
H     0.118356 0.275546 0.751268     H
H     0.118356 0.724454 0.248732     H
H     0.118356 0.724454 0.751268     H
C      0.11882  0.11882  0.26712     C
C      0.11882  0.11882  0.73292     C
C      0.11882  0.26712  0.11882     C
C      0.11882  0.26712  0.88122     C
C      0.11882  0.73292  0.11882     C
C      0.11882  0.73292  0.88122     C
C      0.11882  0.88122  0.26712     C
C      0.11882  0.88122  0.73292     C
O     0.1268616 0.4522314 0.4522314     O
O     0.1268616 0.4522314 0.5477714     O
O     0.1268616 0.5477714 0.4522314     O
O     0.1268616 0.5477714 0.5477714     O
C      0.13772  0.13772  0.35974     C
C      0.13772  0.13772  0.64034     C
C      0.13772  0.35974  0.13772     C
C      0.13772  0.35974  0.86232     C
C      0.13772  0.64034  0.13772     C
C      0.13772  0.64034  0.86232     C
C      0.13772  0.86232  0.35974     C
C      0.13772  0.86232  0.64034     C
C      0.14034  0.36232  0.36232     C
C      0.14034  0.36232  0.63772     C
C      0.14034  0.63772  0.36232     C
C      0.14034  0.63772  0.63772     C
O      0.14192  0.05832      0.5     O
O      0.14192      0.5  0.05832     O
O      0.14192      0.5  0.94172     O
O      0.14192  0.94172      0.5     O
H     0.145517 0.145517 0.396745     H
H     0.145517 0.145517 0.603255     H
H     0.145517 0.396745 0.145517     H
H     0.145517 0.396745 0.854483     H
H     0.145517 0.603255 0.145517     H
H     0.145517 0.603255 0.854483     H
H     0.145517 0.854483 0.396745     H
H     0.145517 0.854483 0.603255     H
C      0.15102  0.39592  0.39592     C
C      0.15102  0.39592  0.60412     C
C      0.15102  0.60412  0.39592     C
C      0.15102  0.60412  0.60412     C
H     0.151737 0.0247172 0.495748     H
H     0.151902  0.51411 0.972417     H
H     0.151902 0.972417  0.48589     H
C     0.1521618 0.1521618  0.27762     C
C     0.1521618 0.1521618  0.72242     C
C     0.1521618  0.27762 0.1521618     C
C     0.1521618  0.27762 0.8478418     C
C     0.1521618  0.72242 0.1521618     C
C     0.1521618  0.72242 0.8478418     C
C     0.1521618 0.8478418  0.27762     C
C     0.1521618 0.8478418  0.72242     C
H     0.153793 0.466885 0.939554     H
H     0.153793 0.939554 0.533115     H
H     0.154366 0.530672 0.0704026     H
H      0.15479 0.0777545  0.47358     H
H      0.15479  0.47358 0.0777545     H
C      0.15652 0.2173417 0.2173417     C
C      0.15652 0.2173417 0.7826617     C
C      0.15652 0.7826617 0.2173417     C
C      0.15652 0.7826617 0.7826617     C
C      0.16182  0.16182  0.32452     C
C      0.16182  0.16182  0.67552     C
C      0.16182  0.32452  0.16182     C
C      0.16182  0.32452  0.83822     C
C      0.16182  0.67552  0.16182     C
C      0.16182  0.67552  0.83822     C
C      0.16182  0.83822  0.32452     C
C      0.16182  0.83822  0.67552     C
H     0.166191 0.311668 0.311668     H
H     0.166191 0.311668 0.688332     H
H     0.166191 0.688332 0.311668     H
H     0.166191 0.688332 0.688332     H
C      0.17552  0.33822  0.33822     C
C      0.17552  0.33822  0.66182     C
C      0.17552  0.66182  0.33822     C
C      0.17552  0.66182  0.66182     C
C     0.1765217 0.1765217  0.23732     C
C     0.1765217 0.1765217  0.76272     C
C     0.1765217  0.23732 0.1765217     C
C     0.1765217  0.23732 0.8234817     C
C     0.1765217  0.76272 0.1765217     C
C     0.1765217  0.76272 0.8234817     C
C     0.1765217 0.8234817  0.23732     C
C     0.1765217 0.8234817  0.76272     C
H     0.188332 0.188332 0.333809     H
H     0.188332 0.188332 0.666191     H
H     0.188332 0.333809 0.188332     H
H     0.188332 0.333809 0.811668     H
H     0.188332 0.666191 0.188332     H
H     0.188332 0.666191 0.811668     H
H     0.188332 0.811668 0.333809     H
H     0.188332 0.811668 0.666191     H
C      0.19774  0.40592  0.40592     C
C      0.19774  0.40592  0.59412     C
C      0.19774  0.59412  0.40592     C
C      0.19774  0.59412  0.59412     C
H      0.20703 0.432428 0.432428     H
H      0.20703 0.432428 0.567572     H
H      0.20703 0.567572 0.432428     H
H      0.20703 0.567572 0.567572     H
H     0.212807 0.0830126 0.237524     H
H     0.212807 0.0830126 0.762476     H
H     0.212807 0.237524 0.0830126     H
H     0.212807 0.237524 0.916987     H
H     0.212807 0.762476 0.0830126     H
H     0.212807 0.762476 0.916987     H
H     0.212807 0.916987 0.237524     H
H     0.212807 0.916987 0.762476     H
C     0.2173417  0.15652 0.2173417     C
C     0.2173417  0.15652 0.7826617     C
C     0.2173417 0.2173417  0.15652     C
C     0.2173417 0.2173417  0.84352     C
C     0.2173417 0.7826617  0.15652     C
C     0.2173417 0.7826617  0.84352     C
C     0.2173417  0.84352 0.2173417     C
C     0.2173417  0.84352 0.7826617     C
C      0.22242 0.3478418 0.3478418     C
C      0.22242 0.3478418 0.6521618     C
C      0.22242 0.6521618 0.3478418     C
C      0.22242 0.6521618 0.6521618     C
H      0.22983 0.281362 0.398597     H
H      0.22983 0.281362 0.601403     H
H      0.22983 0.398597 0.281362     H
H      0.22983 0.398597 0.718638     H
H      0.22983 0.601403 0.281362     H
H      0.22983 0.601403 0.718638     H
H      0.22983 0.718638 0.398597     H
H      0.22983 0.718638 0.601403     H
H     0.230002 0.111111 0.111111     H
H     0.230002 0.111111 0.888889     H
H     0.230002 0.888889 0.111111     H
H     0.230002 0.888889 0.888889     H
C      0.23292  0.38122  0.38122     C
C      0.23292  0.38122  0.61882     C
C      0.23292  0.61882  0.38122     C
C      0.23292  0.61882  0.61882     C
C      0.23732 0.1765217 0.1765217     C
C      0.23732 0.1765217 0.8234817     C
C      0.23732 0.8234817 0.1765217     C
C      0.23732 0.8234817 0.8234817     C
C      0.23882  0.11164  0.23882     C
C      0.23882  0.11164  0.76122     C
C      0.23882  0.23882  0.11164     C
C      0.23882  0.23882  0.88844     C
C      0.23882  0.76122  0.11164     C
C      0.23882  0.76122  0.88844     C
C      0.23882  0.88844  0.23882     C
C      0.23882  0.88844  0.76122     C
H     0.248732 0.118356 0.275546     H
H     0.248732 0.118356 0.724454     H
H     0.248732 0.275546 0.118356     H
H     0.248732 0.275546 0.881644     H
H     0.248732 0.724454 0.118356     H
H     0.248732 0.724454 0.881644     H
H     0.248732 0.881644 0.275546     H
H     0.248732 0.881644 0.724454     H
H     0.251268 0.224454 0.381644     H
H     0.251268 0.224454 0.618356     H
H     0.251268 0.381644 0.224454     H
H     0.251268 0.381644 0.775546     H
H     0.251268 0.618356 0.224454     H
H     0.251268 0.618356 0.775546     H
H     0.251268 0.775546 0.381644     H
H     0.251268 0.775546 0.618356     H
C      0.26122  0.26122  0.38844     C
C      0.26122  0.26122  0.61164     C
C      0.26122  0.38844  0.26122     C
C      0.26122  0.38844  0.73882     C
C      0.26122  0.61164  0.26122     C
C      0.26122  0.61164  0.73882     C
C      0.26122  0.73882  0.38844     C
C      0.26122  0.73882  0.61164     C
C      0.26272 0.3234817 0.3234817     C
C      0.26272 0.3234817 0.6765217     C
C      0.26272 0.6765217 0.3234817     C
C      0.26272 0.6765217 0.6765217     C
C      0.26712  0.11882  0.11882     C
C      0.26712  0.11882  0.88122     C
C      0.26712  0.88122  0.11882     C
C      0.26712  0.88122  0.88122     C
H     0.269998 0.388889 0.388889     H
H     0.269998 0.388889 0.611111     H
H     0.269998 0.611111 0.388889     H
H     0.269998 0.611111 0.611111     H
H      0.27017 0.101403 0.218638     H
H      0.27017 0.101403 0.781362     H
H      0.27017 0.218638 0.101403     H
H      0.27017 0.218638 0.898597     H
H      0.27017 0.781362 0.101403     H
H      0.27017 0.781362 0.898597     H
H      0.27017 0.898597 0.218638     H
H      0.27017 0.898597 0.781362     H
C      0.27762 0.1521618 0.1521618     C
C      0.27762 0.1521618 0.8478418     C
C      0.27762 0.8478418 0.1521618     C
C      0.27762 0.8478418 0.8478418     C
C     0.2826617 0.2826617  0.34352     C
C     0.2826617 0.2826617  0.65652     C
C     0.2826617  0.34352 0.2826617     C
C     0.2826617  0.34352 0.7173417     C
C     0.2826617  0.65652 0.2826617     C
C     0.2826617  0.65652 0.7173417     C
C     0.2826617 0.7173417  0.34352     C
C     0.2826617 0.7173417  0.65652     C
H     0.287193 0.262476 0.416987     H
H     0.287193 0.262476 0.583013     H
H     0.287193 0.416987 0.262476     H
H     0.287193 0.416987 0.737524     H
H     0.287193 0.583013 0.262476     H
H     0.287193 0.583013 0.737524     H
H     0.287193 0.737524 0.416987     H
H     0.287193 0.737524 0.583013     H
H      0.29297 0.067572 0.067572     H
H      0.29297 0.067572 0.932428     H
H      0.29297 0.932428 0.067572     H
H      0.29297 0.932428 0.932428     H
C      0.30234  0.09412  0.09412     C
C      0.30234  0.09412  0.90592     C
C      0.30234  0.90592  0.09412     C
C      0.30234  0.90592  0.90592     C
H     0.311668 0.166191 0.311668     H
H     0.311668 0.166191 0.688332     H
H     0.311668 0.311668 0.166191     H
H     0.311668 0.311668 0.833809     H
H     0.311668 0.688332 0.166191     H
H     0.311668 0.688332 0.833809     H
H     0.311668 0.833809 0.311668     H
H     0.311668 0.833809 0.688332     H
C     0.3234817  0.26272 0.3234817     C
C     0.3234817  0.26272 0.6765217     C
C     0.3234817 0.3234817  0.26272     C
C     0.3234817 0.3234817  0.73732     C
C     0.3234817 0.6765217  0.26272     C
C     0.3234817 0.6765217  0.73732     C
C     0.3234817  0.73732 0.3234817     C
C     0.3234817  0.73732 0.6765217     C
C      0.32452  0.16182  0.16182     C
C      0.32452  0.16182  0.83822     C
C      0.32452  0.83822  0.16182     C
C      0.32452  0.83822  0.83822     C
H     0.333809 0.188332 0.188332     H
H     0.333809 0.188332 0.811668     H
H     0.333809 0.811668 0.188332     H
H     0.333809 0.811668 0.811668     H
C      0.33822  0.17552  0.33822     C
C      0.33822  0.17552  0.66182     C
C      0.33822  0.33822  0.17552     C
C      0.33822  0.33822  0.82452     C
C      0.33822  0.66182  0.17552     C
C      0.33822  0.66182  0.82452     C
C      0.33822  0.82452  0.33822     C
C      0.33822  0.82452  0.66182     C
C      0.34352 0.2826617 0.2826617     C
C      0.34352 0.2826617 0.7173417     C
C      0.34352 0.7173417 0.2826617     C
C      0.34352 0.7173417 0.7173417     C
H      0.34521 -0.0264201 0.422245     H
H      0.34521 -0.0264201 0.577755     H
H      0.34521 0.422245 -0.0264201     H
H      0.34521 0.577755 -0.0264201     H
H     0.345634 0.0306718 0.429597     H
H     0.345634 0.570403 0.0306718     H
C     0.3478418  0.22242 0.3478418     C
C     0.3478418  0.22242 0.6521618     C
C     0.3478418 0.3478418  0.22242     C
C     0.3478418 0.3478418  0.77762     C
C     0.3478418 0.6521618  0.22242     C
C     0.3478418 0.6521618  0.77762     C
C     0.3478418  0.77762 0.3478418     C
C     0.3478418  0.77762 0.6521618     C
H     0.348263 -0.00425167 0.524717     H
H     0.348263 0.475283 -0.00425167     H
C      0.34902  0.10412  0.10412     C
C      0.34902  0.10412  0.89592     C
C      0.34902  0.89592  0.10412     C
C      0.34902  0.89592  0.89592     C
H     0.354483 0.103255 0.354483     H
H     0.354483 0.103255 0.645517     H
H     0.354483 0.354483 0.103255     H
H     0.354483 0.354483 0.896745     H
H     0.354483 0.645517 0.103255     H
H     0.354483 0.645517 0.896745     H
H     0.354483 0.896745 0.354483     H
H     0.354483 0.896745 0.645517     H
O      0.35812      0.0  0.44172     O
O      0.35812      0.0  0.55832     O
O      0.35812  0.44172      0.0     O
O      0.35812  0.55832      0.0     O
C      0.35974  0.13772  0.13772     C
C      0.35974  0.13772  0.86232     C
C      0.35974  0.86232  0.13772     C
C      0.35974  0.86232  0.86232     C
C      0.36232  0.14034  0.36232     C
C      0.36232  0.14034  0.63772     C
C      0.36232  0.36232  0.14034     C
C      0.36232  0.36232  0.85974     C
C      0.36232  0.63772  0.14034     C
C      0.36232  0.63772  0.85974     C
C      0.36232  0.85974  0.36232     C
C      0.36232  0.85974  0.63772     C
O     0.3731416 -0.0477714 -0.0477714     O
O     0.3731416 -0.0477714 0.0477714     O
O     0.3731416 0.0477714 -0.0477714     O
O     0.3731416 0.0477714 0.0477714     O
C      0.38122  0.23292  0.38122     C
C      0.38122  0.23292  0.61882     C
C      0.38122  0.38122  0.23292     C
C      0.38122  0.38122  0.76712     C
C      0.38122  0.61882  0.23292     C
C      0.38122  0.61882  0.76712     C
C      0.38122  0.76712  0.38122     C
C      0.38122  0.76712  0.61882     C
H     0.381644 0.224454 0.251268     H
H     0.381644 0.224454 0.748732     H
H     0.381644 0.775546 0.251268     H
H     0.381644 0.775546 0.748732     H
C      0.38642  0.07772  0.07772     C
C      0.38642  0.07772  0.92232     C
C      0.38642  0.92232  0.07772     C
C      0.38642  0.92232  0.92232     C
C      0.38844  0.26122  0.26122     C
C      0.38844  0.26122  0.73882     C
C      0.38844  0.73882  0.26122     C
C      0.38844  0.73882  0.73882     C
H     0.388889 0.269998 0.388889     H
H     0.388889 0.269998 0.611111     H
H     0.388889 0.388889 0.269998     H
H     0.388889 0.388889 0.730002     H
H     0.388889 0.611111 0.269998     H
H     0.388889 0.611111 0.730002     H
H     0.388889 0.730002 0.388889     H
H     0.388889 0.730002 0.611111     H
C      0.39592  0.15102  0.39592     C
C      0.39592  0.15102  0.60412     C
C      0.39592  0.39592  0.15102     C
C      0.39592  0.39592  0.84902     C
C      0.39592  0.60412  0.15102     C
C      0.39592  0.60412  0.84902     C
C      0.39592  0.84902  0.39592     C
C      0.39592  0.84902  0.60412     C
H     0.396745 0.145517 0.145517     H
H     0.396745 0.145517 0.854483     H
H     0.396745 0.854483 0.145517     H
H     0.396745 0.854483 0.854483     H
H     0.398597 0.281362  0.22983     H
H     0.398597 0.281362  0.77017     H
H     0.398597 0.718638  0.22983     H
H     0.398597 0.718638  0.77017     H
C      0.40592  0.19774  0.40592     C
C      0.40592  0.19774  0.59412     C
C      0.40592  0.40592  0.19774     C
C      0.40592  0.40592  0.80234     C
C      0.40592  0.59412  0.19774     C
C      0.40592  0.59412  0.80234     C
C      0.40592  0.80234  0.40592     C
C      0.40592  0.80234  0.59412     C
O     0.4118914 -0.0707216 0.4118914     O
O     0.4118914 -0.0707216 0.5881114     O
O     0.4118914 0.0707216 0.4118914     O
O     0.4118914 0.0707216 0.5881114     O
O     0.4118914 0.4118914 -0.0707216     O
O     0.4118914 0.4118914 0.0707216     O
O     0.4118914 0.5881114 -0.0707216     O
O     0.4118914 0.5881114 0.0707216     O
Zr    0.413054      0.0      0.0    Zr
Zr    0.413054      0.0      1.0    Zr
Zr    0.413054      1.0      0.0    Zr
Zr    0.413054      1.0      1.0    Zr
H     0.416987 0.262476 0.287193     H
H     0.416987 0.262476 0.712807     H
H     0.416987 0.737524 0.287193     H
H     0.416987 0.737524 0.712807     H
H     0.422245 -0.0264201  0.34521     H
H     0.422245 -0.0264201  0.65479     H
H     0.422245  0.34521 -0.0264201     H
H     0.422245  0.65479 -0.0264201     H
C      0.42232  0.11362  0.42232     C
C      0.42232  0.11362  0.57772     C
C      0.42232  0.42232  0.11362     C
C      0.42232  0.42232  0.88642     C
C      0.42232  0.57772  0.11362     C
C      0.42232  0.57772  0.88642     C
C      0.42232  0.88642  0.42232     C
C      0.42232  0.88642  0.57772     C
O     0.4292816 0.0881114 0.0881114     O
O     0.4292816 0.0881114 0.9118914     O
O     0.4292816 0.9118914 0.0881114     O
O     0.4292816 0.9118914 0.9118914     O
H     0.429597 0.0306718 0.654366     H
H     0.429597 0.345634 0.0306718     H
H     0.432428  0.20703 0.432428     H
H     0.432428  0.20703 0.567572     H
H     0.432428 0.432428  0.20703     H
H     0.432428 0.432428  0.79297     H
H     0.432428 0.567572  0.20703     H
H     0.432428 0.567572  0.79297     H
H     0.432428  0.79297 0.432428     H
H     0.432428  0.79297 0.567572     H
Zr    0.437152      0.0 0.437152    Zr
Zr    0.437152      0.0 0.562852    Zr
Zr    0.437152 0.437152      0.0    Zr
Zr    0.437152 0.437152      1.0    Zr
Zr    0.437152 0.562852      0.0    Zr
Zr    0.437152 0.562852      1.0    Zr
Zr    0.437152      1.0 0.437152    Zr
Zr    0.437152      1.0 0.562852    Zr
O      0.43724 -0.04292      0.5     O
O      0.43724  0.04292      0.5     O
O      0.43724      0.5 -0.04292     O
O      0.43724      0.5  0.04292     O
O      0.44172      0.0  0.35812     O
O      0.44172      0.0  0.64192     O
O      0.44172  0.35812      0.0     O
O      0.44172  0.64192      0.0     O
O     0.4522314 0.1268616 0.4522314     O
O     0.4522314 0.1268616 0.5477714     O
O     0.4522314 0.4522314 0.1268616     O
O     0.4522314 0.4522314 0.8731416     O
O     0.4522314 0.5477714 0.1268616     O
O     0.4522314 0.5477714 0.8731416     O
O     0.4522314 0.8731416 0.4522314     O
O     0.4522314 0.8731416 0.5477714     O
O      0.45712 -0.06284      0.0     O
O      0.45712      0.0 -0.06284     O
O      0.45712      0.0  0.06284     O
O      0.45712  0.06284      0.0     O
H     0.466861 0.0601469 0.846224     H
H     0.466885 0.939554 0.153793     H
H     0.471218 0.925785 0.845414     H
H      0.47358 0.0777545  0.15479     H
H      0.47358  0.15479 0.0777545     H
H     0.475283 -0.00425167 0.348263     H
H     0.475283 0.651737 -0.00425167     H
H     0.481243 0.844792 0.0850154     H
H      0.48589 0.151902 0.972417     H
H     0.495748 0.151737 0.0247172     H
Zr         0.5 -0.086954      0.5    Zr
Zr         0.5 -0.062852 -0.062852    Zr
Zr         0.5 -0.062852 0.062852    Zr
Zr         0.5 -0.062852 0.937152    Zr
O          0.5 -0.04292  0.43724     O
O          0.5 -0.04292  0.56284     O
O          0.5  0.04292  0.43724     O
O          0.5  0.04292  0.56284     O
O          0.5  0.05832  0.14192     O
O          0.5  0.05832  0.85812     O
Zr         0.5 0.062852 -0.062852    Zr
Zr         0.5 0.062852 0.062852    Zr
Zr         0.5 0.062852 0.937152    Zr
Zr         0.5 0.062852 1.062852    Zr
Zr         0.5 0.086954      0.5    Zr
O          0.5  0.14192  0.05832     O
O          0.5  0.14192  0.94172     O
O          0.5  0.43724 -0.04292     O
O          0.5  0.43724  0.04292     O
Zr         0.5      0.5 -0.086954    Zr
Zr         0.5      0.5 0.086954    Zr
Zr         0.5      0.5 0.913054    Zr
O          0.5  0.56284 -0.04292     O
O          0.5  0.56284  0.04292     O
H          0.5 0.848279 0.975555     H
O          0.5  0.85812  0.05832     O
O          0.5  0.85812  0.94172     O
Zr         0.5 0.913054      0.5    Zr
Zr         0.5 0.937152 -0.062852    Zr
Zr         0.5 0.937152 0.062852    Zr
Zr         0.5 0.937152 0.937152    Zr
Zr         0.5 0.937152 1.062852    Zr
O          0.5  0.94172  0.14192     O
O          0.5  0.94172  0.85812     O
H          0.5 0.975555 0.848279     H
Zr         0.5 1.062852 0.062852    Zr
Zr         0.5 1.062852 0.937152    Zr
H      0.51411 0.972417 0.151902     H
H     0.518757 0.0850154 0.844792     H
H     0.524717 -0.00425167 0.651737     H
H     0.524717 0.348263 -0.00425167     H
H     0.528782 0.845414 0.925785     H
H     0.530672 0.0704026 0.154366     H
H     0.533115 0.153793 0.939554     H
H     0.533139 0.846224 0.0601469     H
O      0.54292 -0.06284      0.0     O
O      0.54292      0.0 -0.06284     O
O      0.54292      0.0  0.06284     O
O      0.54292  0.06284      0.0     O
O     0.5477714 0.1268616 0.4522314     O
O     0.5477714 0.1268616 0.5477714     O
O     0.5477714 0.4522314 0.1268616     O
O     0.5477714 0.4522314 0.8731416     O
O     0.5477714 0.5477714 0.1268616     O
O     0.5477714 0.5477714 0.8731416     O
O     0.5477714 0.8731416 0.4522314     O
O     0.5477714 0.8731416 0.5477714     O
O      0.55832      0.0  0.35812     O
O      0.55832      0.0  0.64192     O
O      0.55832  0.35812      0.0     O
O      0.55832  0.64192      0.0     O
O      0.56284 -0.04292      0.5     O
O      0.56284  0.04292      0.5     O
O      0.56284      0.5 -0.04292     O
O      0.56284      0.5  0.04292     O
Zr    0.562852      0.0 0.437152    Zr
Zr    0.562852      0.0 0.562852    Zr
Zr    0.562852 0.437152      0.0    Zr
Zr    0.562852 0.437152      1.0    Zr
Zr    0.562852 0.562852      0.0    Zr
Zr    0.562852 0.562852      1.0    Zr
Zr    0.562852      1.0 0.437152    Zr
Zr    0.562852      1.0 0.562852    Zr
H     0.567572  0.20703 0.432428     H
H     0.567572  0.20703 0.567572     H
H     0.567572 0.432428  0.20703     H
H     0.567572 0.432428  0.79297     H
H     0.567572 0.567572  0.20703     H
H     0.567572 0.567572  0.79297     H
H     0.567572  0.79297 0.432428     H
H     0.567572  0.79297 0.567572     H
H     0.570403 0.0306718 0.345634     H
H     0.570403 0.654366 0.0306718     H
O     0.5707216 0.0881114 0.0881114     O
O     0.5707216 0.0881114 0.9118914     O
O     0.5707216 0.9118914 0.0881114     O
O     0.5707216 0.9118914 0.9118914     O
C      0.57772  0.11362  0.42232     C
C      0.57772  0.11362  0.57772     C
C      0.57772  0.42232  0.11362     C
C      0.57772  0.42232  0.88642     C
C      0.57772  0.57772  0.11362     C
C      0.57772  0.57772  0.88642     C
C      0.57772  0.88642  0.42232     C
C      0.57772  0.88642  0.57772     C
H     0.577755 -0.0264201  0.34521     H
H     0.577755 -0.0264201  0.65479     H
H     0.577755  0.34521 -0.0264201     H
H     0.577755  0.65479 -0.0264201     H
H     0.583013 0.262476 0.287193     H
H     0.583013 0.262476 0.712807     H
H     0.583013 0.737524 0.287193     H
H     0.583013 0.737524 0.712807     H
Zr    0.586954      0.0      0.0    Zr
Zr    0.586954      0.0      1.0    Zr
Zr    0.586954      1.0      0.0    Zr
Zr    0.586954      1.0      1.0    Zr
O     0.5881114 -0.0707216 0.4118914     O
O     0.5881114 -0.0707216 0.5881114     O
O     0.5881114 0.0707216 0.4118914     O
O     0.5881114 0.0707216 0.5881114     O
O     0.5881114 0.4118914 -0.0707216     O
O     0.5881114 0.4118914 0.0707216     O
O     0.5881114 0.5881114 -0.0707216     O
O     0.5881114 0.5881114 0.0707216     O
C      0.59412  0.19774  0.40592     C
C      0.59412  0.19774  0.59412     C
C      0.59412  0.40592  0.19774     C
C      0.59412  0.40592  0.80234     C
C      0.59412  0.59412  0.19774     C
C      0.59412  0.59412  0.80234     C
C      0.59412  0.80234  0.40592     C
C      0.59412  0.80234  0.59412     C
H     0.601403 0.281362  0.22983     H
H     0.601403 0.281362  0.77017     H
H     0.601403 0.718638  0.22983     H
H     0.601403 0.718638  0.77017     H
H     0.603255 0.145517 0.145517     H
H     0.603255 0.145517 0.854483     H
H     0.603255 0.854483 0.145517     H
H     0.603255 0.854483 0.854483     H
C      0.60412  0.15102  0.39592     C
C      0.60412  0.15102  0.60412     C
C      0.60412  0.39592  0.15102     C
C      0.60412  0.39592  0.84902     C
C      0.60412  0.60412  0.15102     C
C      0.60412  0.60412  0.84902     C
C      0.60412  0.84902  0.39592     C
C      0.60412  0.84902  0.60412     C
H     0.611111 0.269998 0.388889     H
H     0.611111 0.269998 0.611111     H
H     0.611111 0.388889 0.269998     H
H     0.611111 0.388889 0.730002     H
H     0.611111 0.611111 0.269998     H
H     0.611111 0.611111 0.730002     H
H     0.611111 0.730002 0.388889     H
H     0.611111 0.730002 0.611111     H
C      0.61164  0.26122  0.26122     C
C      0.61164  0.26122  0.73882     C
C      0.61164  0.73882  0.26122     C
C      0.61164  0.73882  0.73882     C
C      0.61362  0.07772  0.07772     C
C      0.61362  0.07772  0.92232     C
C      0.61362  0.92232  0.07772     C
C      0.61362  0.92232  0.92232     C
H     0.618356 0.224454 0.251268     H
H     0.618356 0.224454 0.748732     H
H     0.618356 0.775546 0.251268     H
H     0.618356 0.775546 0.748732     H
C      0.61882  0.23292  0.38122     C
C      0.61882  0.23292  0.61882     C
C      0.61882  0.38122  0.23292     C
C      0.61882  0.38122  0.76712     C
C      0.61882  0.61882  0.23292     C
C      0.61882  0.61882  0.76712     C
C      0.61882  0.76712  0.38122     C
C      0.61882  0.76712  0.61882     C
O     0.6268616 -0.0477714 -0.0477714     O
O     0.6268616 -0.0477714 0.0477714     O
O     0.6268616 0.0477714 -0.0477714     O
O     0.6268616 0.0477714 0.0477714     O
C      0.63772  0.14034  0.36232     C
C      0.63772  0.14034  0.63772     C
C      0.63772  0.36232  0.14034     C
C      0.63772  0.36232  0.85974     C
C      0.63772  0.63772  0.14034     C
C      0.63772  0.63772  0.85974     C
C      0.63772  0.85974  0.36232     C
C      0.63772  0.85974  0.63772     C
C      0.64034  0.13772  0.13772     C
C      0.64034  0.13772  0.86232     C
C      0.64034  0.86232  0.13772     C
C      0.64034  0.86232  0.86232     C
O      0.64192      0.0  0.44172     O
O      0.64192      0.0  0.55832     O
O      0.64192  0.44172      0.0     O
O      0.64192  0.55832      0.0     O
H     0.645517 0.103255 0.354483     H
H     0.645517 0.103255 0.645517     H
H     0.645517 0.354483 0.103255     H
H     0.645517 0.354483 0.896745     H
H     0.645517 0.645517 0.103255     H
H     0.645517 0.645517 0.896745     H
H     0.645517 0.896745 0.354483     H
H     0.645517 0.896745 0.645517     H
C      0.65102  0.10412  0.10412     C
C      0.65102  0.10412  0.89592     C
C      0.65102  0.89592  0.10412     C
C      0.65102  0.89592  0.89592     C
H     0.651737 -0.00425167 0.475283     H
H     0.651737 0.524717 -0.00425167     H
C     0.6521618  0.22242 0.3478418     C
C     0.6521618  0.22242 0.6521618     C
C     0.6521618 0.3478418  0.22242     C
C     0.6521618 0.3478418  0.77762     C
C     0.6521618 0.6521618  0.22242     C
C     0.6521618 0.6521618  0.77762     C
C     0.6521618  0.77762 0.3478418     C
C     0.6521618  0.77762 0.6521618     C
H     0.654366 0.0306718 0.570403     H
H     0.654366 0.429597 0.0306718     H
H      0.65479 -0.0264201 0.422245     H
H      0.65479 -0.0264201 0.577755     H
H      0.65479 0.422245 -0.0264201     H
H      0.65479 0.577755 -0.0264201     H
C      0.65652 0.2826617 0.2826617     C
C      0.65652 0.2826617 0.7173417     C
C      0.65652 0.7173417 0.2826617     C
C      0.65652 0.7173417 0.7173417     C
C      0.66182  0.17552  0.33822     C
C      0.66182  0.17552  0.66182     C
C      0.66182  0.33822  0.17552     C
C      0.66182  0.33822  0.82452     C
C      0.66182  0.66182  0.17552     C
C      0.66182  0.66182  0.82452     C
C      0.66182  0.82452  0.33822     C
C      0.66182  0.82452  0.66182     C
H     0.666191 0.188332 0.188332     H
H     0.666191 0.188332 0.811668     H
H     0.666191 0.811668 0.188332     H
H     0.666191 0.811668 0.811668     H
C      0.67552  0.16182  0.16182     C
C      0.67552  0.16182  0.83822     C
C      0.67552  0.83822  0.16182     C
C      0.67552  0.83822  0.83822     C
C     0.6765217  0.26272 0.3234817     C
C     0.6765217  0.26272 0.6765217     C
C     0.6765217 0.3234817  0.26272     C
C     0.6765217 0.3234817  0.73732     C
C     0.6765217 0.6765217  0.26272     C
C     0.6765217 0.6765217  0.73732     C
C     0.6765217  0.73732 0.3234817     C
C     0.6765217  0.73732 0.6765217     C
H     0.688332 0.166191 0.311668     H
H     0.688332 0.166191 0.688332     H
H     0.688332 0.311668 0.166191     H
H     0.688332 0.311668 0.833809     H
H     0.688332 0.688332 0.166191     H
H     0.688332 0.688332 0.833809     H
H     0.688332 0.833809 0.311668     H
H     0.688332 0.833809 0.688332     H
C      0.69774  0.09412  0.09412     C
C      0.69774  0.09412  0.90592     C
C      0.69774  0.90592  0.09412     C
C      0.69774  0.90592  0.90592     C
H      0.70703 0.067572 0.067572     H
H      0.70703 0.067572 0.932428     H
H      0.70703 0.932428 0.067572     H
H      0.70703 0.932428 0.932428     H
H     0.712807 0.262476 0.416987     H
H     0.712807 0.262476 0.583013     H
H     0.712807 0.416987 0.262476     H
H     0.712807 0.416987 0.737524     H
H     0.712807 0.583013 0.262476     H
H     0.712807 0.583013 0.737524     H
H     0.712807 0.737524 0.416987     H
H     0.712807 0.737524 0.583013     H
C     0.7173417 0.2826617  0.34352     C
C     0.7173417 0.2826617  0.65652     C
C     0.7173417  0.34352 0.2826617     C
C     0.7173417  0.34352 0.7173417     C
C     0.7173417  0.65652 0.2826617     C
C     0.7173417  0.65652 0.7173417     C
C     0.7173417 0.7173417  0.34352     C
C     0.7173417 0.7173417  0.65652     C
C      0.72242 0.1521618 0.1521618     C
C      0.72242 0.1521618 0.8478418     C
C      0.72242 0.8478418 0.1521618     C
C      0.72242 0.8478418 0.8478418     C
H      0.72983 0.101403 0.218638     H
H      0.72983 0.101403 0.781362     H
H      0.72983 0.218638 0.101403     H
H      0.72983 0.218638 0.898597     H
H      0.72983 0.781362 0.101403     H
H      0.72983 0.781362 0.898597     H
H      0.72983 0.898597 0.218638     H
H      0.72983 0.898597 0.781362     H
H     0.730002 0.388889 0.388889     H
H     0.730002 0.388889 0.611111     H
H     0.730002 0.611111 0.388889     H
H     0.730002 0.611111 0.611111     H
C      0.73292  0.11882  0.11882     C
C      0.73292  0.11882  0.88122     C
C      0.73292  0.88122  0.11882     C
C      0.73292  0.88122  0.88122     C
C      0.73732 0.3234817 0.3234817     C
C      0.73732 0.3234817 0.6765217     C
C      0.73732 0.6765217 0.3234817     C
C      0.73732 0.6765217 0.6765217     C
C      0.73882  0.26122  0.38844     C
C      0.73882  0.26122  0.61164     C
C      0.73882  0.38844  0.26122     C
C      0.73882  0.38844  0.73882     C
C      0.73882  0.61164  0.26122     C
C      0.73882  0.61164  0.73882     C
C      0.73882  0.73882  0.38844     C
C      0.73882  0.73882  0.61164     C
H     0.748732 0.224454 0.381644     H
H     0.748732 0.224454 0.618356     H
H     0.748732 0.381644 0.224454     H
H     0.748732 0.381644 0.775546     H
H     0.748732 0.618356 0.224454     H
H     0.748732 0.618356 0.775546     H
H     0.748732 0.775546 0.381644     H
H     0.748732 0.775546 0.618356     H
H     0.751268 0.118356 0.275546     H
H     0.751268 0.118356 0.724454     H
H     0.751268 0.275546 0.118356     H
H     0.751268 0.275546 0.881644     H
H     0.751268 0.724454 0.118356     H
H     0.751268 0.724454 0.881644     H
H     0.751268 0.881644 0.275546     H
H     0.751268 0.881644 0.724454     H
C      0.76122  0.11164  0.23882     C
C      0.76122  0.11164  0.76122     C
C      0.76122  0.23882  0.11164     C
C      0.76122  0.23882  0.88844     C
C      0.76122  0.76122  0.11164     C
C      0.76122  0.76122  0.88844     C
C      0.76122  0.88844  0.23882     C
C      0.76122  0.88844  0.76122     C
C      0.76272 0.1765217 0.1765217     C
C      0.76272 0.1765217 0.8234817     C
C      0.76272 0.8234817 0.1765217     C
C      0.76272 0.8234817 0.8234817     C
C      0.76712  0.38122  0.38122     C
C      0.76712  0.38122  0.61882     C
C      0.76712  0.61882  0.38122     C
C      0.76712  0.61882  0.61882     C
H     0.769998 0.111111 0.111111     H
H     0.769998 0.111111 0.888889     H
H     0.769998 0.888889 0.111111     H
H     0.769998 0.888889 0.888889     H
H      0.77017 0.281362 0.398597     H
H      0.77017 0.281362 0.601403     H
H      0.77017 0.398597 0.281362     H
H      0.77017 0.398597 0.718638     H
H      0.77017 0.601403 0.281362     H
H      0.77017 0.601403 0.718638     H
H      0.77017 0.718638 0.398597     H
H      0.77017 0.718638 0.601403     H
C      0.77762 0.3478418 0.3478418     C
C      0.77762 0.3478418 0.6521618     C
C      0.77762 0.6521618 0.3478418     C
C      0.77762 0.6521618 0.6521618     C
C     0.7826617  0.15652 0.2173417     C
C     0.7826617  0.15652 0.7826617     C
C     0.7826617 0.2173417  0.15652     C
C     0.7826617 0.2173417  0.84352     C
C     0.7826617 0.7826617  0.15652     C
C     0.7826617 0.7826617  0.84352     C
C     0.7826617  0.84352 0.2173417     C
C     0.7826617  0.84352 0.7826617     C
H     0.787193 0.0830126 0.237524     H
H     0.787193 0.0830126 0.762476     H
H     0.787193 0.237524 0.0830126     H
H     0.787193 0.237524 0.916987     H
H     0.787193 0.762476 0.0830126     H
H     0.787193 0.762476 0.916987     H
H     0.787193 0.916987 0.237524     H
H     0.787193 0.916987 0.762476     H
H      0.79297 0.432428 0.432428     H
H      0.79297 0.432428 0.567572     H
H      0.79297 0.567572 0.432428     H
H      0.79297 0.567572 0.567572     H
C      0.80234  0.40592  0.40592     C
C      0.80234  0.40592  0.59412     C
C      0.80234  0.59412  0.40592     C
C      0.80234  0.59412  0.59412     C
H     0.811668 0.188332 0.333809     H
H     0.811668 0.188332 0.666191     H
H     0.811668 0.333809 0.188332     H
H     0.811668 0.333809 0.811668     H
H     0.811668 0.666191 0.188332     H
H     0.811668 0.666191 0.811668     H
H     0.811668 0.811668 0.333809     H
H     0.811668 0.811668 0.666191     H
C     0.8234817 0.1765217  0.23732     C
C     0.8234817 0.1765217  0.76272     C
C     0.8234817  0.23732 0.1765217     C
C     0.8234817  0.23732 0.8234817     C
C     0.8234817  0.76272 0.1765217     C
C     0.8234817  0.76272 0.8234817     C
C     0.8234817 0.8234817  0.23732     C
C     0.8234817 0.8234817  0.76272     C
C      0.82452  0.33822  0.33822     C
C      0.82452  0.33822  0.66182     C
C      0.82452  0.66182  0.33822     C
C      0.82452  0.66182  0.66182     C
H     0.833809 0.311668 0.311668     H
H     0.833809 0.311668 0.688332     H
H     0.833809 0.688332 0.311668     H
H     0.833809 0.688332 0.688332     H
C      0.83822  0.16182  0.32452     C
C      0.83822  0.16182  0.67552     C
C      0.83822  0.32452  0.16182     C
C      0.83822  0.32452  0.83822     C
C      0.83822  0.67552  0.16182     C
C      0.83822  0.67552  0.83822     C
C      0.83822  0.83822  0.32452     C
C      0.83822  0.83822  0.67552     C
C      0.84352 0.2173417 0.2173417     C
C      0.84352 0.2173417 0.7826617     C
C      0.84352 0.7826617 0.2173417     C
C      0.84352 0.7826617 0.7826617     C
H     0.844792 0.0850154 0.481243     H
H     0.844792 0.481243 0.0850154     H
H     0.845414 0.471218 0.925785     H
H     0.845414 0.925785 0.528782     H
H     0.846224 0.0601469 0.533139     H
C     0.8478418 0.1521618  0.27762     C
C     0.8478418 0.1521618  0.72242     C
C     0.8478418  0.27762 0.1521618     C
C     0.8478418  0.27762 0.8478418     C
C     0.8478418  0.72242 0.1521618     C
C     0.8478418  0.72242 0.8478418     C
C     0.8478418 0.8478418  0.27762     C
C     0.8478418 0.8478418  0.72242     C
H     0.848091 0.485618 0.027712     H
H     0.848279      0.5 0.975555     H
H     0.848279 0.975555      0.5     H
C      0.84902  0.39592  0.39592     C
C      0.84902  0.39592  0.60412     C
C      0.84902  0.60412  0.39592     C
C      0.84902  0.60412  0.60412     C
H     0.854483 0.145517 0.396745     H
H     0.854483 0.145517 0.603255     H
H     0.854483 0.396745 0.145517     H
H     0.854483 0.396745 0.854483     H
H     0.854483 0.603255 0.145517     H
H     0.854483 0.603255 0.854483     H
H     0.854483 0.854483 0.396745     H
H     0.854483 0.854483 0.603255     H
O      0.85812  0.05832      0.5     O
O      0.85812      0.5  0.05832     O
O      0.85812      0.5  0.94172     O
O      0.85812  0.94172      0.5     O
C      0.85974  0.36232  0.36232     C
C      0.85974  0.36232  0.63772     C
C      0.85974  0.63772  0.36232     C
C      0.85974  0.63772  0.63772     C
C      0.86232  0.13772  0.35974     C
C      0.86232  0.13772  0.64034     C
C      0.86232  0.35974  0.13772     C
C      0.86232  0.35974  0.86232     C
C      0.86232  0.64034  0.13772     C
C      0.86232  0.64034  0.86232     C
C      0.86232  0.86232  0.35974     C
C      0.86232  0.86232  0.64034     C
O     0.8731416 0.4522314 0.4522314     O
O     0.8731416 0.4522314 0.5477714     O
O     0.8731416 0.5477714 0.4522314     O
O     0.8731416 0.5477714 0.5477714     O
C      0.88122  0.11882  0.26712     C
C      0.88122  0.11882  0.73292     C
C      0.88122  0.26712  0.11882     C
C      0.88122  0.26712  0.88122     C
C      0.88122  0.73292  0.11882     C
C      0.88122  0.73292  0.88122     C
C      0.88122  0.88122  0.26712     C
C      0.88122  0.88122  0.73292     C
H     0.881644 0.275546 0.248732     H
H     0.881644 0.275546 0.751268     H
H     0.881644 0.724454 0.248732     H
H     0.881644 0.724454 0.751268     H
C      0.88642  0.42232  0.42232     C
C      0.88642  0.42232  0.57772     C
C      0.88642  0.57772  0.42232     C
C      0.88642  0.57772  0.57772     C
C      0.88844  0.23882  0.23882     C
C      0.88844  0.23882  0.76122     C
C      0.88844  0.76122  0.23882     C
C      0.88844  0.76122  0.76122     C
H     0.888889 0.111111 0.230002     H
H     0.888889 0.111111 0.769998     H
H     0.888889 0.230002 0.111111     H
H     0.888889 0.230002 0.888889     H
H     0.888889 0.769998 0.111111     H
H     0.888889 0.769998 0.888889     H
H     0.888889 0.888889 0.230002     H
H     0.888889 0.888889 0.769998     H
C      0.89592  0.10412  0.34902     C
C      0.89592  0.10412  0.65102     C
C      0.89592  0.34902  0.10412     C
C      0.89592  0.34902  0.89592     C
C      0.89592  0.65102  0.10412     C
C      0.89592  0.65102  0.89592     C
C      0.89592  0.89592  0.34902     C
C      0.89592  0.89592  0.65102     C
H     0.896745 0.354483 0.354483     H
H     0.896745 0.354483 0.645517     H
H     0.896745 0.645517 0.354483     H
H     0.896745 0.645517 0.645517     H
H     0.898597 0.218638  0.27017     H
H     0.898597 0.218638  0.72983     H
H     0.898597 0.781362  0.27017     H
H     0.898597 0.781362  0.72983     H
C      0.90592  0.09412  0.30234     C
C      0.90592  0.09412  0.69774     C
C      0.90592  0.30234  0.09412     C
C      0.90592  0.30234  0.90592     C
C      0.90592  0.69774  0.09412     C
C      0.90592  0.69774  0.90592     C
C      0.90592  0.90592  0.30234     C
C      0.90592  0.90592  0.69774     C
O     0.9118914 0.0881114 0.4292816     O
O     0.9118914 0.0881114 0.5707216     O
O     0.9118914 0.4292816 0.0881114     O
O     0.9118914 0.4292816 0.9118914     O
O     0.9118914 0.5707216 0.0881114     O
O     0.9118914 0.5707216 0.9118914     O
O     0.9118914 0.9118914 0.4292816     O
O     0.9118914 0.9118914 0.5707216     O
Zr    0.913054      0.5      0.5    Zr
H     0.915155 0.519005 0.155198     H
H     0.916987 0.237524 0.212807     H
H     0.916987 0.237524 0.787193     H
H     0.916987 0.762476 0.212807     H
H     0.916987 0.762476 0.787193     H
C      0.92232  0.07772  0.38642     C
C      0.92232  0.07772  0.61362     C
C      0.92232  0.38642  0.07772     C
C      0.92232  0.38642  0.92232     C
C      0.92232  0.61362  0.07772     C
C      0.92232  0.61362  0.92232     C
C      0.92232  0.92232  0.38642     C
C      0.92232  0.92232  0.61362     C
H     0.925785 0.528782 0.845414     H
H     0.925785 0.845414 0.471218     H
H     0.932428 0.067572  0.29297     H
H     0.932428 0.067572  0.70703     H
H     0.932428  0.29297 0.067572     H
H     0.932428  0.29297 0.932428     H
H     0.932428  0.70703 0.067572     H
H     0.932428  0.70703 0.932428     H
H     0.932428 0.932428  0.29297     H
H     0.932428 0.932428  0.70703     H
Zr    0.937152 -0.062852      0.5    Zr
Zr    0.937152 0.062852      0.5    Zr
Zr    0.937152      0.5 -0.062852    Zr
Zr    0.937152      0.5 0.062852    Zr
Zr    0.937152      0.5 0.937152    Zr
Zr    0.937152      0.5 1.062852    Zr
Zr    0.937152 0.937152      0.5    Zr
Zr    0.937152 1.062852      0.5    Zr
H     0.939554 0.153793 0.466885     H
H     0.939554 0.466885 0.153793     H
O      0.94172  0.14192      0.5     O
O      0.94172      0.5  0.14192     O
O      0.94172      0.5  0.85812     O
O      0.94172  0.85812      0.5     O
H     0.972417 0.151902  0.51411     H
H     0.975555      0.5 0.848279     H
H     0.975555 0.848279      0.5     H
Zr         1.0      0.0 0.413054    Zr
Zr         1.0      0.0 0.586954    Zr
Zr         1.0 0.413054      0.0    Zr
Zr         1.0 0.413054      1.0    Zr
Zr         1.0 0.437152 0.437152    Zr
Zr         1.0 0.437152 0.562852    Zr
Zr         1.0 0.562852 0.437152    Zr
Zr         1.0 0.562852 0.562852    Zr
Zr         1.0 0.586954      0.0    Zr
Zr         1.0 0.586954      1.0    Zr
Zr         1.0      1.0 0.413054    Zr
Zr         1.0      1.0 0.586954    Zr
Zr    1.062852 0.062852      0.5    Zr
Zr    1.062852      0.5 0.062852    Zr
Zr    1.062852      0.5 0.937152    Zr
Zr    1.062852 0.937152      0.5    Zr
