data_I
_chemical_name_common  'val_1'
_cell_length_a 46.51260
_cell_length_b 15.27720
_cell_length_c 27.29730
_cell_angle_alpha 90.00000
_cell_angle_beta  107.62750
_cell_angle_gamma 90.00000
_space_group_name_H-M_alt      'P 1'


loop_
_space_group_symop_operation_xyz
  'x, y, z' 

loop_
_atom_site_label
_atom_site_fract_x
_atom_site_fract_y
_atom_site_fract_z
_atom_site_type_symbol
Ni         0.0      0.5      0.0    Ni
Ni         0.0      0.5      0.5    Ni
N     0.0008611  0.43514  0.56762     N
N     0.0008611  0.56494  0.06762     N
O     0.0059811  0.38154 0.4663217     O
O     0.0059811  0.61854 0.9663217     O
H     0.006251 0.341304 0.486343     H
H     0.006251 0.658696 0.986343     H
C     0.0069513  0.33914  0.63142     C
C     0.0069513  0.66094  0.13142     C
H     0.013754 0.291784 0.653207     H
H     0.013754 0.708216 0.153207     H
N     0.013821  0.40144 0.8654018     N
N     0.013821  0.59864 0.3654018     N
C     0.0154714  0.36164  0.58932     C
C     0.0154714  0.63844  0.08932     C
C     0.0164813  0.45724  0.90492     C
C     0.0164813  0.54284  0.40492     C
H     0.022087 0.281974 0.803618     H
H     0.022087 0.718026 0.303618     H
H     0.029201 0.494427 0.411639     H
H     0.029201 0.505573 0.911639     H
H     0.029266 0.330804 0.577433     H
H     0.029266 0.669196 0.077433     H
C     0.0299713  0.40684  0.82852     C
C     0.0299713  0.59324  0.32852     C
C     0.0318113  0.33354  0.79972     C
C     0.0318113  0.66654  0.29972     C
H     0.037663 0.483241 0.172135     H
H     0.037663 0.516759 0.672135     H
H     0.040011 0.348743 0.134889     H
H     0.040011 0.651257 0.634889     H
H     0.042062 0.467229 0.340367     H
H     0.042062 0.532771 0.840367     H
C     0.0440716  0.48304  0.82214     C
C     0.0440716  0.51704  0.32214     C
N     0.0467111  0.48284 0.0218217     N
N     0.0467111  0.51724 0.5218217     N
C     0.0482113  0.33744  0.76512     C
C     0.0482113  0.66264  0.26512     C
H     0.048846 0.288656 0.745119     H
H     0.048846 0.711344 0.245119     H
H     0.051972  0.34988 0.016345     H
H     0.051972  0.65012 0.516345     H
H     0.052785 0.184479 0.151051     H
H     0.052785 0.815521 0.651051     H
C     0.0562814  0.45804  0.17482     C
C     0.0562814  0.54204  0.67482     C
C     0.0577113  0.37764  0.15262     C
C     0.0577113  0.62244  0.65262     C
C     0.0610716  0.48634  0.78902     C
C     0.0610716  0.51374  0.28902     C
C     0.0614116  0.40424  0.02284     C
C     0.0614116  0.59584  0.52284     C
C     0.0636713  0.41234  0.75972     C
C     0.0636713  0.58774  0.25972     C
H     0.064306 0.397931 0.534327     H
H     0.064306 0.602069 0.034327     H
C     0.0678213  0.45764  0.53242     C
C     0.0678213  0.54244  0.03242     C
H     0.067875 0.156252 0.948996     H
H     0.067875 0.843748 0.448996     H
C     0.0682316  0.18644  0.13604     C
C     0.0682316  0.81364  0.63604     C
H     0.069293 0.064459 0.107588     H
H     0.069293 0.935541 0.607588     H
H     0.069618 0.029346 0.022966     H
H     0.069618 0.970654 0.522966     H
H        0.071 0.462174 0.285836     H
H        0.071 0.537826 0.785836     H
H     0.072251  0.28465 0.897622     H
H     0.072251  0.71535 0.397622     H
C     0.0773816  0.12065  0.11184     C
C     0.0773816  0.87945  0.61184     C
N     0.0811312  0.41764  0.72582     N
N     0.0811312  0.58244  0.22582     N
C     0.0828813  0.49854  0.70142     C
C     0.0828813  0.50154  0.20142     C
O     0.083659  0.01114 0.0134916     O
O     0.083659  0.98894 0.5134916     O
C     0.0848217  0.19185  0.95514     C
C     0.0848217  0.80825  0.45514     C
C     0.0849514  0.34054  0.15642     C
C     0.0849514  0.65954  0.65642     C
N     0.0860011  0.25684  0.13432     N
N     0.0860011  0.74324  0.63432     N
H      0.08641 0.383214 0.636195     H
H      0.08641 0.616786 0.136195     H
C     0.0870117  0.26255  0.92604     C
C     0.0870117  0.73755  0.42604     C
C     0.0913916  0.41714  0.03444     C
C     0.0913916  0.58294  0.53444     C
C     0.0925213  0.34084  0.70912     C
C     0.0925213  0.65924  0.20912     C
C     0.0933913  0.33654  0.65852     C
C     0.0933913  0.66354  0.15852     C
N     0.0959711  0.49404 0.5402218     N
N     0.0959711  0.50604 0.0402218     N
N     0.1005111  0.14874  0.09402     N
N     0.1005111  0.85134  0.59402     N
H     0.101603 0.101022 0.582905     H
H     0.101603 0.898978 0.082905     H
H     0.102065  0.27224 0.775349     H
H     0.102065  0.72776 0.275349     H
C     0.1027112  0.27004  0.74162     C
C     0.1027112  0.73004  0.24162     C
C     0.1047413  0.26224  0.64162     C
C     0.1047413  0.73784  0.14162     C
C     0.1052213  0.23004  0.10962     C
C     0.1052213  0.77004  0.60962     C
H     0.105441 0.259016 0.607944     H
H     0.105441 0.740984 0.107944     H
H     0.106095 0.374282 0.037824     H
H     0.106095 0.625718 0.537824     H
C     0.1101413  0.46394  0.20392     C
C     0.1101413  0.53614  0.70392     C
N     0.1108211  0.18044  0.99442     N
N     0.1108211  0.81964  0.49442     N
C     0.1115814  0.38314  0.18202     C
C     0.1115814  0.61694  0.68202     C
H     0.111926 0.337838 0.854101     H
H     0.111926 0.662162 0.354101     H
H     0.112208 0.345352 0.510076     H
H     0.112208 0.654648 0.010076     H
C     0.1136713  0.19714  0.72442     C
C     0.1136713  0.80294  0.22442     C
C     0.1150612  0.19264  0.67512     C
C     0.1150612  0.80744  0.17512     C
N     0.1153412  0.29374  0.94742     N
N     0.1153412  0.70634  0.44742     N
C     0.1176913  0.08064  0.60992     C
C     0.1176913  0.91944  0.10992     C
H     0.119614 0.221331 0.440257     H
H     0.119614 0.778669 0.940257     H
H     0.120274 0.149968 0.746506     H
H     0.120274 0.850032 0.246506     H
H     0.120283 0.265197 0.104173     H
H     0.120283 0.734803 0.604173     H
Ni    0.122672 0.082124 0.049923    Ni
Ni    0.122672 0.917884 0.549923    Ni
C     0.1237513  0.44944  0.55692     C
C     0.1237513  0.55064  0.05692     C
C     0.1240116  0.37714  0.87742     C
C     0.1240116  0.62294  0.37742     C
H     0.124627 0.356568 0.407905     H
H     0.124627 0.643432 0.907905     H
C     0.1273913  0.36804  0.53772     C
C     0.1273913  0.63204  0.03772     C
N     0.127451  0.11814 0.6578417     N
N     0.127451  0.88194 0.1578417     N
H       0.1279 0.493427 0.220586     H
H       0.1279 0.506573 0.720586     H
C     0.1284514  0.24434  0.98922     C
C     0.1284514  0.75574  0.48922     C
C     0.1292014  0.36564  0.92962     C
C     0.1292014  0.63444  0.42962     C
H     0.129485 0.108243 0.502515     H
H     0.129485 0.891757 0.002515     H
H     0.130133 0.357651 0.184444     H
H     0.130133 0.642349 0.684444     H
H     0.133236   0.4555 0.825245     H
H     0.133236   0.5445 0.325245     H
N     0.1342111  0.01204 0.6073518     N
N     0.1342111  0.98804 0.1073518     N
C     0.1366414  0.23434  0.43052     C
C     0.1366414  0.76574  0.93052     C
C     0.1369118  0.44735  0.86044     C
C     0.1369118  0.55275  0.36044     C
C     0.1397314  0.31514  0.41122     C
C     0.1397314  0.68494  0.91122     C
C     0.1408114  0.06804  0.49062     C
C     0.1408114  0.93204  0.99062     C
N     0.1438611  0.01444 0.0040218     N
N     0.1438611  0.98564 0.5040218     N
H     0.145185 0.459611 0.108117     H
H     0.145185 0.540389 0.608117     H
C     0.1471716  0.48474  0.59572     C
C     0.1471716  0.51534  0.09572     C
C     0.1475216  0.42294  0.96392     C
C     0.1475216  0.57714  0.46392     C
H     0.147652 0.254423 0.011656     H
H     0.147652 0.745577 0.511656     H
H     0.151227 0.414591 0.999033     H
H     0.151227 0.585409 0.499033     H
C     0.1518313  0.06794  0.68642     C
C     0.1518313  0.93214  0.18642     C
C     0.1533413  0.31974  0.55902     C
C     0.1533413  0.68034  0.05902     C
C     0.1549716  0.49504  0.39402     C
C     0.1549716  0.50504  0.89402     C
C     0.1552714  0.00274  0.65512     C
C     0.1552714  0.99734  0.15512     C
H     0.155684 0.265094 0.545709     H
H     0.155684 0.734906 0.045709     H
N     0.156251  0.08754 0.4569818     N
N     0.156251  0.91254 0.9569818     N
C     0.1586613  0.17264  0.43552     C
C     0.1586613  0.82744  0.93552     C
C     0.1603816  0.49264  0.94634     C
C     0.1603816  0.50744  0.44634     C
O     0.161139  0.15544 0.0813616     O
O     0.161139  0.84464 0.5813616     O
H     0.161458 0.322768 0.679265     H
H     0.161458 0.677232 0.179265     H
C     0.1617413  0.05034  0.97752     C
C     0.1617413  0.94974  0.47752     C
H      0.16341  0.07729 0.720313     H
H      0.16341  0.92271 0.220313     H
C     0.1646814  0.33664  0.39632     C
C     0.1646814  0.66344  0.89632     C
H     0.165875 0.301162 0.764674     H
H     0.165875 0.698838 0.264674     H
H     0.166305 0.328814 0.294121     H
H     0.166305 0.671186 0.794121     H
N     0.1674712  0.41994  0.37572     N
N     0.1674712  0.58014  0.87572     N
H     0.167791 0.108532 0.979433     H
H     0.167791 0.891468 0.479433     H
C     0.1692216  0.01114  0.44814     C
C     0.1692216  0.98894  0.94814     C
H     0.169642 0.041499 0.164289     H
H     0.169642 0.958501 0.664289     H
H     0.170233 0.184392 0.831725     H
H     0.170233 0.815608 0.331725     H
H     0.172728 0.468565 0.469572     H
H     0.172728 0.531435 0.969572     H
C     0.1732816  0.43884  0.61624     C
C     0.1732816  0.56124  0.11624     C
C     0.1759113  0.35374  0.60062     C
C     0.1759113  0.64634  0.10062     C
O     0.1765612  0.22574 0.1649718     O
O     0.1765612  0.77434 0.6649718     O
C     0.1799614  0.30584  0.70182     C
C     0.1799614  0.69424  0.20182     C
C     0.1803316  0.37394  0.29922     C
C     0.1803316  0.62614  0.79922     C
H     0.180901 0.003127  0.42622     H
H     0.180901 0.996873  0.92622     H
C     0.1823916  0.29265  0.75274     C
C     0.1823916  0.70745  0.25274     C
C     0.1834514  0.43184  0.33982     C
C     0.1834514  0.56824  0.83982     C
C     0.1834716  0.19054  0.42024     C
C     0.1834716  0.80954  0.92024     C
S     0.186143 0.198751 0.120806     S
S     0.186143 0.801251 0.620806     S
C     0.1867316  0.27404  0.40064     C
C     0.1867316  0.72604  0.90064     C
H     0.188414 0.173862 0.923847     H
H     0.188414 0.826138 0.423847     H
C     0.1886918  0.20467  0.85294     C
C     0.1886918  0.79547  0.35294     C
H     0.189379  0.46485 0.640782     H
H     0.189379  0.53515 0.140782     H
O     0.1952811  0.27774  0.09732     O
O     0.1952811  0.72234  0.59732     O
H     0.195604 0.341719 0.240391     H
H     0.195604 0.658281 0.740391     H
H     0.196086 0.132824 0.642488     H
H     0.196086 0.867176 0.142488     H
C     0.1975416  0.38214  0.26674     C
C     0.1975416  0.61794  0.76674     C
H     0.198074 0.147759 0.422606     H
H     0.198074 0.852241 0.922606     H
C     0.1989217  0.19937  0.90344     C
C     0.1989217  0.80077  0.40344     C
N     0.2011611  0.30304 0.6297718     N
N     0.2011611  0.69704 0.1297718     N
H     0.202535 0.316015 0.008956     H
H     0.202535 0.683985 0.508956     H
C     0.2033716  0.49864  0.84534     C
C     0.2033716  0.50144  0.34534     C
H     0.203689 0.287003 0.390668     H
H     0.203689 0.712997 0.890668     H
C     0.2042413  0.29474  0.68302     C
C     0.2042413  0.70534  0.18302     C
H     0.205694 0.458917 0.872023     H
H     0.205694 0.541083 0.372023     H
C     0.2057518  0.14375  0.61794     C
C     0.2057518  0.85635  0.11794     C
O     0.207581  0.26444  0.01222     O
O     0.207581  0.73564  0.51222     O
H     0.208273 0.024177 0.289009     H
H     0.208273 0.975823 0.789009     H
C     0.2099414  0.26634  0.78592     C
C     0.2099414  0.73374  0.28592     C
C     0.2103913  0.22994  0.60522     C
C     0.2103913  0.77014  0.10522     C
N     0.2112012  0.24664  0.83762     N
N     0.2112012  0.75344  0.33762     N
O     0.211561  0.13794 0.1370418     O
O     0.211561  0.86214 0.6370418     O
H     0.212419  0.01805 0.604153     H
H     0.212419  0.98195 0.104153     H
H     0.213575  0.39064 0.172753     H
H     0.213575  0.60936 0.672753     H
C     0.2151918  0.07515  0.59464     C
C     0.2151918  0.92495  0.09464     C
C     0.2177814  0.45054  0.27292     C
C     0.2177814  0.54954  0.77292     C
C     0.2200016  0.48804  0.81064     C
C     0.2200016  0.51204  0.31064     C
C      0.22232  0.24395  0.56634     C
C      0.22232  0.75615  0.06634     C
H     0.223457  0.30071 0.554778     H
H     0.223457  0.69929 0.054778     H
C     0.2261516  0.00155  0.78774     C
C     0.2261516  0.99855  0.28774     C
H     0.226551 0.090495 0.061526     H
H     0.226551 0.909505 0.561526     H
N     0.2271312  0.23634  0.92222     N
N     0.2271312  0.76374  0.42222     N
H     0.228791 0.028815 0.219287     H
H     0.228791 0.971185 0.719287     H
C     0.2289213  0.09024  0.55682     C
C     0.2289213  0.90984  0.05682     C
C     0.2301517  0.42425  0.19054     C
C     0.2301517  0.57585  0.69054     C
H     0.231168 0.432302 0.041564     H
H     0.231168 0.567698 0.541564     H
C     0.2319216  0.27524  0.71794     C
C     0.2319216  0.72484  0.21794     C
H     0.232474  0.43959 0.813059     H
H     0.232474  0.56041 0.313059     H
C      0.23292  0.17355  0.54284     C
C      0.23292  0.82655  0.04284     C
C     0.2333514  0.26314  0.88072     C
C     0.2333514  0.73694  0.38072     C
C     0.2349314  0.25954  0.76912     C
C     0.2349314  0.74054  0.26912     C
C     0.2358114  0.06724  0.03872     C
C     0.2358114  0.93284  0.53872     C
N     0.2360313  0.45974  0.23902     N
N     0.2360313  0.54034  0.73902     N
C      0.23792  0.00095  0.25044     C
C      0.23792  0.99915  0.75044     C
N     0.2393812  0.01914  0.53212     N
N     0.2393812  0.98094  0.03212     N
H     0.240466 0.421642 0.516296     H
H     0.240466 0.578358 0.016296     H
C      0.24112  0.44625  0.01774     C
C      0.24112  0.55385  0.51774     C
H     0.242443 0.184169 0.517983     H
H     0.242443 0.815831 0.017983     H
C      0.24602  0.47355  0.50384     C
C      0.24602  0.52655  0.00384     C
H     0.246417 0.255378 0.208094     H
H     0.246417 0.744622 0.708094     H
N      0.24662  0.05167  0.82574     N
N      0.24662  0.94847  0.32574     N
N     0.2470412  0.11384  0.00872     N
N     0.2470412  0.88624  0.50872     N
H       0.2487 0.209366 0.118637     H
H       0.2487 0.790634 0.618637     H
H     0.248895 0.272506 0.706745     H
H     0.248895 0.727494 0.206745     H
Ni        0.25     0.25      0.0    Ni
Ni        0.25     0.75      0.5    Ni
H     0.251105 0.227494 0.293255     H
H     0.251105 0.772506 0.793255     H
H       0.2513 0.290634 0.881363     H
H       0.2513 0.709366 0.381363     H
N     0.2529612  0.38624  0.99132     N
N     0.2529612  0.61384  0.49132     N
N      0.25342  0.44847  0.17434     N
N      0.25342  0.55167  0.67434     N
H     0.253583 0.244622 0.791906     H
H     0.253583 0.755378 0.291906     H
C      0.25402  0.02655  0.49624     C
C      0.25402  0.97355  0.99624     C
H     0.257557 0.315831 0.482017     H
H     0.257557 0.684169 0.982017     H
C      0.25892  0.05385  0.98234     C
C      0.25892  0.94625  0.48234     C
H     0.259534 0.078358 0.483704     H
H     0.259534 0.921642 0.983704     H
N     0.2606212  0.48094  0.46792     N
N     0.2606212  0.51914  0.96792     N
C      0.26212  0.49915  0.74964     C
C      0.26212  0.50095  0.24964     C
N     0.2639713  0.04034  0.76102     N
N     0.2639713  0.95974  0.26102     N
C     0.2641914  0.43284  0.96132     C
C     0.2641914  0.56724  0.46132     C
C     0.2650714  0.24054  0.23092     C
C     0.2650714  0.75954  0.73092     C
C     0.2666514  0.23694  0.11932     C
C     0.2666514  0.76314  0.61932     C
C      0.26712  0.32655  0.45724     C
C      0.26712  0.67355  0.95724     C
H     0.267526  0.06041 0.186941     H
H     0.267526  0.93959 0.686941     H
C     0.2680816  0.22484  0.28214     C
C     0.2680816  0.77524  0.78214     C
H     0.268832 0.067698 0.958436     H
H     0.268832 0.932302 0.458436     H
C     0.2698517  0.07585  0.80954     C
C     0.2698517  0.92425  0.30954     C
C     0.2710813  0.40984  0.44322     C
C     0.2710813  0.59024  0.94322     C
H     0.271209 0.471185 0.780713     H
H     0.271209 0.528815 0.280713     H
N     0.2728712  0.26374  0.07782     N
N     0.2728712  0.73634  0.57782     N
H     0.273449 0.409505 0.938474     H
H     0.273449 0.590495 0.438474     H
C     0.2738516  0.49855  0.21234     C
C     0.2738516  0.50155  0.71234     C
H     0.276543  0.19929 0.445222     H
H     0.276543  0.80071 0.945222     H
C      0.27772  0.25615  0.43374     C
C      0.27772  0.74395  0.93374     C
C     0.2800016  0.01204  0.18944     C
C     0.2800016  0.98804  0.68944     C
C     0.2822214  0.04954  0.72712     C
C     0.2822214  0.95054  0.22712     C
C     0.2848118  0.42495  0.40544     C
C     0.2848118  0.57515  0.90544     C
H     0.286425  0.10936 0.827247     H
H     0.286425  0.89064 0.327247     H
H     0.287581  0.48195 0.395847     H
H     0.287581  0.51805 0.895847     H
O     0.288441  0.36214 0.8629618     O
O     0.288441  0.63794 0.3629618     O
N     0.2888012  0.25344  0.16242     N
N     0.2888012  0.74664  0.66242     N
C     0.2896113  0.27014  0.39482     C
C     0.2896113  0.72994  0.89482     C
C     0.2900614  0.23374  0.21412     C
C     0.2900614  0.76634  0.71412     C
H     0.291727 0.475823 0.710991     H
H     0.291727 0.524177 0.210991     H
O     0.292421  0.23564  0.98782     O
O     0.292421  0.76444  0.48782     O
C     0.2942518  0.35635  0.38214     C
C     0.2942518  0.64375  0.88214     C
H     0.294306 0.041083 0.127977     H
H     0.294306 0.958917 0.627977     H
C     0.2957613  0.20534  0.31702     C
C     0.2957613  0.79474  0.81702     C
H     0.296311 0.212997 0.609332     H
H     0.296311 0.787003 0.109332     H
C     0.2966316  0.00144  0.15474     C
C     0.2966316  0.99864  0.65474     C
H     0.297465 0.183985 0.991044     H
H     0.297465 0.816015 0.491044     H
N     0.2988411  0.19704 0.3702318     N
N     0.2988411  0.80304 0.8702318     N
C     0.3010817  0.30077  0.09664     C
C     0.3010817  0.69937  0.59664     C
H     0.301926 0.352241 0.577394     H
H     0.301926 0.647759 0.077394     H
C     0.3024616  0.11794  0.73334     C
C     0.3024616  0.88214  0.23334     C
H     0.303914 0.367176 0.357512     H
H     0.303914 0.632824 0.857512     H
H     0.304396 0.158281 0.759609     H
H     0.304396 0.841719 0.259609     H
O     0.3047211  0.22234  0.90272     O
O     0.3047211  0.77774  0.40272     O
H     0.310621  0.03515 0.359218     H
H     0.310621  0.96485 0.859218     H
C     0.3113118  0.29547  0.14714     C
C     0.3113118  0.70467  0.64714     C
H     0.311586 0.326138 0.076153     H
H     0.311586 0.673862 0.576153     H
C     0.3132716  0.22604  0.59944     C
C     0.3132716  0.77404  0.09944     C
S     0.313863 0.301251 0.879206     S
S     0.313863 0.698751 0.379206     S
C     0.3165316  0.30954  0.57984     C
C     0.3165316  0.69054  0.07984     C
C     0.3165514  0.06824  0.66022     C
C     0.3165514  0.93184  0.16022     C
C     0.3176116  0.20745  0.24734     C
C     0.3176116  0.79265  0.74734     C
H     0.319099 0.496873  0.57378     H
H     0.319099 0.503127  0.07378     H
C     0.3196716  0.12614  0.70082     C
C     0.3196716  0.87394  0.20082     C
C     0.3200414  0.19424  0.29822     C
C     0.3200414  0.80584  0.79822     C
O     0.3234412  0.27434 0.8350318     O
O     0.3234412  0.72574 0.3350318     O
C     0.3240913  0.14634  0.39942     C
C     0.3240913  0.85374  0.89942     C
C     0.3267216  0.06124  0.38384     C
C     0.3267216  0.93884  0.88384     C
H     0.327272 0.031435 0.530428     H
H     0.327272 0.968565 0.030428     H
H     0.329767 0.315608 0.168275     H
H     0.329767 0.684392 0.668275     H
H     0.330358 0.458501 0.835711     H
H     0.330358 0.541499 0.335711     H
C     0.3307816  0.48894  0.55194     C
C     0.3307816  0.51114  0.05194     C
H     0.332209 0.391468 0.020567     H
H     0.332209 0.608532 0.520567     H
N     0.3325312  0.08014  0.62432     N
N     0.3325312  0.91994  0.12432     N
H     0.333695 0.171186 0.705879     H
H     0.333695 0.828814 0.205879     H
H     0.334125 0.198838 0.235326     H
H     0.334125 0.801162 0.735326     H
C     0.3353214  0.16344  0.60372     C
C     0.3353214  0.83664  0.10372     C
H      0.33659  0.42271 0.279687     H
H      0.33659  0.57729 0.779687     H
C     0.3382613  0.44974  0.02252     C
C     0.3382613  0.55034  0.52252     C
H     0.338542 0.177232 0.320735     H
H     0.338542 0.822768 0.820735     H
O     0.338879  0.34464 0.9186416     O
O     0.338879  0.65544 0.4186416     O
C     0.3396216  0.00744  0.05374     C
C     0.3396216  0.99264  0.55374     C
C     0.3413413  0.32744  0.56452     C
C     0.3413413  0.67264  0.06452     C
N     0.343751  0.41254 0.5430218     N
N     0.343751  0.58754 0.0430218     N
H     0.344316 0.234906 0.454291     H
H     0.344316 0.765094 0.954291     H
C     0.3447314  0.49734  0.34492     C
C     0.3447314  0.50274  0.84492     C
C     0.3450316  0.00504  0.60602     C
C     0.3450316  0.99504  0.10602     C
C     0.3466613  0.18034  0.44102     C
C     0.3466613  0.81974  0.94102     C
C     0.3481713  0.43214  0.31362     C
C     0.3481713  0.56794  0.81362     C
H     0.348773 0.085409 0.000967     H
H     0.348773 0.914591 0.500967     H
H     0.352348 0.245577 0.988344     H
H     0.352348 0.754423 0.488344     H
C     0.3524816  0.07714  0.03612     C
C     0.3524816  0.92294  0.53612     C
C     0.3528316  0.01534  0.40432     C
C     0.3528316  0.98474  0.90432     C
H     0.354815 0.040389 0.891883     H
H     0.354815 0.959611 0.391883     H
N     0.3561411  0.48564 0.9959818     N
N     0.3561411  0.51444 0.4959818     N
C     0.3591914  0.43204  0.50942     C
C     0.3591914  0.56804  0.00942     C
C     0.3602714  0.18494  0.58882     C
C     0.3602714  0.81514  0.08882     C
C     0.3630918  0.05275  0.13964     C
C     0.3630918  0.94735  0.63964     C
C     0.3633614  0.26574  0.56952     C
C     0.3633614  0.73434  0.06952     C
N     0.3657911  0.48804 0.3926518     N
N     0.3657911  0.51204 0.8926518     N
H     0.366764   0.0445 0.174755     H
H     0.366764   0.9555 0.674755     H
H     0.369867 0.142349 0.815556     H
H     0.369867 0.857651 0.315556     H
H     0.370515 0.391757 0.497485     H
H     0.370515 0.608243 0.997485     H
C     0.3708014  0.13444  0.07042     C
C     0.3708014  0.86564  0.57042     C
C     0.3715514  0.25574  0.01082     C
C     0.3715514  0.74434  0.51082     C
H       0.3721 0.006573 0.779414     H
H       0.3721 0.993427 0.279414     H
N     0.372551  0.38194 0.3421617     N
N     0.372551  0.61814 0.8421617     N
C     0.3726113  0.13204  0.46232     C
C     0.3726113  0.86804  0.96232     C
H     0.375373 0.143432 0.592095     H
H     0.375373 0.856568 0.092095     H
C     0.3759916  0.12294  0.12262     C
C     0.3759916  0.87714  0.62262     C
C     0.3762513  0.05064  0.44312     C
C     0.3762513  0.94944  0.94312     C
Ni    0.377332 0.417884 0.950083    Ni
Ni    0.377332 0.582124 0.450083    Ni
H     0.379717 0.234803 0.895827     H
H     0.379717 0.765197 0.395827     H
H     0.379726 0.350032 0.253494     H
H     0.379726 0.649968 0.753494     H
H     0.380386 0.278669 0.559743     H
H     0.380386 0.721331 0.059743     H
C     0.3823113  0.41944  0.39012     C
C     0.3823113  0.58064  0.89012     C
N     0.3846612  0.20634  0.05262     N
N     0.3846612  0.79374  0.55262     N
C     0.3849412  0.30744  0.32492     C
C     0.3849412  0.69264  0.82492     C
C     0.3863313  0.30294  0.27562     C
C     0.3863313  0.69714  0.77562     C
H     0.387792 0.154648 0.489924     H
H     0.387792 0.845352 0.989924     H
H     0.388074 0.162162 0.145899     H
H     0.388074 0.837838 0.645899     H
C     0.3884214  0.11694  0.81802     C
C     0.3884214  0.88314  0.31802     C
N     0.3891811  0.31964  0.00562     N
N     0.3891811  0.68044  0.50562     N
C     0.3898613  0.03614  0.79612     C
C     0.3898613  0.96394  0.29612     C
H     0.393905 0.125718 0.962176     H
H     0.393905 0.874282 0.462176     H
H     0.394559 0.240984 0.392056     H
H     0.394559 0.759016 0.892056     H
C     0.3947813  0.27004  0.89042     C
C     0.3947813  0.73004  0.39042     C
C     0.3952613  0.23784  0.35842     C
C     0.3952613  0.76224  0.85842     C
C     0.3972912  0.23004  0.25842     C
C     0.3972912  0.77004  0.75842     C
H     0.397935  0.22776 0.224651     H
H     0.397935  0.77224 0.724651     H
H     0.398397 0.398978 0.417095     H
H     0.398397 0.601022 0.917095     H
N     0.3994911  0.35134  0.90602     N
N     0.3994911  0.64874  0.40602     N
N     0.4040311  0.00604 0.4597818     N
N     0.4040311  0.99404 0.9597818     N
C     0.4066113  0.16354  0.34152     C
C     0.4066113  0.83654  0.84152     C
C     0.4074813  0.15924  0.29092     C
C     0.4074813  0.84084  0.79092     C
C     0.4086116  0.08294  0.96564     C
C     0.4086116  0.91714  0.46564     C
C     0.4129917  0.23755  0.07404     C
C     0.4129917  0.76255  0.57404     C
H      0.41359 0.116786 0.363805     H
H      0.41359 0.883214 0.863805     H
N     0.4140011  0.24324  0.86572     N
N     0.4140011  0.75684  0.36572     N
C     0.4150514  0.15954  0.84362     C
C     0.4150514  0.84054  0.34362     C
C     0.4151817  0.30825  0.04494     C
C     0.4151817  0.69185  0.54494     C
O     0.416359  0.48894 0.9865116     O
O     0.416359  0.51114 0.4865116     O
C     0.4171213  0.00154  0.29862     C
C     0.4171213  0.99854  0.79862     C
N     0.4188712  0.08244  0.27422     N
N     0.4188712  0.91764  0.77422     N
C     0.4226216  0.37945  0.88824     C
C     0.4226216  0.62065  0.38824     C
H     0.427749  0.21535 0.102378     H
H     0.427749  0.78465 0.602378     H
H        0.429 0.037826 0.714164     H
H        0.429 0.962174 0.214164     H
H     0.430382 0.470654 0.977034     H
H     0.430382 0.529346 0.477034     H
H     0.430707 0.435541 0.892412     H
H     0.430707 0.564459 0.392412     H
C     0.4317716  0.31364  0.86404     C
C     0.4317716  0.68644  0.36404     C
H     0.432125 0.343748 0.051004     H
H     0.432125 0.656252 0.551004     H
C     0.4321813  0.04244  0.46762     C
C     0.4321813  0.95764  0.96762     C
H     0.435694 0.102069 0.465673     H
H     0.435694 0.897931 0.965673     H
C     0.4363313  0.08774  0.24032     C
C     0.4363313  0.91234  0.74032     C
C     0.4385916  0.09584  0.97724     C
C     0.4385916  0.90424  0.47724     C
C     0.4389316  0.01374  0.21102     C
C     0.4389316  0.98634  0.71102     C
C     0.4422913  0.12244  0.84742     C
C     0.4422913  0.87764  0.34742     C
C     0.4437214  0.04204  0.82522     C
C     0.4437214  0.95804  0.32522     C
H     0.447215 0.315521 0.848949     H
H     0.447215 0.684479 0.348949     H
H     0.448028  0.15012 0.983655     H
H     0.448028  0.84988 0.483655     H
H     0.451154 0.211344 0.254881     H
H     0.451154 0.788656 0.754881     H
C     0.4517913  0.16264  0.23492     C
C     0.4517913  0.83744  0.73492     C
N     0.4532911  0.01724 0.9781817     N
N     0.4532911  0.98284 0.4781817     N
C     0.4559316  0.01704  0.17794     C
C     0.4559316  0.98304  0.67794     C
H     0.457938 0.032771 0.659633     H
H     0.457938 0.967229 0.159633     H
H     0.459989 0.151257 0.865111     H
H     0.459989 0.848743 0.365111     H
H     0.462337 0.016759 0.827865     H
H     0.462337 0.983241 0.327865     H
C     0.4681913  0.16654  0.20032     C
C     0.4681913  0.83354  0.70032     C
C     0.4700313  0.09324  0.17152     C
C     0.4700313  0.90684  0.67152     C
H     0.470734 0.169196 0.422567     H
H     0.470734 0.830804 0.922567     H
H     0.470799 0.005573 0.588361     H
H     0.470799 0.994427 0.088361     H
H     0.477913 0.218026 0.196382     H
H     0.477913 0.781974 0.696382     H
C     0.4835213  0.04284  0.09512     C
C     0.4835213  0.95724  0.59512     C
C     0.4845314  0.13844  0.41072     C
C     0.4845314  0.86164  0.91072     C
N     0.486181  0.09864 0.1346018     N
N     0.486181  0.90144 0.6346018     N
H     0.486246 0.208216 0.346793     H
H     0.486246 0.791784 0.846793     H
C     0.4930513  0.16094  0.36862     C
C     0.4930513  0.83914  0.86862     C
H     0.493749 0.158696 0.513657     H
H     0.493749 0.841304 0.013657     H
O     0.4940211  0.11854 0.5336817     O
O     0.4940211  0.88154 0.0336817     O
N     0.4991411  0.06494  0.43242     N
N     0.4991411  0.93514  0.93242     N
Ni         0.5      0.0      0.0    Ni
Ni         0.5      0.0      0.5    Ni
N     0.5008611  0.06494  0.06762     N
N     0.5008611  0.93514  0.56762     N
O     0.5059811  0.11854 0.9663217     O
O     0.5059811  0.88154 0.4663217     O
H     0.506251 0.158696 0.986343     H
H     0.506251 0.841304 0.486343     H
C     0.5069513  0.16094  0.13142     C
C     0.5069513  0.83914  0.63142     C
H     0.513754 0.208216 0.153207     H
H     0.513754 0.791784 0.653207     H
N     0.513821  0.09864 0.3654018     N
N     0.513821  0.90144 0.8654018     N
C     0.5154714  0.13844  0.08932     C
C     0.5154714  0.86164  0.58932     C
C     0.5164813  0.04284  0.40492     C
C     0.5164813  0.95724  0.90492     C
H     0.522087 0.218026 0.303618     H
H     0.522087 0.781974 0.803618     H
H     0.529201 0.005573 0.911639     H
H     0.529201 0.994427 0.411639     H
H     0.529266 0.169196 0.077433     H
H     0.529266 0.830804 0.577433     H
C     0.5299713  0.09324  0.32852     C
C     0.5299713  0.90684  0.82852     C
C     0.5318113  0.16654  0.29972     C
C     0.5318113  0.83354  0.79972     C
H     0.537663 0.016759 0.672135     H
H     0.537663 0.983241 0.172135     H
H     0.540011 0.151257 0.634889     H
H     0.540011 0.848743 0.134889     H
H     0.542062 0.032771 0.840367     H
H     0.542062 0.967229 0.340367     H
C     0.5440716  0.01704  0.32214     C
C     0.5440716  0.98304  0.82214     C
N     0.5467111  0.01724 0.5218217     N
N     0.5467111  0.98284 0.0218217     N
C     0.5482113  0.16264  0.26512     C
C     0.5482113  0.83744  0.76512     C
H     0.548846 0.211344 0.245119     H
H     0.548846 0.788656 0.745119     H
H     0.551972  0.15012 0.516345     H
H     0.551972  0.84988 0.016345     H
H     0.552785 0.315521 0.651051     H
H     0.552785 0.684479 0.151051     H
C     0.5562814  0.04204  0.67482     C
C     0.5562814  0.95804  0.17482     C
C     0.5577113  0.12244  0.65262     C
C     0.5577113  0.87764  0.15262     C
C     0.5610716  0.01374  0.28902     C
C     0.5610716  0.98634  0.78902     C
C     0.5614116  0.09584  0.52284     C
C     0.5614116  0.90424  0.02284     C
C     0.5636713  0.08774  0.25972     C
C     0.5636713  0.91234  0.75972     C
H     0.564306 0.102069 0.034327     H
H     0.564306 0.897931 0.534327     H
C     0.5678213  0.04244  0.03242     C
C     0.5678213  0.95764  0.53242     C
H     0.567875 0.343748 0.448996     H
H     0.567875 0.656252 0.948996     H
C     0.5682316  0.31364  0.63604     C
C     0.5682316  0.68644  0.13604     C
H     0.569293 0.435541 0.607588     H
H     0.569293 0.564459 0.107588     H
H     0.569618 0.470654 0.522966     H
H     0.569618 0.529346 0.022966     H
H        0.571 0.037826 0.785836     H
H        0.571 0.962174 0.285836     H
H     0.572251  0.21535 0.397622     H
H     0.572251  0.78465 0.897622     H
C     0.5773816  0.37945  0.61184     C
C     0.5773816  0.62065  0.11184     C
N     0.5811312  0.08244  0.22582     N
N     0.5811312  0.91764  0.72582     N
C     0.5828813  0.00154  0.20142     C
C     0.5828813  0.99854  0.70142     C
O     0.583659  0.48894 0.5134916     O
O     0.583659  0.51114 0.0134916     O
C     0.5848217  0.30825  0.45514     C
C     0.5848217  0.69185  0.95514     C
C     0.5849514  0.15954  0.65642     C
C     0.5849514  0.84054  0.15642     C
N     0.5860011  0.24324  0.63432     N
N     0.5860011  0.75684  0.13432     N
H      0.58641 0.116786 0.136195     H
H      0.58641 0.883214 0.636195     H
C     0.5870117  0.23755  0.42604     C
C     0.5870117  0.76255  0.92604     C
C     0.5913916  0.08294  0.53444     C
C     0.5913916  0.91714  0.03444     C
C     0.5925213  0.15924  0.20912     C
C     0.5925213  0.84084  0.70912     C
C     0.5933913  0.16354  0.15852     C
C     0.5933913  0.83654  0.65852     C
N     0.5959711  0.00604 0.0402218     N
N     0.5959711  0.99404 0.5402218     N
N     0.6005111  0.35134  0.59402     N
N     0.6005111  0.64874  0.09402     N
H     0.601603 0.398978 0.082905     H
H     0.601603 0.601022 0.582905     H
H     0.602065  0.22776 0.275349     H
H     0.602065  0.77224 0.775349     H
C     0.6027112  0.23004  0.24162     C
C     0.6027112  0.77004  0.74162     C
C     0.6047413  0.23784  0.14162     C
C     0.6047413  0.76224  0.64162     C
C     0.6052213  0.27004  0.60962     C
C     0.6052213  0.73004  0.10962     C
H     0.605441 0.240984 0.107944     H
H     0.605441 0.759016 0.607944     H
H     0.606095 0.125718 0.537824     H
H     0.606095 0.874282 0.037824     H
C     0.6101413  0.03614  0.70392     C
C     0.6101413  0.96394  0.20392     C
N     0.6108211  0.31964  0.49442     N
N     0.6108211  0.68044  0.99442     N
C     0.6115814  0.11694  0.68202     C
C     0.6115814  0.88314  0.18202     C
H     0.611926 0.162162 0.354101     H
H     0.611926 0.837838 0.854101     H
H     0.612208 0.154648 0.010076     H
H     0.612208 0.845352 0.510076     H
C     0.6136713  0.30294  0.22442     C
C     0.6136713  0.69714  0.72442     C
C     0.6150612  0.30744  0.17512     C
C     0.6150612  0.69264  0.67512     C
N     0.6153412  0.20634  0.44742     N
N     0.6153412  0.79374  0.94742     N
C     0.6176913  0.41944  0.10992     C
C     0.6176913  0.58064  0.60992     C
H     0.619614 0.278669 0.940257     H
H     0.619614 0.721331 0.440257     H
H     0.620274 0.350032 0.246506     H
H     0.620274 0.649968 0.746506     H
H     0.620283 0.234803 0.604173     H
H     0.620283 0.765197 0.104173     H
Ni    0.622672 0.417884 0.549923    Ni
Ni    0.622672 0.582124 0.049923    Ni
C     0.6237513  0.05064  0.05692     C
C     0.6237513  0.94944  0.55692     C
C     0.6240116  0.12294  0.37742     C
C     0.6240116  0.87714  0.87742     C
H     0.624627 0.143432 0.907905     H
H     0.624627 0.856568 0.407905     H
C     0.6273913  0.13204  0.03772     C
C     0.6273913  0.86804  0.53772     C
N     0.627451  0.38194 0.1578417     N
N     0.627451  0.61814 0.6578417     N
H       0.6279 0.006573 0.720586     H
H       0.6279 0.993427 0.220586     H
C     0.6284514  0.25574  0.48922     C
C     0.6284514  0.74434  0.98922     C
C     0.6292014  0.13444  0.42962     C
C     0.6292014  0.86564  0.92962     C
H     0.629485 0.391757 0.002515     H
H     0.629485 0.608243 0.502515     H
H     0.630133 0.142349 0.684444     H
H     0.630133 0.857651 0.184444     H
H     0.633236   0.0445 0.325245     H
H     0.633236   0.9555 0.825245     H
N     0.6342111  0.48804 0.1073518     N
N     0.6342111  0.51204 0.6073518     N
C     0.6366414  0.26574  0.93052     C
C     0.6366414  0.73434  0.43052     C
C     0.6369118  0.05275  0.36044     C
C     0.6369118  0.94735  0.86044     C
C     0.6397314  0.18494  0.91122     C
C     0.6397314  0.81514  0.41122     C
C     0.6408114  0.43204  0.99062     C
C     0.6408114  0.56804  0.49062     C
N     0.6438611  0.48564 0.5040218     N
N     0.6438611  0.51444 0.0040218     N
H     0.645185 0.040389 0.608117     H
H     0.645185 0.959611 0.108117     H
C     0.6471716  0.01534  0.09572     C
C     0.6471716  0.98474  0.59572     C
C     0.6475216  0.07714  0.46392     C
C     0.6475216  0.92294  0.96392     C
H     0.647652 0.245577 0.511656     H
H     0.647652 0.754423 0.011656     H
H     0.651227 0.085409 0.499033     H
H     0.651227 0.914591 0.999033     H
C     0.6518313  0.43214  0.18642     C
C     0.6518313  0.56794  0.68642     C
C     0.6533413  0.18034  0.05902     C
C     0.6533413  0.81974  0.55902     C
C     0.6549716  0.00504  0.89402     C
C     0.6549716  0.99504  0.39402     C
C     0.6552714  0.49734  0.15512     C
C     0.6552714  0.50274  0.65512     C
H     0.655684 0.234906 0.045709     H
H     0.655684 0.765094 0.545709     H
N     0.656251  0.41254 0.9569818     N
N     0.656251  0.58754 0.4569818     N
C     0.6586613  0.32744  0.93552     C
C     0.6586613  0.67264  0.43552     C
C     0.6603816  0.00744  0.44634     C
C     0.6603816  0.99264  0.94634     C
O     0.661139  0.34464 0.5813616     O
O     0.661139  0.65544 0.0813616     O
H     0.661458 0.177232 0.179265     H
H     0.661458 0.822768 0.679265     H
C     0.6617413  0.44974  0.47752     C
C     0.6617413  0.55034  0.97752     C
H      0.66341  0.42271 0.220313     H
H      0.66341  0.57729 0.720313     H
C     0.6646814  0.16344  0.89632     C
C     0.6646814  0.83664  0.39632     C
H     0.665875 0.198838 0.264674     H
H     0.665875 0.801162 0.764674     H
H     0.666305 0.171186 0.794121     H
H     0.666305 0.828814 0.294121     H
N     0.6674712  0.08014  0.87572     N
N     0.6674712  0.91994  0.37572     N
H     0.667791 0.391468 0.479433     H
H     0.667791 0.608532 0.979433     H
C     0.6692216  0.48894  0.94814     C
C     0.6692216  0.51114  0.44814     C
H     0.669642 0.458501 0.664289     H
H     0.669642 0.541499 0.164289     H
H     0.670233 0.315608 0.331725     H
H     0.670233 0.684392 0.831725     H
H     0.672728 0.031435 0.969572     H
H     0.672728 0.968565 0.469572     H
C     0.6732816  0.06124  0.11624     C
C     0.6732816  0.93884  0.61624     C
C     0.6759113  0.14634  0.10062     C
C     0.6759113  0.85374  0.60062     C
O     0.6765612  0.27434 0.6649718     O
O     0.6765612  0.72574 0.1649718     O
C     0.6799614  0.19424  0.20182     C
C     0.6799614  0.80584  0.70182     C
C     0.6803316  0.12614  0.79922     C
C     0.6803316  0.87394  0.29922     C
H     0.680901 0.496873  0.92622     H
H     0.680901 0.503127  0.42622     H
C     0.6823916  0.20745  0.25274     C
C     0.6823916  0.79265  0.75274     C
C     0.6834514  0.06824  0.83982     C
C     0.6834514  0.93184  0.33982     C
C     0.6834716  0.30954  0.92024     C
C     0.6834716  0.69054  0.42024     C
S     0.686143 0.301251 0.620806     S
S     0.686143 0.698751 0.120806     S
C     0.6867316  0.22604  0.90064     C
C     0.6867316  0.77404  0.40064     C
H     0.688414 0.326138 0.423847     H
H     0.688414 0.673862 0.923847     H
C     0.6886918  0.29547  0.35294     C
C     0.6886918  0.70467  0.85294     C
H     0.689379  0.03515 0.140782     H
H     0.689379  0.96485 0.640782     H
O     0.6952811  0.22234  0.59732     O
O     0.6952811  0.77774  0.09732     O
H     0.695604 0.158281 0.740391     H
H     0.695604 0.841719 0.240391     H
H     0.696086 0.367176 0.142488     H
H     0.696086 0.632824 0.642488     H
C     0.6975416  0.11794  0.76674     C
C     0.6975416  0.88214  0.26674     C
H     0.698074 0.352241 0.922606     H
H     0.698074 0.647759 0.422606     H
C     0.6989217  0.30077  0.40344     C
C     0.6989217  0.69937  0.90344     C
N     0.7011611  0.19704 0.1297718     N
N     0.7011611  0.80304 0.6297718     N
H     0.702535 0.183985 0.508956     H
H     0.702535 0.816015 0.008956     H
C     0.7033716  0.00144  0.34534     C
C     0.7033716  0.99864  0.84534     C
H     0.703689 0.212997 0.890668     H
H     0.703689 0.787003 0.390668     H
C     0.7042413  0.20534  0.18302     C
C     0.7042413  0.79474  0.68302     C
H     0.705694 0.041083 0.372023     H
H     0.705694 0.958917 0.872023     H
C     0.7057518  0.35635  0.11794     C
C     0.7057518  0.64375  0.61794     C
O     0.707581  0.23564  0.51222     O
O     0.707581  0.76444  0.01222     O
H     0.708273 0.475823 0.789009     H
H     0.708273 0.524177 0.289009     H
C     0.7099414  0.23374  0.28592     C
C     0.7099414  0.76634  0.78592     C
C     0.7103913  0.27014  0.10522     C
C     0.7103913  0.72994  0.60522     C
N     0.7112012  0.25344  0.33762     N
N     0.7112012  0.74664  0.83762     N
O     0.711561  0.36214 0.6370418     O
O     0.711561  0.63794 0.1370418     O
H     0.712419  0.48195 0.104153     H
H     0.712419  0.51805 0.604153     H
H     0.713575  0.10936 0.672753     H
H     0.713575  0.89064 0.172753     H
C     0.7151918  0.42495  0.09464     C
C     0.7151918  0.57515  0.59464     C
C     0.7177814  0.04954  0.77292     C
C     0.7177814  0.95054  0.27292     C
C     0.7200016  0.01204  0.31064     C
C     0.7200016  0.98804  0.81064     C
C      0.72232  0.25615  0.06634     C
C      0.72232  0.74395  0.56634     C
H     0.723457  0.19929 0.054778     H
H     0.723457  0.80071 0.554778     H
C     0.7261516  0.49855  0.28774     C
C     0.7261516  0.50155  0.78774     C
H     0.726551 0.409505 0.561526     H
H     0.726551 0.590495 0.061526     H
N     0.7271312  0.26374  0.42222     N
N     0.7271312  0.73634  0.92222     N
H     0.728791 0.471185 0.719287     H
H     0.728791 0.528815 0.219287     H
C     0.7289213  0.40984  0.05682     C
C     0.7289213  0.59024  0.55682     C
C     0.7301517  0.07585  0.69054     C
C     0.7301517  0.92425  0.19054     C
H     0.731168 0.067698 0.541564     H
H     0.731168 0.932302 0.041564     H
C     0.7319216  0.22484  0.21794     C
C     0.7319216  0.77524  0.71794     C
H     0.732474  0.06041 0.313059     H
H     0.732474  0.93959 0.813059     H
C      0.73292  0.32655  0.04284     C
C      0.73292  0.67355  0.54284     C
C     0.7333514  0.23694  0.38072     C
C     0.7333514  0.76314  0.88072     C
C     0.7349314  0.24054  0.26912     C
C     0.7349314  0.75954  0.76912     C
C     0.7358114  0.43284  0.53872     C
C     0.7358114  0.56724  0.03872     C
N     0.7360313  0.04034  0.73902     N
N     0.7360313  0.95974  0.23902     N
C      0.73792  0.49915  0.75044     C
C      0.73792  0.50095  0.25044     C
N     0.7393812  0.48094  0.03212     N
N     0.7393812  0.51914  0.53212     N
H     0.740466 0.078358 0.016296     H
H     0.740466 0.921642 0.516296     H
C      0.74112  0.05385  0.51774     C
C      0.74112  0.94625  0.01774     C
H     0.742443 0.315831 0.017983     H
H     0.742443 0.684169 0.517983     H
C      0.74602  0.02655  0.00384     C
C      0.74602  0.97355  0.50384     C
H     0.746417 0.244622 0.708094     H
H     0.746417 0.755378 0.208094     H
N      0.74662  0.44847  0.32574     N
N      0.74662  0.55167  0.82574     N
N     0.7470412  0.38624  0.50872     N
N     0.7470412  0.61384  0.00872     N
H       0.7487 0.290634 0.618637     H
H       0.7487 0.709366 0.118637     H
H     0.748895 0.227494 0.206745     H
H     0.748895 0.772506 0.706745     H
Ni        0.75     0.25      0.5    Ni
Ni        0.75     0.75      0.0    Ni
H     0.751105 0.272506 0.793255     H
H     0.751105 0.727494 0.293255     H
H       0.7513 0.209366 0.381363     H
H       0.7513 0.790634 0.881363     H
N     0.7529612  0.11384  0.49132     N
N     0.7529612  0.88624  0.99132     N
N      0.75342  0.05167  0.67434     N
N      0.75342  0.94847  0.17434     N
H     0.753583 0.255378 0.291906     H
H     0.753583 0.744622 0.791906     H
C      0.75402  0.47355  0.99624     C
C      0.75402  0.52655  0.49624     C
H     0.757557 0.184169 0.982017     H
H     0.757557 0.815831 0.482017     H
C      0.75892  0.44625  0.48234     C
C      0.75892  0.55385  0.98234     C
H     0.759534 0.421642 0.983704     H
H     0.759534 0.578358 0.483704     H
N     0.7606212  0.01914  0.96792     N
N     0.7606212  0.98094  0.46792     N
C      0.76212  0.00095  0.24964     C
C      0.76212  0.99915  0.74964     C
N     0.7639713  0.45974  0.26102     N
N     0.7639713  0.54034  0.76102     N
C     0.7641914  0.06724  0.46132     C
C     0.7641914  0.93284  0.96132     C
C     0.7650714  0.25954  0.73092     C
C     0.7650714  0.74054  0.23092     C
C     0.7666514  0.26314  0.61932     C
C     0.7666514  0.73694  0.11932     C
C      0.76712  0.17355  0.95724     C
C      0.76712  0.82655  0.45724     C
H     0.767526  0.43959 0.686941     H
H     0.767526  0.56041 0.186941     H
C     0.7680816  0.27524  0.78214     C
C     0.7680816  0.72484  0.28214     C
H     0.768832 0.432302 0.458436     H
H     0.768832 0.567698 0.958436     H
C     0.7698517  0.42425  0.30954     C
C     0.7698517  0.57585  0.80954     C
C     0.7710813  0.09024  0.94322     C
C     0.7710813  0.90984  0.44322     C
H     0.771209 0.028815 0.280713     H
H     0.771209 0.971185 0.780713     H
N     0.7728712  0.23634  0.57782     N
N     0.7728712  0.76374  0.07782     N
H     0.773449 0.090495 0.438474     H
H     0.773449 0.909505 0.938474     H
C     0.7738516  0.00155  0.71234     C
C     0.7738516  0.99855  0.21234     C
H     0.776543  0.30071 0.945222     H
H     0.776543  0.69929 0.445222     H
C      0.77772  0.24395  0.93374     C
C      0.77772  0.75615  0.43374     C
C     0.7800016  0.48804  0.68944     C
C     0.7800016  0.51204  0.18944     C
C     0.7822214  0.45054  0.22712     C
C     0.7822214  0.54954  0.72712     C
C     0.7848118  0.07515  0.90544     C
C     0.7848118  0.92495  0.40544     C
H     0.786425  0.39064 0.327247     H
H     0.786425  0.60936 0.827247     H
H     0.787581  0.01805 0.895847     H
H     0.787581  0.98195 0.395847     H
O     0.788441  0.13794 0.3629618     O
O     0.788441  0.86214 0.8629618     O
N     0.7888012  0.24664  0.66242     N
N     0.7888012  0.75344  0.16242     N
C     0.7896113  0.22994  0.89482     C
C     0.7896113  0.77014  0.39482     C
C     0.7900614  0.26634  0.71412     C
C     0.7900614  0.73374  0.21412     C
H     0.791727 0.024177 0.210991     H
H     0.791727 0.975823 0.710991     H
O     0.792421  0.26444  0.48782     O
O     0.792421  0.73564  0.98782     O
C     0.7942518  0.14375  0.88214     C
C     0.7942518  0.85635  0.38214     C
H     0.794306 0.458917 0.627977     H
H     0.794306 0.541083 0.127977     H
C     0.7957613  0.29474  0.81702     C
C     0.7957613  0.70534  0.31702     C
H     0.796311 0.287003 0.109332     H
H     0.796311 0.712997 0.609332     H
C     0.7966316  0.49864  0.65474     C
C     0.7966316  0.50144  0.15474     C
H     0.797465 0.316015 0.491044     H
H     0.797465 0.683985 0.991044     H
N     0.7988411  0.30304 0.8702318     N
N     0.7988411  0.69704 0.3702318     N
C     0.8010817  0.19937  0.59664     C
C     0.8010817  0.80077  0.09664     C
H     0.801926 0.147759 0.077394     H
H     0.801926 0.852241 0.577394     H
C     0.8024616  0.38214  0.23334     C
C     0.8024616  0.61794  0.73334     C
H     0.803914 0.132824 0.857512     H
H     0.803914 0.867176 0.357512     H
H     0.804396 0.341719 0.259609     H
H     0.804396 0.658281 0.759609     H
O     0.8047211  0.27774  0.40272     O
O     0.8047211  0.72234  0.90272     O
H     0.810621  0.46485 0.859218     H
H     0.810621  0.53515 0.359218     H
C     0.8113118  0.20467  0.64714     C
C     0.8113118  0.79547  0.14714     C
H     0.811586 0.173862 0.576153     H
H     0.811586 0.826138 0.076153     H
C     0.8132716  0.27404  0.09944     C
C     0.8132716  0.72604  0.59944     C
S     0.813863 0.198751 0.379206     S
S     0.813863 0.801251 0.879206     S
C     0.8165316  0.19054  0.07984     C
C     0.8165316  0.80954  0.57984     C
C     0.8165514  0.43184  0.16022     C
C     0.8165514  0.56824  0.66022     C
C     0.8176116  0.29265  0.74734     C
C     0.8176116  0.70745  0.24734     C
H     0.819099 0.003127  0.07378     H
H     0.819099 0.996873  0.57378     H
C     0.8196716  0.37394  0.20082     C
C     0.8196716  0.62614  0.70082     C
C     0.8200414  0.30584  0.79822     C
C     0.8200414  0.69424  0.29822     C
O     0.8234412  0.22574 0.3350318     O
O     0.8234412  0.77434 0.8350318     O
C     0.8240913  0.35374  0.89942     C
C     0.8240913  0.64634  0.39942     C
C     0.8267216  0.43884  0.88384     C
C     0.8267216  0.56124  0.38384     C
H     0.827272 0.468565 0.030428     H
H     0.827272 0.531435 0.530428     H
H     0.829767 0.184392 0.668275     H
H     0.829767 0.815608 0.168275     H
H     0.830358 0.041499 0.335711     H
H     0.830358 0.958501 0.835711     H
C     0.8307816  0.01114  0.05194     C
C     0.8307816  0.98894  0.55194     C
H     0.832209 0.108532 0.520567     H
H     0.832209 0.891468 0.020567     H
N     0.8325312  0.41994  0.12432     N
N     0.8325312  0.58014  0.62432     N
H     0.833695 0.328814 0.205879     H
H     0.833695 0.671186 0.705879     H
H     0.834125 0.301162 0.735326     H
H     0.834125 0.698838 0.235326     H
C     0.8353214  0.33664  0.10372     C
C     0.8353214  0.66344  0.60372     C
H      0.83659  0.07729 0.779687     H
H      0.83659  0.92271 0.279687     H
C     0.8382613  0.05034  0.52252     C
C     0.8382613  0.94974  0.02252     C
H     0.838542 0.322768 0.820735     H
H     0.838542 0.677232 0.320735     H
O     0.838879  0.15544 0.4186416     O
O     0.838879  0.84464 0.9186416     O
C     0.8396216  0.49264  0.55374     C
C     0.8396216  0.50744  0.05374     C
C     0.8413413  0.17264  0.06452     C
C     0.8413413  0.82744  0.56452     C
N     0.843751  0.08754 0.0430218     N
N     0.843751  0.91254 0.5430218     N
H     0.844316 0.265094 0.954291     H
H     0.844316 0.734906 0.454291     H
C     0.8447314  0.00274  0.84492     C
C     0.8447314  0.99734  0.34492     C
C     0.8450316  0.49504  0.10602     C
C     0.8450316  0.50504  0.60602     C
C     0.8466613  0.31974  0.94102     C
C     0.8466613  0.68034  0.44102     C
C     0.8481713  0.06794  0.81362     C
C     0.8481713  0.93214  0.31362     C
H     0.848773 0.414591 0.500967     H
H     0.848773 0.585409 0.000967     H
H     0.852348 0.254423 0.488344     H
H     0.852348 0.745577 0.988344     H
C     0.8524816  0.42294  0.53612     C
C     0.8524816  0.57714  0.03612     C
C     0.8528316  0.48474  0.90432     C
C     0.8528316  0.51534  0.40432     C
H     0.854815 0.459611 0.391883     H
H     0.854815 0.540389 0.891883     H
N     0.8561411  0.01444 0.4959818     N
N     0.8561411  0.98564 0.9959818     N
C     0.8591914  0.06804  0.00942     C
C     0.8591914  0.93204  0.50942     C
C     0.8602714  0.31514  0.08882     C
C     0.8602714  0.68494  0.58882     C
C     0.8630918  0.44735  0.63964     C
C     0.8630918  0.55275  0.13964     C
C     0.8633614  0.23434  0.06952     C
C     0.8633614  0.76574  0.56952     C
N     0.8657911  0.01204 0.8926518     N
N     0.8657911  0.98804 0.3926518     N
H     0.866764   0.4555 0.674755     H
H     0.866764   0.5445 0.174755     H
H     0.869867 0.357651 0.315556     H
H     0.869867 0.642349 0.815556     H
H     0.870515 0.108243 0.997485     H
H     0.870515 0.891757 0.497485     H
C     0.8708014  0.36564  0.57042     C
C     0.8708014  0.63444  0.07042     C
C     0.8715514  0.24434  0.51082     C
C     0.8715514  0.75574  0.01082     C
H       0.8721 0.493427 0.279414     H
H       0.8721 0.506573 0.779414     H
N     0.872551  0.11814 0.8421617     N
N     0.872551  0.88194 0.3421617     N
C     0.8726113  0.36804  0.96232     C
C     0.8726113  0.63204  0.46232     C
H     0.875373 0.356568 0.092095     H
H     0.875373 0.643432 0.592095     H
C     0.8759916  0.37714  0.62262     C
C     0.8759916  0.62294  0.12262     C
C     0.8762513  0.44944  0.94312     C
C     0.8762513  0.55064  0.44312     C
Ni    0.877332 0.082124 0.450083    Ni
Ni    0.877332 0.917884 0.950083    Ni
H     0.879717 0.265197 0.395827     H
H     0.879717 0.734803 0.895827     H
H     0.879726 0.149968 0.753494     H
H     0.879726 0.850032 0.253494     H
H     0.880386 0.221331 0.059743     H
H     0.880386 0.778669 0.559743     H
C     0.8823113  0.08064  0.89012     C
C     0.8823113  0.91944  0.39012     C
N     0.8846612  0.29374  0.55262     N
N     0.8846612  0.70634  0.05262     N
C     0.8849412  0.19264  0.82492     C
C     0.8849412  0.80744  0.32492     C
C     0.8863313  0.19714  0.77562     C
C     0.8863313  0.80294  0.27562     C
H     0.887792 0.345352 0.989924     H
H     0.887792 0.654648 0.489924     H
H     0.888074 0.337838 0.645899     H
H     0.888074 0.662162 0.145899     H
C     0.8884214  0.38314  0.31802     C
C     0.8884214  0.61694  0.81802     C
N     0.8891811  0.18044  0.50562     N
N     0.8891811  0.81964  0.00562     N
C     0.8898613  0.46394  0.29612     C
C     0.8898613  0.53614  0.79612     C
H     0.893905 0.374282 0.462176     H
H     0.893905 0.625718 0.962176     H
H     0.894559 0.259016 0.892056     H
H     0.894559 0.740984 0.392056     H
C     0.8947813  0.23004  0.39042     C
C     0.8947813  0.77004  0.89042     C
C     0.8952613  0.26224  0.85842     C
C     0.8952613  0.73784  0.35842     C
C     0.8972912  0.27004  0.75842     C
C     0.8972912  0.73004  0.25842     C
H     0.897935  0.27224 0.724651     H
H     0.897935  0.72776 0.224651     H
H     0.898397 0.101022 0.917095     H
H     0.898397 0.898978 0.417095     H
N     0.8994911  0.14874  0.40602     N
N     0.8994911  0.85134  0.90602     N
N     0.9040311  0.49404 0.9597818     N
N     0.9040311  0.50604 0.4597818     N
C     0.9066113  0.33654  0.84152     C
C     0.9066113  0.66354  0.34152     C
C     0.9074813  0.34084  0.79092     C
C     0.9074813  0.65924  0.29092     C
C     0.9086116  0.41714  0.46564     C
C     0.9086116  0.58294  0.96564     C
C     0.9129917  0.26255  0.57404     C
C     0.9129917  0.73755  0.07404     C
H      0.91359 0.383214 0.863805     H
H      0.91359 0.616786 0.363805     H
N     0.9140011  0.25684  0.36572     N
N     0.9140011  0.74324  0.86572     N
C     0.9150514  0.34054  0.34362     C
C     0.9150514  0.65954  0.84362     C
C     0.9151817  0.19185  0.54494     C
C     0.9151817  0.80825  0.04494     C
O     0.916359  0.01114 0.4865116     O
O     0.916359  0.98894 0.9865116     O
C     0.9171213  0.49854  0.79862     C
C     0.9171213  0.50154  0.29862     C
N     0.9188712  0.41764  0.77422     N
N     0.9188712  0.58244  0.27422     N
C     0.9226216  0.12065  0.38824     C
C     0.9226216  0.87945  0.88824     C
H     0.927749  0.28465 0.602378     H
H     0.927749  0.71535 0.102378     H
H        0.929 0.462174 0.214164     H
H        0.929 0.537826 0.714164     H
H     0.930382 0.029346 0.477034     H
H     0.930382 0.970654 0.977034     H
H     0.930707 0.064459 0.392412     H
H     0.930707 0.935541 0.892412     H
C     0.9317716  0.18644  0.36404     C
C     0.9317716  0.81364  0.86404     C
H     0.932125 0.156252 0.551004     H
H     0.932125 0.843748 0.051004     H
C     0.9321813  0.45764  0.96762     C
C     0.9321813  0.54244  0.46762     C
H     0.935694 0.397931 0.965673     H
H     0.935694 0.602069 0.465673     H
C     0.9363313  0.41234  0.74032     C
C     0.9363313  0.58774  0.24032     C
C     0.9385916  0.40424  0.47724     C
C     0.9385916  0.59584  0.97724     C
C     0.9389316  0.48634  0.71102     C
C     0.9389316  0.51374  0.21102     C
C     0.9422913  0.37764  0.34742     C
C     0.9422913  0.62244  0.84742     C
C     0.9437214  0.45804  0.32522     C
C     0.9437214  0.54204  0.82522     C
H     0.947215 0.184479 0.348949     H
H     0.947215 0.815521 0.848949     H
H     0.948028  0.34988 0.483655     H
H     0.948028  0.65012 0.983655     H
H     0.951154 0.288656 0.754881     H
H     0.951154 0.711344 0.254881     H
C     0.9517913  0.33744  0.73492     C
C     0.9517913  0.66264  0.23492     C
N     0.9532911  0.48284 0.4781817     N
N     0.9532911  0.51724 0.9781817     N
C     0.9559316  0.48304  0.67794     C
C     0.9559316  0.51704  0.17794     C
H     0.957938 0.467229 0.159633     H
H     0.957938 0.532771 0.659633     H
H     0.959989 0.348743 0.365111     H
H     0.959989 0.651257 0.865111     H
H     0.962337 0.483241 0.327865     H
H     0.962337 0.516759 0.827865     H
C     0.9681913  0.33354  0.70032     C
C     0.9681913  0.66654  0.20032     C
C     0.9700313  0.40684  0.67152     C
C     0.9700313  0.59324  0.17152     C
H     0.970734 0.330804 0.922567     H
H     0.970734 0.669196 0.422567     H
H     0.970799 0.494427 0.088361     H
H     0.970799 0.505573 0.588361     H
H     0.977913 0.281974 0.696382     H
H     0.977913 0.718026 0.196382     H
C     0.9835213  0.45724  0.59512     C
C     0.9835213  0.54284  0.09512     C
C     0.9845314  0.36164  0.91072     C
C     0.9845314  0.63844  0.41072     C
N     0.986181  0.40144 0.6346018     N
N     0.986181  0.59864 0.1346018     N
H     0.986246 0.291784 0.846793     H
H     0.986246 0.708216 0.346793     H
C     0.9930513  0.33914  0.86862     C
C     0.9930513  0.66094  0.36862     C
H     0.993749 0.341304 0.013657     H
H     0.993749 0.658696 0.513657     H
O     0.9940211  0.38154 0.0336817     O
O     0.9940211  0.61854 0.5336817     O
N     0.9991411  0.43514  0.93242     N
N     0.9991411  0.56494  0.43242     N
