data_I
_chemical_name_common  'val_39'
_cell_length_a 23.97820
_cell_length_b 23.97820
_cell_length_c 23.97820
_cell_angle_alpha 90.00000
_cell_angle_beta  90.00000
_cell_angle_gamma 90.00000
_space_group_name_H-M_alt      'P 1'


loop_
_space_group_symop_operation_xyz
  'x, y, z' 

loop_
_atom_site_label
_atom_site_fract_x
_atom_site_fract_y
_atom_site_fract_z
_atom_site_type_symbol
Zn    -0.119102 0.565982 0.798602    Zn
Zn    -0.119102 0.934022 0.298602    Zn
Zn    -0.119102 0.934022 1.298602    Zn
H      -0.1117      0.3   0.4463     H
H      -0.1117      1.2   0.9463     H
H      -0.1017    0.459   0.7388     H
H      -0.1017    1.041   1.2388     H
N     -0.0821114 0.5384714 0.7271014     N
N     -0.0821114 0.9615314 1.2271014     N
C     -0.08052 0.4835118  0.71592     C
C     -0.08052 1.0164918  1.21592     C
H      -0.0785   0.3712   0.5013     H
H      -0.0785   1.1288   1.0013     H
C     -0.0726417  0.30642  0.44782     C
C     -0.0726417  1.19362  0.94782     C
O     -0.0685713 0.5833314 0.8602414     O
O     -0.0685713 0.9166714 0.3602414     O
Zn    -0.065982 0.201402 0.380902    Zn
Zn    -0.065982 0.201402 1.380902    Zn
Zn    -0.065982 0.298602 0.880902    Zn
Zn    -0.065982 1.298602 0.880902    Zn
H      -0.0604   0.2038   1.2577     H
H      -0.0604   0.2962   0.7577     H
H      -0.0537   0.6117      0.7     H
H      -0.0537   0.8883      1.2     H
C     -0.0531018  0.34932  0.48022     C
C     -0.0531018  1.15072  0.98022     C
C     -0.05222 0.5726417  0.69362     C
C     -0.05222 0.9273617  1.19362     C
H        -0.05    0.422   0.6663     H
H        -0.05    1.078   1.1663     H
C     -0.04962 0.4611217 0.6728218     C
C     -0.04962 1.0388817 1.1728218     C
O     -0.0445718 0.4974616 0.8396317     O
O     -0.0445718 1.0025416 0.3396317     O
N     -0.0384714 0.2729014 0.4178914     N
N     -0.0384714 1.2271014 0.9178914     N
C     -0.03812 0.5400918  0.86802     C
C     -0.03812 0.9599118  0.36802     C
H      -0.0351   0.4077   0.5752     H
H      -0.0351   1.0923   1.0752     H
H     -0.0304765 0.616242 0.951776     H
H     -0.0304765 0.883758 0.451776     H
C     -0.0244818  0.18942 1.2659618     C
C     -0.0244818  0.31062 0.7659618     C
C     -0.01982 0.5531018  0.65072     C
C     -0.01982 0.9469018  1.15072     C
C     -0.0178516 0.4958816 0.6390016     C
C     -0.0178516 1.0041216 1.1390016     C
N     -0.0115514 0.1792816 1.3195214     N
N     -0.0115514 0.3207216 0.8195214     N
C     -0.0030517 0.4273517 0.5625917     C
C     -0.0030517 1.0726517 1.0625917     C
O     -0.0025416 0.6603717 1.0445718     O
O     -0.0025416 0.8396317 0.5445718     O
H       0.0007   0.1884   1.1855     H
H       0.0007   0.3116   0.6855     H
H       0.0013   0.5785   0.6288     H
H       0.0013   0.9215   1.1288     H
C     0.0024116 0.5849616 0.9533817     C
C     0.0024116 0.9150416 0.4533817     C
C     0.0041216 0.3610016 0.4821516     C
C     0.0041216 1.1390016 0.9821516     C
C     0.0044216 0.5424916 0.9129216     C
C     0.0044216 0.9575116 0.4129216     C
N     0.0115514 0.6792816 0.1804814     N
N     0.0115514 0.8207216 0.6804814     N
C      0.01162  0.17982 1.2225818     C
C      0.01162  0.32022 0.7225818     C
C     0.0152217 0.4742916 0.5910816     C
C     0.0152217 1.0257116 1.0910816     C
C     0.0164918  0.28412  0.41952     C
C     0.0164918  1.21592  0.91952     C
H         0.02   1.0362   0.3493     H
C     0.0257116 0.4089216 0.5152217     C
C     0.0257116 1.0910816 1.0152217     C
C      0.03842  0.15602  1.32962     C
C      0.03842  0.34402  0.82962     C
N     0.0384714 0.7271014 0.5821114     N
N     0.0384714 0.7729014 0.0821114     N
C     0.0388817 0.3271818  0.45042     C
C     0.0388817 1.1728218  0.95042     C
C     0.0400918  0.63202  1.03812     C
C     0.0400918  0.86802  0.53812     C
H        0.041   0.2612   0.3983     H
H        0.041   1.2388   0.8983     H
C     0.0424916 0.5870816 0.9955816     C
C     0.0424916 0.9129216 0.4955816     C
N      0.04615  1.03675  0.37515     N
C     0.0466217 0.5024116 0.9150416     C
C     0.0466217 0.9975916 0.4150416     C
H       0.0476   0.1466    1.367     H
H       0.0476   0.3534    0.867     H
H     0.0482243 0.469524 0.883758     H
C     0.0625917 0.5030517 0.5726517     C
C     0.0625917 0.9969517 1.0726517     C
C     0.0636617 0.1579217 1.2327118     C
C     0.0636617 0.3420817 0.7327118     C
Zn    0.065982 0.701402 0.119102    Zn
Zn    0.065982 0.701402 1.119102    Zn
Zn    0.065982 0.798602 0.619102    Zn
O     0.0685713 0.0833314 0.6397614     O
O     0.0685713 0.4166714 0.1397614     O
H       0.0718   1.0629   0.3747     H
C     0.0726517 0.4374117 0.4969517     C
C     0.0726517 1.0625917 0.9969517     C
H       0.0752   0.5351   0.5923     H
H       0.0752   0.9649   1.0923     H
C      0.07702  0.14492  1.28812     C
C      0.07702  0.35512  0.78812     C
H        0.078   0.3337     0.45     H
H        0.078   1.1663     0.95     H
H       0.0815   0.2189    1.143     H
H       0.0815   0.2811    0.643     H
N     0.0821114 0.0384714 0.7729014     N
N     0.0821114 0.4615314 0.2729014     N
O     0.0833314 0.6397614 0.0685713     O
O     0.0833314 0.8602414 0.5685713     O
C     0.0849616 0.5466217 0.9975916     C
C     0.0849616 0.9533817 0.4975916     C
C     0.0870816 0.5044216 0.9575116     C
C     0.0870816 0.9955816 0.4575116     C
C     0.0910816 0.4847817 0.5257116     C
C     0.0910816 1.0152217 1.0257116     C
H       0.0923   0.4248   0.4649     H
H       0.0923   1.0752   0.9649     H
C     0.1059318 0.1508117 1.1879417     C
C     0.1059318 0.3491917 0.6879417     C
C     0.1087918 0.1902118 1.1451118     C
C     0.1087918 0.3097918 0.6451118     C
O      0.10892 0.1806318  0.75742     O
O      0.10892 0.3193718  0.25742     O
H       0.1121   0.1287    1.297     H
H       0.1121   0.3713    0.797     H
H     0.116242 0.951776 0.530476     H
Zn    0.119102 0.065982 0.701402    Zn
Zn    0.119102 0.434022 0.201402    Zn
Zn    0.119102 1.065982 0.701402    Zn
N      0.12495  0.54615  1.03675     N
H       0.1253   0.5718   1.0629     H
H       0.1287    0.203   0.6121     H
H       0.1287    0.297   1.1121     H
H       0.1288   0.4987   0.4215     H
H       0.1288   1.0013   0.9215     H
O     0.1316813 0.7063614 0.1666713     O
O     0.1316813 0.7936414 0.6666713     O
C      0.13202  0.46192 0.9599118     C
C      0.13202  1.03812 0.4599118     C
H        0.133   0.5476   0.1466     H
H        0.133   0.9524   0.6466     H
C     0.1390016 0.5178516 0.5041216     C
C     0.1390016 0.9821516 1.0041216     C
O     0.1397614 0.0685713 0.4166714     O
O     0.1397614 0.4314313 0.9166714     O
H       0.1415   0.6556   0.2279     H
H        0.143   0.0815   1.2189     H
H        0.143   0.4185   0.7189     H
C      0.14492  0.21192  0.57702     C
C      0.14492  0.28812  1.07702     C
C     0.1451118 0.1087918 1.1902118     C
C     0.1451118 0.3912118 0.6902118     C
H       0.1466    0.133   0.5476     H
H       0.1466    0.367   1.0476     H
H       0.1491   0.2828   0.3224     H
H       0.1507     0.52   1.0362     H
C      0.15072  0.51982 0.4469018     C
C      0.15072  0.98022 0.9469018     C
C     0.1508117 0.1879417 1.1059318     C
C     0.1508117 0.3120617 0.6059318     C
N      0.15505  0.24455  0.31845     N
C     0.1551217 0.1741617  0.73552     C
C     0.1551217 0.3258417  0.23552     C
H       0.1556   0.2279   0.3585     H
C      0.15602  0.17042  0.53842     C
C      0.15602  0.32962  1.03842     C
C     0.1579217 0.2327118 1.0636617     C
C     0.1579217 0.2672918 0.5636617     C
O     0.1603717 0.4554318 1.0025416     O
O     0.1603717 1.0445718 0.5025416     O
H     0.164131 0.257679 0.810628     H
H       0.1663     0.55    0.578     H
H       0.1663     0.95    1.078     H
O     0.1666713 0.1316813 0.7063614     O
O     0.1666713 0.3683213 0.2063614     O
C      0.17042  0.53842  0.15602     C
C      0.17042  0.96162  0.65602     C
C     0.1728218  0.54962 0.5388817     C
C     0.1728218  0.95042 1.0388817     C
C     0.1741617  0.73552 0.1551217     C
C     0.1741617  0.76452 0.6551217     C
H       0.1776   0.6491   0.2828     H
N     0.1792816 0.1804814 0.4884514     N
N     0.1792816 0.3195214 0.9884514     N
C      0.17982 0.2225818  1.01162     C
C      0.17982 0.2774218  0.51162     C
N     0.1804814 0.0115514 0.6792816     N
N     0.1804814 0.4884514 0.1792816     N
O     0.1806318  0.74262  0.60892     O
O     0.1806318  0.75742  0.10892     O
N      0.18165  0.65505  0.24455     N
H       0.1855   0.0007   1.1884     H
H       0.1855   0.4993   0.6884     H
C     0.1879417 0.1059318 1.1508117     C
C     0.1879417 0.3940718 0.6508117     C
H       0.1884   0.1855   1.0007     H
H       0.1884   0.3145   0.5007     H
H     0.189372 0.835869 0.742321     H
C      0.18942 0.2340418 0.4755218     C
C      0.18942 0.2659618 0.9755218     C
C     0.1902118 0.1451118 1.1087918     C
C     0.1902118 0.3548918 0.6087918     C
C      0.19362  0.55222 0.4273617     C
C      0.19362  0.94782 0.9273617     C
C     0.1967916 0.2406816 0.2791117     C
C     0.1967916 0.2593216 0.7791117     C
C     0.1985316 0.2190616 0.7367917     C
C     0.1985316 0.2809416 0.2367917     C
H          0.2   0.5537   0.3883     H
H          0.2   0.9463   0.8883     H
Zn    0.201402 0.119102 0.434022    Zn
Zn    0.201402 0.380902 -0.065982    Zn
Zn    0.201402 0.380902 0.934022    Zn
Zn    0.201402 1.119102 0.434022    Zn
H        0.203   0.6121   0.1287     H
H        0.203   0.8879   0.6287     H
H       0.2038   0.2423   0.4396     H
H       0.2038   0.2577   0.9396     H
O     0.2063614 0.1666713 0.3683213     O
O     0.2063614 0.3333313 0.8683213     O
C      0.21192  0.57702  0.14492     C
C      0.21192  0.92302  0.64492     C
C      0.21592  0.58052 0.5164918     C
C      0.21592  0.91952 1.0164918     C
H       0.2189    0.143   1.0815     H
H       0.2189    0.357   0.5815     H
C     0.2190616 0.7367917 0.1985316     C
C     0.2190616 0.7632117 0.6985316     C
C     0.2208917 0.6967916 0.2406816     C
C     0.2208917 0.8032116 0.7406816     C
C     0.2225818  0.01162  1.17982     C
C     0.2225818  0.48842  0.67982     C
N     0.2271014 0.5821114 0.4615314     N
N     0.2271014 0.9178914 0.9615314     N
H       0.2279   0.1415   0.6556     H
C     0.2327118 0.0636617 1.1579217     C
C     0.2327118 0.4363417 0.6579217     C
C     0.2340418 0.4755218  0.18942     C
C     0.2340418 1.0244818  0.68942     C
C      0.23552 0.1551217 0.3258417     C
C      0.23552 0.3448817 0.8258417     C
C     0.2367917 0.1985316 0.2809416     C
C     0.2367917 0.3014716 0.7809416     C
H       0.2388   0.6017    0.541     H
H       0.2388   0.8983    1.041     H
C     0.2406816 0.2208917 0.6967916     C
C     0.2406816 0.2791117 0.1967916     C
H       0.2423   0.4396   0.2038     H
H       0.2423   1.0604   0.7038     H
H     0.242321 0.310628 0.164131     H
O      0.24262  0.60892 0.3193718     O
O      0.24262  0.89112 0.8193718     O
N      0.24455  0.18165  0.65505     N
O      0.25742  0.10892 0.3193718     O
O      0.25742  0.39112 0.8193718     O
H     0.257679 0.689372 0.664131     H
H     0.257679 0.810628 0.164131     H
H       0.2577  -0.0604   1.2038     H
H       0.2577   0.5604   0.7038     H
C     0.2593216 0.7208917 0.6967916     C
C     0.2593216 0.7791117 0.1967916     C
H       0.2612   0.3983    0.041     H
H       0.2612   1.1017    0.541     H
C     0.2632117 0.6985316 0.2809416     C
C     0.2632117 0.8014716 0.7809416     C
C      0.26452 0.6551217 0.3258417     C
C      0.26452 0.8448817 0.8258417     C
C     0.2659618 -0.0244818  1.18942     C
C     0.2659618 0.5244818  0.68942     C
C     0.2672918 0.5636617 0.1579217     C
C     0.2672918 0.9363417 0.6579217     C
N     0.2729014 0.0821114 0.4615314     N
N     0.2729014 0.4178914 -0.0384714     N
C     0.2774218  0.51162  0.17982     C
C     0.2774218  0.98842  0.67982     C
C     0.2791117 0.1967916 0.2406816     C
C     0.2791117 0.3032116 0.7406816     C
C     0.2809416 0.2367917 0.1985316     C
C     0.2809416 0.2632117 0.6985316     C
H       0.2811    0.643   0.0815     H
H       0.2811    0.857   0.5815     H
H       0.2828   0.1776   0.6491     H
C      0.28412  0.41952 0.0164918     C
C      0.28412  1.08052 0.5164918     C
C      0.28812  0.07702  1.14492     C
C      0.28812  0.42302  0.64492     C
O     0.2936414 0.6666713 0.3683213     O
O     0.2936414 0.8333313 0.8683213     O
H       0.2962   0.7423   0.4396     H
H       0.2962   0.7577  -0.0604     H
H        0.297   0.1121   1.1287     H
H        0.297   0.3879   0.6287     H
Zn    0.298602 -0.119102 0.934022    Zn
Zn    0.298602 0.619102 0.434022    Zn
Zn    0.298602 0.880902 -0.065982    Zn
Zn    0.298602 0.880902 0.934022    Zn
H          0.3   0.4463  -0.1117     H
H          0.3   1.0537   0.3883     H
C     0.3014716 0.7190616 0.7367917     C
C     0.3014716 0.7809416 0.2367917     C
C     0.3032116 0.7406816 0.2791117     C
C     0.3032116 0.7593216 0.7791117     C
C      0.30642  0.44782 -0.0726417     C
C      0.30642  1.05222 0.4273617     C
C     0.3097918 0.6451118 0.1087918     C
C     0.3097918 0.8548918 0.6087918     C
C      0.31062 0.7340418 0.4755218     C
C      0.31062 0.7659618 -0.0244818     C
H     0.310628 0.164131 0.242321     H
H     0.310628 0.335869 0.742321     H
H       0.3116   0.6855   0.0007     H
H       0.3116   0.8145   0.5007     H
C     0.3120617 0.6059318 0.1508117     C
C     0.3120617 0.8940718 0.6508117     C
H       0.3145   0.5007   0.1884     H
H       0.3145   0.9993   0.6884     H
O     0.3193718  0.24262  0.60892     O
O     0.3193718  0.25742  0.10892     O
N     0.3195214 -0.0115514 1.1792816     N
N     0.3195214 0.5115514 0.6792816     N
C      0.32022 0.7225818  0.01162     C
C      0.32022 0.7774218  0.51162     C
N     0.3207216 0.6804814 0.4884514     N
N     0.3207216 0.8195214 -0.0115514     N
C     0.3258417  0.23552 0.1551217     C
C     0.3258417  0.26452 0.6551217     C
C     0.3271818  0.45042 0.0388817     C
C     0.3271818  1.04962 0.5388817     C
C      0.32962  0.03842  1.15602     C
C      0.32962  0.46162  0.65602     C
O     0.3333313 0.6316813 0.7063614     O
O     0.3333313 0.8683213 0.2063614     O
H       0.3337     0.45    0.078     H
H       0.3337     1.05    0.578     H
H     0.335869 0.742321 0.310628     H
O     0.3396317 -0.0445718 1.0025416     O
O     0.3396317 0.5445718 0.5025416     O
C     0.3420817 0.7327118 0.0636617     C
C     0.3420817 0.7672918 0.5636617     C
C      0.34402  0.67042  0.53842     C
C      0.34402  0.82962  0.03842     C
H       0.3444   0.7721   0.8585     H
C     0.3448817 0.6741617  0.73552     C
C     0.3448817 0.8258417  0.23552     C
N      0.34505  0.75555  0.81845     N
C     0.3491917 0.6879417 0.1059318     C
C     0.3491917 0.8120617 0.6059318     C
H       0.3493     0.48   0.5362     H
C      0.34932  0.48022 -0.0531018     C
C      0.34932  1.01982 0.4469018     C
H       0.3509   0.7172   0.8224     H
H       0.3534    0.633   0.5476     H
H       0.3534    0.867   0.0476     H
C     0.3548918 0.6087918 0.1902118     C
C     0.3548918 0.8912118 0.6902118     C
C      0.35512  0.71192  0.57702     C
C      0.35512  0.78812  0.07702     C
H        0.357   0.5815   0.2189     H
H        0.357   0.9185   0.7189     H
O     0.3602414 -0.0685713 0.9166714     O
O     0.3602414 0.5685713 0.4166714     O
C     0.3610016 0.4821516 0.0041216     C
C     0.3610016 1.0178516 0.5041216     C
H        0.367   0.0476   1.1466     H
H        0.367   0.4524   0.6466     H
C      0.36802 -0.03812 0.9599118     C
C      0.36802  0.53812 0.4599118     C
O     0.3683213 0.2063614 0.1666713     O
O     0.3683213 0.2936414 0.6666713     O
H       0.3712   0.5013  -0.0785     H
H       0.3712   0.9987   0.4215     H
H       0.3713    0.703   0.6121     H
H       0.3713    0.797   0.1121     H
H       0.3747   0.4282   0.5629     H
N      0.37515  0.45395  0.53675     N
Zn    0.380902 -0.065982 0.201402    Zn
Zn    0.380902 -0.065982 1.201402    Zn
Zn    0.380902 0.565982 0.701402    Zn
Zn    0.380902 0.934022 0.201402    Zn
H     0.383758 0.0482243  1.03048     H
H       0.3879   0.6287    0.297     H
H       0.3879   0.8713    0.797     H
H       0.3883      0.2   0.5537     H
H       0.3883      0.3   1.0537     H
O      0.39112 0.6806318  0.75742     O
O      0.39112 0.8193718  0.25742     O
C     0.3912118 0.6902118 0.1451118     C
C     0.3912118 0.8097918 0.6451118     C
C     0.3940718 0.6508117 0.1879417     C
C     0.3940718 0.8491917 0.6879417     C
H       0.3983    0.041   0.2612     H
H       0.3983    0.459   0.7612     H
H       0.4077   0.5752  -0.0351     H
H       0.4077   0.9248   0.4649     H
C     0.4089216 0.5152217 0.0257116     C
C     0.4089216 0.9847817 0.5257116     C
C     0.4129216 0.0044216 0.9575116     C
C     0.4129216 0.4955816 0.4575116     C
C     0.4150416 0.0466217 0.9975916     C
C     0.4150416 0.4533817 0.4975916     C
O     0.4166714 0.1397614 0.0685713     O
O     0.4166714 0.3602414 0.5685713     O
N     0.4178914 -0.0384714 0.2729014     N
N     0.4178914 0.5384714 0.7729014     N
H       0.4185   0.7189    0.143     H
H       0.4185   0.7811    0.643     H
C      0.41952 0.0164918  0.28412     C
C      0.41952 0.4835118  0.78412     C
H       0.4215   0.1288   0.4987     H
H       0.4215   0.3712   0.9987     H
H        0.422   0.6663    -0.05     H
H        0.422   0.8337     0.45     H
C      0.42302  0.64492  0.28812     C
C      0.42302  0.85512  0.78812     C
H       0.4248   0.4649   0.0923     H
H       0.4248   1.0351   0.5923     H
C     0.4273517 0.5625917 -0.0030517     C
C     0.4273517 0.9374117 0.4969517     C
C     0.4273617  0.19362  0.55222     C
C     0.4273617  0.30642  1.05222     C
H       0.4282  -0.0629   0.8747     H
O     0.4314313 0.5833314 0.6397614     O
O     0.4314313 0.9166714 0.1397614     O
Zn    0.434022 0.201402 0.119102    Zn
Zn    0.434022 0.201402 1.119102    Zn
Zn    0.434022 0.298602 0.619102    Zn
C     0.4363417 0.6579217 0.2327118     C
C     0.4363417 0.8420817 0.7327118     C
H       0.4371   0.6253   0.5718     H
C     0.4374117 0.4969517 0.0726517     C
C     0.4374117 1.0030517 0.5726517     C
H       0.4396   0.2038   0.2423     H
H       0.4396   0.2962   0.7423     H
H       0.4463  -0.1117      0.3     H
H       0.4463   0.6117      0.8     H
C     0.4469018  0.15072  0.51982     C
C     0.4469018  0.34932  1.01982     C
C      0.44782 -0.0726417  0.30642     C
C      0.44782 0.5726417  0.80642     C
H         0.45    0.078   0.3337     H
H         0.45    0.422   0.8337     H
C      0.45042 0.0388817 0.3271818     C
C      0.45042 0.4611217 0.8271818     C
H     0.451776 0.530476 0.383758     H
H       0.4524   0.6466    0.367     H
H       0.4524   0.8534    0.867     H
C     0.4533817 0.0024116 0.9150416     C
C     0.4533817 0.4975916 0.4150416     C
N      0.45395 -0.03675  0.87515     N
O     0.4554318 0.4974616 0.6603717     O
O     0.4554318 1.0025416 0.1603717     O
C     0.4575116 0.0870816 0.9955816     C
C     0.4575116 0.4129216 0.4955816     C
H        0.459   0.7388  -0.1017     H
H        0.459   0.7612   0.3983     H
C     0.4599118  0.13202  1.03812     C
C     0.4599118  0.36802  0.53812     C
C     0.4611217 0.6728218 -0.04962     C
C     0.4611217 0.8271818  0.45042     C
N     0.4615314 0.2271014 0.5821114     N
N     0.4615314 0.2729014 0.0821114     N
C      0.46162  0.65602  0.32962     C
C      0.46162  0.84402  0.82962     C
C      0.46192 0.5400918  0.63202     C
C      0.46192 0.9599118  0.13202     C
N      0.46335  0.62495  0.54615     N
H       0.4638   0.6507     0.52     H
H       0.4649   0.0923   0.4248     H
H       0.4649   0.4077   0.9248     H
H     0.469524 0.883758 0.0482243     H
C     0.4742916 0.5910816 0.0152217     C
C     0.4742916 0.9089216 0.5152217     C
C     0.4755218  0.18942 0.2340418     C
C     0.4755218  0.31062 0.7340418     C
H         0.48  -0.0362   0.8493     H
C      0.48022 -0.0531018  0.34932     C
C      0.48022 0.5531018  0.84932     C
C     0.4821516 0.0041216 0.3610016     C
C     0.4821516 0.4958816 0.8610016     C
C     0.4835118  0.71592 -0.08052     C
C     0.4835118  0.78412  0.41952     C
C     0.4847817 0.5257116 0.0910816     C
C     0.4847817 0.9742916 0.5910816     C
C      0.48842  0.67982 0.2225818     C
C      0.48842  0.82022 0.7225818     C
N     0.4884514 0.1792816 0.1804814     N
N     0.4884514 0.3207216 0.6804814     N
C     0.4955816 0.0424916 0.9129216     C
C     0.4955816 0.4575116 0.4129216     C
C     0.4958816 0.6390016 -0.0178516     C
C     0.4958816 0.8610016 0.4821516     C
C     0.4969517 0.0726517 0.4374117     C
C     0.4969517 0.4273517 0.9374117     C
O     0.4974616 0.6603717 0.4554318     O
O     0.4974616 0.8396317 -0.0445718     O
C     0.4975916 0.0849616 0.9533817     C
C     0.4975916 0.4150416 0.4533817     C
H       0.4987   0.4215   0.1288     H
H       0.4987   1.0785   0.6288     H
H       0.4993   0.6884   0.1855     H
H       0.4993   0.8116   0.6855     H
H       0.5007   0.1884   0.3145     H
H       0.5007   0.3116   0.8145     H
H       0.5013  -0.0785   0.3712     H
H       0.5013   0.5785   0.8712     H
C     0.5024116 0.5849616 0.5466217     C
C     0.5024116 0.9150416 0.0466217     C
O     0.5025416 0.1603717 1.0445718     O
O     0.5025416 0.3396317 0.5445718     O
C     0.5030517 0.5726517 0.0625917     C
C     0.5030517 0.9273517 0.5625917     C
C     0.5041216 0.1390016 0.5178516     C
C     0.5041216 0.3610016 1.0178516     C
C     0.5044216 0.5424916 0.5870816     C
C     0.5044216 0.9575116 0.0870816     C
N     0.5115514 0.6792816 0.3195214     N
N     0.5115514 0.8207216 0.8195214     N
C      0.51162  0.17982 0.2774218     C
C      0.51162  0.32022 0.7774218     C
C     0.5152217 0.0257116 0.4089216     C
C     0.5152217 0.4742916 0.9089216     C
C     0.5164918  0.21592  0.58052     C
C     0.5164918  0.28412  1.08052     C
C     0.5178516 0.5041216 0.1390016     C
C     0.5178516 0.9958816 0.6390016     C
C      0.51982 0.4469018  0.15072     C
C      0.51982 1.0531018  0.65072     C
C     0.5244818  0.68942 0.2659618     C
C     0.5244818  0.81062 0.7659618     C
C     0.5257116 0.0910816 0.4847817     C
C     0.5257116 0.4089216 0.9847817     C
H     0.530476 0.116242 0.951776     H
H     0.530476 0.383758 0.451776     H
H       0.5351   0.5923   0.0752     H
H       0.5351   0.9077   0.5752     H
C      0.53812 0.0400918  0.86802     C
C      0.53812 0.4599118  0.36802     C
C      0.53842  0.15602  0.17042     C
C      0.53842  0.34402  0.67042     C
N     0.5384714 0.7271014 -0.0821114     N
N     0.5384714 0.7729014 0.4178914     N
C     0.5388817 0.1728218  0.54962     C
C     0.5388817 0.3271818  1.04962     C
C     0.5400918  0.63202  0.46192     C
C     0.5400918  0.86802 -0.03812     C
H        0.541   0.2388   0.6017     H
H        0.541   0.2612   1.1017     H
C     0.5424916 0.5870816 0.5044216     C
C     0.5424916 0.9129216 0.0044216     C
O     0.5445718 -0.0025416 0.8396317     O
O     0.5445718 0.5025416 0.3396317     O
C     0.5466217 0.5024116 0.5849616     C
C     0.5466217 0.9975916 0.0849616     C
H       0.5476   0.1466    0.133     H
H       0.5476   0.3534    0.633     H
H     0.548224 0.469524 0.616242     H
H     0.548224  1.03048 0.116242     H
C      0.54962 0.5388817 0.1728218     C
C      0.54962 0.9611217 0.6728218     C
H         0.55    0.578   0.1663     H
H         0.55    0.922   0.6663     H
C      0.55222 0.4273617  0.19362     C
C      0.55222 1.0726417  0.69362     C
C     0.5531018  0.65072 -0.01982     C
C     0.5531018  0.84932  0.48022     C
H       0.5537   0.3883      0.2     H
H       0.5537   1.1117      0.7     H
H       0.5604   0.7038   0.2577     H
H       0.5604   0.7962   0.7577     H
C     0.5625917 -0.0030517 0.4273517     C
C     0.5625917 0.5030517 0.9273517     C
C     0.5636617 0.1579217 0.2672918     C
C     0.5636617 0.3420817 0.7672918     C
Zn    0.565982 0.701402 0.380902    Zn
Zn    0.565982 0.798602 -0.119102    Zn
Zn    0.565982 0.798602 0.880902    Zn
O     0.5685713 0.0833314 0.8602414     O
O     0.5685713 0.4166714 0.3602414     O
C     0.5726417  0.69362 -0.05222     C
C     0.5726417  0.80642  0.44782     C
C     0.5726517 0.0625917 0.5030517     C
C     0.5726517 0.4374117 1.0030517     C
H       0.5752  -0.0351   0.4077     H
H       0.5752   0.5351   0.9077     H
C      0.57702  0.14492  0.21192     C
C      0.57702  0.35512  0.71192     C
H        0.578   0.1663     0.55     H
H        0.578   0.3337     1.05     H
H       0.5785   0.6288   0.0013     H
H       0.5785   0.8712   0.5013     H
C      0.58052 0.5164918  0.21592     C
C      0.58052 0.9835118  0.71592     C
H       0.5815   0.2189    0.357     H
H       0.5815   0.2811    0.857     H
N     0.5821114 0.0384714 0.7271014     N
N     0.5821114 0.4615314 0.2271014     N
O     0.5833314 0.6397614 0.4314313     O
O     0.5833314 0.8602414 -0.0685713     O
C     0.5849616 0.5466217 0.5024116     C
C     0.5849616 0.9533817 0.0024116     C
C     0.5870816 0.5044216 0.5424916     C
C     0.5870816 0.9955816 0.0424916     C
C     0.5910816 0.0152217 0.4742916     C
C     0.5910816 0.4847817 0.9742916     C
H       0.5923   0.0752   0.5351     H
H       0.5923   0.4248   1.0351     H
H       0.6017    0.541   0.2388     H
H       0.6017    0.959   0.7388     H
C     0.6059318 0.1508117 0.3120617     C
C     0.6059318 0.3491917 0.8120617     C
C     0.6087918 0.1902118 0.3548918     C
C     0.6087918 0.3097918 0.8548918     C
O      0.60892 0.1806318  0.74262     O
O      0.60892 0.3193718  0.24262     O
H       0.6117      0.7  -0.0537     H
H       0.6117      0.8   0.4463     H
H       0.6121   0.1287    0.203     H
H       0.6121   0.3713    0.703     H
H     0.616242 0.548224 0.469524     H
Zn    0.619102 0.065982 0.798602    Zn
Zn    0.619102 0.434022 0.298602    Zn
Zn    0.619102 1.065982 -0.201402    Zn
Zn    0.619102 1.065982 0.798602    Zn
N      0.62495  0.95395 -0.03675     N
H       0.6253   0.9282  -0.0629     H
H       0.6287    0.203   0.8879     H
H       0.6287    0.297   0.3879     H
H       0.6288   0.0013   0.5785     H
H       0.6288   0.4987   1.0785     H
O     0.6316813 0.7063614 0.3333313     O
O     0.6316813 0.7936414 0.8333313     O
C      0.63202  0.46192 0.5400918     C
C      0.63202  1.03812 0.0400918     C
H        0.633   0.5476   0.3534     H
H        0.633   0.9524  -0.1466     H
C     0.6390016 -0.0178516 0.4958816     C
C     0.6390016 0.5178516 0.9958816     C
O     0.6397614 0.0685713 0.0833314     O
O     0.6397614 0.4314313 0.5833314     O
H       0.6415   0.6556   0.2721     H
H       0.6415   0.8444   0.7721     H
H        0.643   0.0815   0.2811     H
H        0.643   0.4185   0.7811     H
C      0.64492  0.21192  0.92302     C
C      0.64492  0.28812  0.42302     C
C     0.6451118 0.1087918 0.3097918     C
C     0.6451118 0.3912118 0.8097918     C
H       0.6466    0.133   0.9524     H
H       0.6466    0.367   0.4524     H
H       0.6491   0.2828   0.1776     H
H       0.6507     0.98  -0.0362     H
C      0.65072 -0.01982 0.5531018     C
C      0.65072  0.51982 1.0531018     C
C     0.6508117 0.1879417 0.3940718     C
C     0.6508117 0.3120617 0.8940718     C
N      0.65505  0.24455  0.18165     N
C     0.6551217 0.1741617  0.76452     C
C     0.6551217 0.3258417  0.26452     C
H       0.6556   0.2279   0.1415     H
C      0.65602  0.17042  0.96162     C
C      0.65602  0.32962  0.46162     C
C     0.6579217 0.2327118 0.4363417     C
C     0.6579217 0.2672918 0.9363417     C
O     0.6603717 0.4554318 0.4974616     O
O     0.6603717 1.0445718 -0.0025416     O
H     0.664131 0.257679 0.689372     H
H       0.6663    -0.05    0.422     H
H       0.6663     0.55    0.922     H
O     0.6666713 0.1316813 0.7936414     O
O     0.6666713 0.3683213 0.2936414     O
C      0.67042  0.53842  0.34402     C
C      0.67042  0.96162 -0.15602     C
C     0.6728218 -0.04962 0.4611217     C
C     0.6728218  0.54962 0.9611217     C
C     0.6741617  0.73552 0.3448817     C
C     0.6741617  0.76452 0.8448817     C
H       0.6776   0.6491   0.2172     H
H       0.6776   0.8509   0.7172     H
N     0.6792816 0.1804814 0.0115514     N
N     0.6792816 0.3195214 0.5115514     N
C      0.67982 0.2225818  0.48842     C
C      0.67982 0.2774218  0.98842     C
N     0.6804814 0.0115514 0.8207216     N
N     0.6804814 0.4884514 0.3207216     N
O     0.6806318  0.74262  0.89112     O
O     0.6806318  0.75742  0.39112     O
N      0.68165  0.65505  0.25555     N
N      0.68165  0.84505  0.75555     N
H       0.6855   0.0007   0.3116     H
H       0.6855   0.4993   0.8116     H
C     0.6879417 0.1059318 0.3491917     C
C     0.6879417 0.3940718 0.8491917     C
H       0.6884   0.1855   0.4993     H
H       0.6884   0.3145   0.9993     H
C      0.68942 0.2340418 1.0244818     C
C      0.68942 0.2659618 0.5244818     C
C     0.6902118 0.1451118 0.3912118     C
C     0.6902118 0.3548918 0.8912118     C
C      0.69362 -0.05222 0.5726417     C
C      0.69362  0.55222 1.0726417     C
C     0.6967916 0.2406816 0.2208917     C
C     0.6967916 0.2593216 0.7208917     C
C     0.6985316 0.2190616 0.7632117     C
C     0.6985316 0.2809416 0.2632117     C
H          0.7  -0.0537   0.6117     H
H          0.7   0.5537   1.1117     H
Zn    0.701402 0.119102 0.065982    Zn
Zn    0.701402 0.119102 1.065982    Zn
Zn    0.701402 0.380902 0.565982    Zn
Zn    0.701402 1.119102 0.065982    Zn
H        0.703   0.6121   0.3713     H
H        0.703   0.8879  -0.1287     H
H       0.7038   0.2423   1.0604     H
H       0.7038   0.2577   0.5604     H
O     0.7063614 0.1666713 0.1316813     O
O     0.7063614 0.3333313 0.6316813     O
C      0.71192  0.57702  0.35512     C
C      0.71192  0.92302 -0.14492     C
C      0.71592 -0.08052 0.4835118     C
C      0.71592  0.58052 0.9835118     C
H       0.7189    0.143   0.4185     H
H       0.7189    0.357   0.9185     H
C     0.7190616 0.7367917 0.3014716     C
C     0.7190616 0.7632117 0.8014716     C
C     0.7208917 0.6967916 0.2593216     C
C     0.7208917 0.8032116 0.7593216     C
C     0.7225818  0.01162  0.32022     C
C     0.7225818  0.48842  0.82022     C
N     0.7271014 -0.0821114 0.5384714     N
N     0.7271014 0.5821114 0.0384714     N
C     0.7327118 0.0636617 0.3420817     C
C     0.7327118 0.4363417 0.8420817     C
C     0.7340418 0.4755218  0.31062     C
C     0.7340418 1.0244818 -0.18942     C
C      0.73552 0.1551217 0.1741617     C
C      0.73552 0.3448817 0.6741617     C
C     0.7367917 0.1985316 0.2190616     C
C     0.7367917 0.3014716 0.7190616     C
H       0.7388  -0.1017    0.459     H
H       0.7388   0.6017    0.959     H
C     0.7406816 0.2208917 0.8032116     C
C     0.7406816 0.2791117 0.3032116     C
H       0.7423   0.4396   0.2962     H
H       0.7423   1.0604  -0.2038     H
H     0.742321 0.189372 0.835869     H
H     0.742321 0.310628 0.335869     H
O      0.74262  0.60892 0.1806318     O
O      0.74262  0.89112 0.6806318     O
O      0.75742  0.10892 0.1806318     O
O      0.75742  0.39112 0.6806318     O
H     0.757679 0.689372 0.835869     H
H     0.757679 0.810628 0.335869     H
H       0.7577  -0.0604   0.2962     H
H       0.7577   0.5604   0.7962     H
C     0.7593216 0.7208917 0.8032116     C
C     0.7593216 0.7791117 0.3032116     C
H       0.7612   0.1017   -0.041     H
H       0.7612   0.3983    0.459     H
C     0.7632117 0.6985316 0.2190616     C
C     0.7632117 0.8014716 0.7190616     C
C      0.76452 0.6551217 0.1741617     C
C      0.76452 0.8448817 0.6741617     C
C     0.7659618 -0.0244818  0.31062     C
C     0.7659618 0.5244818  0.81062     C
C     0.7672918 0.5636617 0.3420817     C
C     0.7672918 0.9363417 -0.1579217     C
N     0.7729014 0.0821114 0.0384714     N
N     0.7729014 0.4178914 0.5384714     N
C     0.7774218  0.51162  0.32022     C
C     0.7774218  0.98842 -0.17982     C
C     0.7791117 0.1967916 0.2593216     C
C     0.7791117 0.3032116 0.7593216     C
C     0.7809416 0.2367917 0.3014716     C
C     0.7809416 0.2632117 0.8014716     C
H       0.7811    0.643   0.4185     H
H       0.7811    0.857  -0.0815     H
C      0.78412  0.08052 -0.0164918     C
C      0.78412  0.41952 0.4835118     C
C      0.78812  0.07702  0.35512     C
C      0.78812  0.42302  0.85512     C
O     0.7936414 0.6666713 0.1316813     O
O     0.7936414 0.8333313 0.6316813     O
H       0.7962   0.7423   0.0604     H
H       0.7962   0.7577   0.5604     H
H        0.797   0.1121   0.3713     H
H        0.797   0.3879   0.8713     H
Zn    0.798602 -0.119102 0.565982    Zn
Zn    0.798602 0.619102 0.065982    Zn
Zn    0.798602 0.619102 1.065982    Zn
Zn    0.798602 0.880902 0.565982    Zn
H          0.8   0.0537   0.1117     H
H          0.8   0.4463   0.6117     H
C     0.8014716 0.7190616 0.7632117     C
C     0.8014716 0.7809416 0.2632117     C
C     0.8032116 0.7406816 0.2208917     C
C     0.8032116 0.7593216 0.7208917     C
C      0.80642  0.05222 0.0726417     C
C      0.80642  0.44782 0.5726417     C
C     0.8097918 0.6451118 0.3912118     C
C     0.8097918 0.8548918 -0.1087918     C
C      0.81062 0.7340418 0.0244818     C
C      0.81062 0.7659618 0.5244818     C
H     0.810628 0.164131 0.257679     H
H       0.8116   0.6855   0.4993     H
H       0.8116   0.8145  -0.0007     H
C     0.8120617 0.6059318 0.3491917     C
C     0.8120617 0.8940718 -0.1508117     C
H       0.8145   0.5007   0.3116     H
H       0.8145   0.9993  -0.1884     H
N      0.81845  0.34505  0.75555     N
O     0.8193718  0.24262  0.89112     O
O     0.8193718  0.25742  0.39112     O
N     0.8195214 -0.0115514 0.3207216     N
N     0.8195214 0.5115514 0.8207216     N
C      0.82022 0.7225818  0.48842     C
C      0.82022 0.7774218 -0.01162     C
N     0.8207216 0.6804814 0.0115514     N
N     0.8207216 0.8195214 0.5115514     N
H       0.8224   0.3509   0.7172     H
C     0.8258417  0.23552 0.3448817     C
C     0.8258417  0.26452 0.8448817     C
C     0.8271818  0.04962 -0.0388817     C
C     0.8271818  0.45042 0.4611217     C
C      0.82962  0.03842  0.34402     C
C      0.82962  0.46162  0.84402     C
O     0.8333313 0.6316813 0.7936414     O
O     0.8333313 0.8683213 0.2936414     O
H       0.8337     0.05   -0.078     H
H       0.8337     0.45    0.422     H
H     0.835869 0.742321 0.189372     H
H     0.835869 0.757679 0.689372     H
O     0.8396317 -0.0445718 0.4974616     O
O     0.8396317 0.5445718 -0.0025416     O
C     0.8420817 0.7327118 0.4363417     C
C     0.8420817 0.7672918 -0.0636617     C
C      0.84402  0.67042 -0.03842     C
C      0.84402  0.82962  0.46162     C
C     0.8448817 0.6741617  0.76452     C
C     0.8448817 0.8258417  0.26452     C
C     0.8491917 0.6879417 0.3940718     C
C     0.8491917 0.8120617 -0.1059318     C
C      0.84932  0.01982 0.0531018     C
C      0.84932  0.48022 0.5531018     C
H       0.8534    0.633  -0.0476     H
H       0.8534    0.867   0.4524     H
C     0.8548918 0.6087918 0.3097918     C
C     0.8548918 0.8912118 -0.1902118     C
C      0.85512  0.71192 -0.07702     C
C      0.85512  0.78812  0.42302     C
H        0.857   0.5815   0.2811     H
H        0.857   0.9185  -0.2189     H
H       0.8585   0.3444   0.7721     H
O     0.8602414 -0.0685713 0.5833314     O
O     0.8602414 0.5685713 0.0833314     O
C     0.8610016 0.0178516 -0.0041216     C
C     0.8610016 0.4821516 0.4958816     C
H        0.867   0.0476   0.3534     H
H        0.867   0.4524   0.8534     H
C      0.86802 -0.03812 0.5400918     C
C      0.86802  0.53812 0.0400918     C
O     0.8683213 0.2063614 0.3333313     O
O     0.8683213 0.2936414 0.8333313     O
H       0.8712  -0.0013   0.0785     H
H       0.8712   0.5013   0.5785     H
H       0.8713    0.703  -0.1121     H
H       0.8713    0.797   0.3879     H
Zn    0.880902 -0.065982 0.298602    Zn
Zn    0.880902 0.565982 0.798602    Zn
Zn    0.880902 0.934022 0.298602    Zn
H     0.883758 0.0482243 0.469524     H
H     0.883758 0.451776 -0.0304765     H
H       0.8879   0.6287    0.203     H
H       0.8879   0.8713   -0.297     H
O      0.89112 0.6806318  0.74262     O
O      0.89112 0.8193718  0.24262     O
C     0.8912118 0.6902118 0.3548918     C
C     0.8912118 0.8097918 -0.1451118     C
C     0.8940718 0.6508117 0.3120617     C
C     0.8940718 0.8491917 -0.1879417     C
H       0.9077  -0.0752   0.0351     H
H       0.9077   0.5752   0.5351     H
C     0.9089216 -0.0152217 -0.0257116     C
C     0.9089216 0.5152217 0.4742916     C
C     0.9129216 0.0044216 0.5424916     C
C     0.9129216 0.4955816 0.0424916     C
C     0.9150416 0.0466217 0.5024116     C
C     0.9150416 0.4533817 0.0024116     C
O     0.9166714 0.1397614 0.4314313     O
O     0.9166714 0.3602414 -0.0685713     O
H       0.9185   0.7189    0.357     H
H       0.9185   0.7811   -0.143     H
H        0.922  -0.1663     0.05     H
H        0.922   0.6663     0.55     H
C      0.92302  0.64492  0.21192     C
C      0.92302  0.85512 -0.28812     C
H       0.9248   0.0351  -0.0923     H
H       0.9248   0.4649   0.4077     H
C     0.9273517 -0.0625917 0.0030517     C
C     0.9273517 0.5625917 0.5030517     C
H       0.9282  -0.0629   0.6253     H
Zn    0.934022 0.201402 0.380902    Zn
Zn    0.934022 0.298602 -0.119102    Zn
Zn    0.934022 0.298602 0.880902    Zn
C     0.9363417 0.6579217 0.2672918     C
C     0.9363417 0.8420817 -0.2327118     C
C     0.9374117 0.0030517 -0.0726517     C
C     0.9374117 0.4969517 0.4273517     C
H     0.951776 0.530476 0.116242     H
H       0.9524   0.6466    0.133     H
H       0.9524   0.8534   -0.367     H
C     0.9533817 0.0024116 0.5849616     C
C     0.9533817 0.4975916 0.0849616     C
N      0.95395 -0.03675  0.62495     N
C     0.9575116 0.0870816 0.5044216     C
C     0.9575116 0.4129216 0.0044216     C
H        0.959  -0.2388   0.1017     H
H        0.959   0.7388   0.6017     H
C     0.9599118  0.13202  0.46192     C
C     0.9599118  0.36802 -0.03812     C
C     0.9611217 -0.1728218  0.04962     C
C     0.9611217 0.6728218  0.54962     C
C      0.96162  0.65602  0.17042     C
C      0.96162  0.84402 -0.32962     C
C     0.9742916 -0.0910816 -0.0152217     C
C     0.9742916 0.5910816 0.4847817     C
H         0.98  -0.0362   0.6507     H
C     0.9835118 -0.21592  0.08052     C
C     0.9835118  0.71592  0.58052     C
C     0.9847817 -0.0257116 -0.0910816     C
C     0.9847817 0.5257116 0.4089216     C
C      0.98842  0.67982 0.2774218     C
C      0.98842  0.82022 -0.2225818     C
C     0.9955816 0.0424916 0.5870816     C
C     0.9955816 0.4575116 0.0870816     C
C     0.9958816 -0.1390016 0.0178516     C
C     0.9958816 0.6390016 0.5178516     C
C     0.9975916 0.0849616 0.5466217     C
C     0.9975916 0.4150416 0.0466217     C
H       0.9987   0.0785  -0.1288     H
H       0.9987   0.4215   0.3712     H
H       0.9993   0.6884   0.3145     H
H       0.9993   0.8116  -0.1855     H
O     1.0025416 0.1603717 0.4554318     O
O     1.0025416 0.3396317 -0.0445718     O
C     1.0030517 -0.0726517 -0.0625917     C
C     1.0030517 0.5726517 0.4374117     C
C     1.0178516 -0.0041216 -0.1390016     C
C     1.0178516 0.5041216 0.3610016     C
C      1.01982 0.0531018 -0.15072     C
C      1.01982 0.4469018  0.34932     C
C     1.0244818  0.68942 0.2340418     C
C     1.0244818  0.81062 -0.2659618     C
H      1.03048 0.116242 0.548224     H
H       1.0351  -0.0923  -0.0752     H
H       1.0351   0.5923   0.4248     H
H       1.0362   0.3493     0.02     H
N      1.03675  0.37515  0.04615     N
C      1.03812 0.0400918  0.63202     C
C      1.03812 0.4599118  0.13202     C
O     1.0445718 -0.0025416 0.6603717     O
O     1.0445718 0.5025416 0.1603717     O
C      1.04962 -0.0388817 -0.1728218     C
C      1.04962 0.5388817 0.3271818     C
H         1.05   -0.078  -0.1663     H
H         1.05    0.578   0.3337     H
C      1.05222 0.0726417 -0.19362     C
C      1.05222 0.4273617  0.30642     C
C     1.0531018 -0.15072  0.01982     C
C     1.0531018  0.65072  0.51982     C
H       1.0537   0.1117     -0.2     H
H       1.0537   0.3883      0.3     H
H       1.0604   0.7038   0.2423     H
H       1.0604   0.7962  -0.2577     H
H       1.0629   0.3747   0.0718     H
Zn    1.065982 -0.298602 0.119102    Zn
Zn    1.065982 0.701402 0.119102    Zn
Zn    1.065982 0.798602 -0.380902    Zn
Zn    1.065982 0.798602 0.619102    Zn
C     1.0726417 -0.19362  0.05222     C
C     1.0726417  0.69362  0.55222     C
H       1.0785  -0.1288  -0.0013     H
H       1.0785   0.6288   0.4987     H
C      1.08052 -0.0164918 -0.21592     C
C      1.08052 0.5164918  0.28412     C
H       1.1017   -0.041  -0.2388     H
H       1.1017    0.541   0.2612     H
H       1.1117     -0.2   0.0537     H
H       1.1117      0.7   0.5537     H
Zn    1.119102 0.065982 -0.298602    Zn
Zn    1.119102 0.065982 0.701402    Zn
Zn    1.119102 0.434022 0.201402    Zn
