data_I
_chemical_name_common  'val_11'
_cell_length_a 29.11634
_cell_length_b 16.35032
_cell_length_c 42.86257
_cell_angle_alpha 90.00000
_cell_angle_beta  96.74931
_cell_angle_gamma 90.00000
_space_group_name_H-M_alt      'P 1'


loop_
_space_group_symop_operation_xyz
  'x, y, z' 

loop_
_atom_site_label
_atom_site_fract_x
_atom_site_fract_y
_atom_site_fract_z
_atom_site_type_symbol
C      0.00484  0.45298  0.04782     C
C      0.00484  0.54718  0.54782     C
C     0.0102216  0.12544 0.6898014     C
C     0.0102216  0.87464 0.1898014     C
H       0.0105    0.129   0.6423     H
H       0.0105    0.871   0.1423     H
H       0.0143   0.0222   0.3043     H
H       0.0143   0.9778   0.8043     H
O      0.01582  0.38157 0.0476314     O
O      0.01582  0.61857 0.5476314     O
O      0.02712  0.05215  0.12822     O
O      0.02712  0.94795  0.62822     O
H       0.0272   0.1171    0.736     H
H       0.0272   0.8829    0.236     H
H       0.0278   0.3979     0.96     H
H       0.0278   0.6021     0.46     H
C      0.02922  0.12677 0.6614317     C
C      0.02922  0.87337 0.1614317     C
O      0.03154  0.49088  0.56442     O
O      0.03154  0.50928  0.06442     O
Zn    0.035913 0.060536 0.360473    Zn
Zn    0.035913 0.939476 0.860473    Zn
C      0.03664  0.48117 0.4710316     C
C      0.03664  0.51897 0.9710316     C
C      0.03922  0.12211 0.7169717     C
C      0.03922  0.87791 0.2169717     C
C     0.0402916  0.12644 0.8095213     C
C     0.0402916  0.87364 0.3095213     C
N     0.0425817  0.02444 0.3146918     N
N     0.0425817  0.97564 0.8146918     N
H       0.0456   0.1886   0.0414     H
H       0.0456   0.8114   0.5414     H
O      0.04594  0.06907  0.92402     O
O      0.04594  0.93107  0.42402     O
C      0.04774  0.43397 0.9716517     C
C      0.04774  0.56617 0.4716517     C
H       0.0484   0.2506    0.808     H
H       0.0484   0.7494    0.308     H
O      0.05324  0.10667  0.17484     O
O      0.05324  0.89347  0.67484     O
H       0.0559   0.3719   0.4881     H
H       0.0559   0.6281   0.9881     H
H       0.0577   0.0639   0.3059     H
H       0.0577   0.9361   0.8059     H
C      0.05824  0.07995  0.14844     C
C      0.05824  0.92015  0.64844     C
O      0.05884  0.17767  0.41524     O
O      0.05884  0.82247  0.91524     O
O      0.06362  0.17357  0.02922     O
O      0.06362  0.82657  0.52922     O
C      0.06394  0.42708  0.48792     C
C      0.06394  0.57308  0.98792     C
C     0.0641416  0.20154 0.8066112     C
C     0.0641416  0.79854 0.3066112     C
O      0.06492  0.16574 0.3639717     O
O      0.06492  0.83434 0.8639717     O
C     0.0652916  0.05194 0.8092916     C
C     0.0652916  0.94814 0.3092916     C
Zn    0.070434 0.341848 0.073112    Zn
Zn    0.070434 0.658168 0.573112    Zn
C      0.07135  0.20167  0.38994     C
C      0.07135  0.79847  0.88994     C
C      0.07342  0.07455  0.90282     C
C      0.07342  0.92555  0.40282     C
H        0.074   0.2095   0.9356     H
H        0.074   0.7905   0.4356     H
C      0.07582  0.12457 0.6625816     C
C      0.07582  0.87557 0.1625816     C
O     0.0780716  0.01894 0.8818514     O
O     0.0780716  0.98114 0.3818514     O
C      0.08652  0.12619 0.7164416     C
C      0.08652  0.87399 0.2164416     C
C      0.08754  0.40247 0.9891517     C
C      0.08754  0.59767 0.4891517     C
H       0.0878   0.0431    0.092     H
H       0.0878   0.9569    0.592     H
H       0.0887   0.1233   0.6437     H
H       0.0887   0.8767   0.1437     H
H       0.0919   0.3129   0.4359     H
H       0.0919   0.6871   0.9359     H
H        0.094   0.3467   0.9899     H
H        0.094   0.6533   0.4899     H
C      0.09712  0.21135 0.9223317     C
C      0.09712  0.78875 0.4223317     C
C      0.10122  0.20257 0.0368916     C
C      0.10122  0.79757 0.5368916     C
C      0.10275  0.27787  0.39464     C
C      0.10275  0.72227  0.89464     C
C     0.1029617  0.14714 0.9036014     C
C     0.1029617  0.85294 0.4036014     C
H       0.1052   0.1307   0.7355     H
H       0.1052   0.8693   0.2355     H
C      0.10602  0.45597  0.50592     C
C      0.10602  0.54417  0.00592     C
C     0.1061516  0.12404 0.6910512     C
C     0.1061516  0.87604 0.1910512     C
H       0.1067   0.1247   0.9854     H
H       0.1067   0.8753   0.4854     H
C      0.10674  0.07865  0.14014     C
C      0.10674  0.92145  0.64014     C
H       0.1075   0.3398    0.835     H
H       0.1075   0.6602    0.335     H
H       0.1092    0.483   0.0631     H
H       0.1092    0.517   0.5631     H
C      0.10927  0.32537  0.41974     C
C      0.10927  0.67477  0.91974     C
O     0.1093116  0.26154 0.0567512     O
O     0.1093116  0.73854 0.5567512     O
C     0.1104317  0.20274 0.8017111     C
C     0.1104317  0.79734 0.3017111     C
C     0.1121116  0.05534 0.8050813     C
C     0.1121116  0.94474 0.3050813     C
C      0.11294  0.05528  0.10674     C
C      0.11294  0.94488  0.60674     C
C      0.11712  0.46077 0.0055614     C
C      0.11712  0.53937 0.5055614     C
H         0.12   0.2723   0.3506     H
H         0.12   0.7277   0.8506     H
H        0.121   0.3245   0.9354     H
H        0.121   0.6755   0.4354     H
N      0.12312  0.43925 0.0721712     N
N      0.12312  0.56085 0.5721712     N
C      0.12432  0.30184  0.36922     C
C      0.12432  0.69824  0.86922     C
C      0.12522  0.28064 0.9221916     C
C      0.12522  0.71944 0.4221916     C
H       0.1255   0.4193   0.5176     H
H       0.1255   0.5807   0.0176     H
C     0.1294617  0.34564 0.8210512     C
C     0.1294617  0.65444 0.3210512     C
H       0.1329   0.4527   0.0919     H
H       0.1329   0.5473   0.5919     H
C     0.1338116  0.12964 0.8010511     C
C     0.1338116  0.87044 0.3010511     C
C     0.1355616  0.28254 0.8003611     C
C     0.1355616  0.71754 0.3003611     C
H       0.1363   0.0496   0.3508     H
H       0.1363   0.9504   0.8508     H
C      0.13664  0.13655 0.9942717     C
C      0.13664  0.86355 0.4942717     C
C      0.13667  0.38638  0.42414     C
C      0.13667  0.61378  0.92414     C
H       0.1369   0.4387   0.9099     H
H       0.1369   0.5613   0.4099     H
C     0.1391018  0.14894 0.8836313     C
C     0.1391018  0.85114 0.3836313     C
H       0.1395   0.1256   0.1758     H
H       0.1395   0.8744   0.6758     H
C     0.1404416  0.02154 0.3055013     C
C     0.1404416  0.97854 0.8055013     C
H       0.1407   0.4118   0.4436     H
H       0.1407   0.5882   0.9436     H
C      0.14322  0.17705 0.0215316     C
C      0.14322  0.82305 0.5215316     C
C      0.14324  0.10038  0.15694     C
C      0.14324  0.89978  0.65694     C
H       0.1444   0.1042   0.8712     H
H       0.1444   0.8958   0.3712     H
C      0.14952  0.06624 0.3331416     C
C      0.14952  0.93384 0.8331416     C
H       0.1516   0.4574   0.8364     H
H       0.1516   0.5426   0.3364     H
C      0.15234  0.36974  0.37162     C
C      0.15234  0.63034  0.87162     C
C     0.1551916  0.41724 0.8215611     C
C     0.1551916  0.58284 0.3215611     C
C     0.1572316  0.12344 0.6914613     C
C     0.1572316  0.87664 0.1914613     C
C      0.15784  0.05297  0.09934     C
C      0.15784  0.94717  0.59934     C
C     0.1585317  0.28344 0.9026211     C
C     0.1585317  0.71664 0.4026211     C
C      0.16044  0.41504  0.39982     C
C      0.16044  0.58504  0.89982     C
H       0.1608   0.2955   0.1067     H
H       0.1608   0.7045   0.6067     H
C      0.16142  0.43325 0.0238614     C
C      0.16142  0.56685 0.5238614     C
H       0.1625   0.0373   0.0791     H
H       0.1625   0.9627   0.5791     H
H       0.1627   0.0108   0.2625     H
H       0.1627   0.9892   0.7625     H
C      0.16302  0.42164 0.0565513     C
C      0.16302  0.57844 0.5565513     C
C      0.16434  0.04444 0.2801216     C
C      0.16434  0.95564 0.7801216     C
H       0.1648     0.13   0.7978     H
H       0.1648     0.87   0.2978     H
C     0.1659417  0.21894 0.8833211     C
C     0.1659417  0.78114 0.3833211     C
H       0.1663   0.3863   0.3543     H
H       0.1663   0.6137   0.8543     H
H       0.1668   0.2709   0.1595     H
H       0.1668   0.7291   0.6595     H
C      0.16682  0.43694 0.9044516     C
C      0.16682  0.56314 0.4044516     C
C     0.1697418  0.29164 0.7799713     C
C     0.1697418  0.70844 0.2799713     C
H       0.1705    0.082   0.9596     H
H       0.1705    0.918   0.4596     H
O     0.1732812  0.11704 0.665181     O
O     0.1732812  0.88304 0.165181     O
C      0.17512  0.11085 0.9783916     C
C      0.17512  0.88925 0.4783916     C
H       0.1757   0.2486   0.7668     H
H       0.1757   0.7514   0.2668     H
C      0.17822  0.13634 0.3350616     C
C      0.17822  0.86374 0.8350616     C
O     0.1804813  0.12674 0.7176211     O
O     0.1804813  0.87334 0.2176211     O
C      0.18212  0.32534 0.1200316     C
C      0.18212  0.67474 0.6200316     C
H        0.185   0.1645   0.3539     H
H        0.185   0.8355   0.8539     H
C      0.18532  0.31045 0.1515716     C
C      0.18532  0.68965 0.6515716     C
O      0.18622  0.31309 0.2182214     O
O      0.18622  0.68709 0.7182214     O
C      0.18632  0.36144 0.9000413     C
C      0.18632  0.63864 0.4000413     C
C     0.1864016  0.42864 0.7997013     C
C     0.1864016  0.57144 0.2997013     C
C      0.18752  0.19425 0.0350713     C
C      0.18752  0.80585 0.5350713     C
H       0.1889   0.2222     0.87     H
H       0.1889   0.7778     0.37     H
C      0.18894  0.09027  0.14992     C
C      0.18894  0.90987  0.64992     C
C      0.18962  0.11414 0.2806516     C
C      0.18962  0.88594 0.7806516     C
C      0.18984  0.48974 0.4011616     C
C      0.18984  0.51034 0.9011616     C
H       0.1917   0.2203   0.0545     H
H       0.1917   0.7797   0.5545     H
C      0.19422  0.36284 0.7792114     C
C      0.19422  0.63724 0.2792114     C
C      0.19442  0.07164  0.11932     C
C      0.19442  0.92844  0.61932     C
C     0.1961317  0.16204 0.3077014     C
C     0.1961317  0.83804 0.8077014     C
H       0.1973    0.422   0.9866     H
H       0.1973    0.578   0.4866     H
C      0.19982  0.41604 0.0082813     C
C      0.19982  0.58404 0.5082813     C
H       0.2026     0.13   0.2628     H
H       0.2026     0.87   0.7628     H
C      0.20452  0.39725 0.0732613     C
C      0.20452  0.60285 0.5732613     C
C     0.2084818  0.38114 0.1073113     C
C     0.2084818  0.61894 0.6073113     C
H       0.2102   0.0747   0.6004     H
H       0.2102   0.9253   0.1004     H
C     0.2139217  0.49524 0.3004914     C
C     0.2139217  0.50484 0.8004914     C
H       0.2141   0.0958   0.1653     H
H       0.2141   0.9042   0.6653     H
H       0.2162   0.3682   0.7652     H
H       0.2162   0.6318   0.2652     H
C     0.2174418  0.35634 0.1719612     C
C     0.2174418  0.64374 0.6719612     C
C      0.21912  0.13074 0.9921613     C
C      0.21912  0.86934 0.4921613     C
C      0.22012  0.34435 0.2067714     C
C      0.22012  0.65575 0.7067714     C
O     0.2218214  0.45694 0.325259     O
O     0.2218214  0.54314 0.825259     O
C      0.22372  0.23694 0.3092616     C
C      0.22372  0.76314 0.8092616     C
C      0.22492  0.17425 0.0208813     C
C      0.22492  0.82585 0.5208813     C
O      0.22972  0.47474 0.2755911     O
O      0.22972  0.52534 0.7755911     O
H       0.2306   0.1404   0.9315     H
H       0.2306   0.8596   0.4315     H
O      0.23132  0.27164 0.3357112     O
O      0.23132  0.72844 0.8357112     O
C      0.23262  0.36274 0.8930316     C
C      0.23262  0.63734 0.3930316     C
H        0.234   0.0572   0.8267     H
H        0.234   0.9428   0.3267     H
C      0.23454  0.49095 0.3941714     C
C      0.23454  0.50915 0.8941714     C
Zn    0.234732 0.126515 0.654102    Zn
Zn    0.234732 0.873495 0.154102    Zn
O      0.23762  0.26254 0.2841812     O
O      0.23762  0.73754 0.7841812     O
N      0.23892  0.08344 0.6094611     N
N      0.23892  0.91664 0.1094611     N
C      0.24052  0.42744 0.1273016     C
C      0.24052  0.57264 0.6273016     C
H       0.2413   0.0332    0.881     H
H       0.2413   0.9668    0.381     H
C      0.24202  0.38984 0.0245213     C
C      0.24202  0.61024 0.5245213     C
C      0.24252  0.37944 0.0570712     C
C      0.24252  0.62064 0.5570712     C
C      0.24332  0.06794 0.1096016     C
C      0.24332  0.93214 0.6096016     C
O     0.2442514  0.13064 0.777308     O
O     0.2442514  0.86944 0.277308     O
C     0.2446718  0.41324 0.1599413     C
C     0.2446718  0.58684 0.6599413     C
H       0.2457   0.3111   0.9701     H
H       0.2457   0.6889   0.4701     H
Zn    0.246072 0.132794 0.732482    Zn
Zn    0.246072 0.867214 0.232482    Zn
H       0.2471   0.3131   0.8901     H
H       0.2471   0.6869   0.3901     H
H       0.2492   0.3771   0.4014     H
H       0.2492   0.6229   0.9014     H
H       0.2508   0.1229   0.5986     H
H       0.2508   0.8771   0.0986     H
H       0.2529   0.1869   0.1099     H
H       0.2529   0.8131   0.6099     H
Zn    0.253932 0.367214 0.267522    Zn
Zn    0.253932 0.632794 0.767522    Zn
H       0.2543   0.1889   0.0299     H
H       0.2543   0.8111   0.5299     H
C     0.2553318  0.08684 0.8400613     C
C     0.2553318  0.91324 0.3400613     C
O     0.2557514  0.36944 0.222708     O
O     0.2557514  0.63064 0.722708     O
C      0.25672  0.43214 0.8904016     C
C      0.25672  0.56794 0.3904016     C
C      0.25752  0.12064 0.9429312     C
C      0.25752  0.87944 0.4429312     C
C      0.25802  0.11024 0.9754813     C
C      0.25802  0.88984 0.4754813     C
H       0.2587   0.4668    0.119     H
H       0.2587   0.5332    0.619     H
C      0.25952  0.07264 0.8727016     C
C      0.25952  0.92744 0.3727016     C
N      0.26112  0.41664 0.3905411     N
N      0.26112  0.58344 0.8905411     N
O      0.26242  0.23754 0.7158212     O
O      0.26242  0.76254 0.2158212     O
Zn    0.265272 0.373495 0.345902    Zn
Zn    0.265272 0.626515 0.845902    Zn
C      0.26554  0.00915 0.6058314     C
C      0.26554  0.99095 0.1058314     C
H        0.266   0.4428   0.1733     H
H        0.266   0.5572   0.6733     H
C      0.26742  0.13734 0.1069716     C
C      0.26742  0.86274 0.6069716     C
O      0.26872  0.22844 0.6642912     O
O      0.26872  0.77164 0.1642912     O
H       0.2694   0.3596   0.0685     H
H       0.2694   0.6404   0.5685     H
O      0.27032  0.02534 0.7244111     O
O      0.27032  0.97474 0.2244111     O
C      0.27512  0.32585 0.9791213     C
C      0.27512  0.67425 0.4791213     C
C      0.27632  0.26314 0.6907416     C
C      0.27632  0.73694 0.1907416     C
O     0.2781814  0.04314 0.674759     O
O     0.2781814  0.95694 0.174759     O
C      0.27992  0.15575 0.7932314     C
C      0.27992  0.84435 0.2932314     C
C      0.28092  0.36934 0.0078413     C
C      0.28092  0.63074 0.5078413     C
C     0.2825618  0.14374 0.8280412     C
C     0.2825618  0.85634 0.3280412     C
H       0.2838   0.1318   0.2348     H
H       0.2838   0.8682   0.7348     H
H       0.2859   0.4042   0.8347     H
H       0.2859   0.5958   0.3347     H
C     0.2860817  0.00484 0.6995114     C
C     0.2860817  0.99524 0.1995114     C
H       0.2898   0.4253   0.3996     H
H       0.2898   0.5747   0.8996     H
C     0.2915218  0.11894 0.8926913     C
C     0.2915218  0.88114 0.3926913     C
C      0.29552  0.10285 0.9267413     C
C      0.29552  0.89725 0.4267413     C
H       0.2974     0.37   0.7372     H
H       0.2974     0.63   0.2372     H
C      0.30022  0.08404 0.9917213     C
C      0.30022  0.91604 0.4917213     C
H       0.3027    0.078   0.0134     H
H       0.3027    0.922   0.5134     H
C     0.3038717  0.33804 0.6923014     C
C     0.3038717  0.66204 0.1923014     C
C      0.30562  0.42844  0.88072     C
C      0.30562  0.57164  0.38072     C
C      0.30582  0.13724 0.2207914     C
C      0.30582  0.86284 0.7207914     C
H       0.3083   0.2797   0.9455     H
H       0.3083   0.7203   0.4455     H
C      0.31024  0.01034 0.5988416     C
C      0.31024  0.98974 0.0988416     C
C      0.31042  0.38594 0.7193516     C
C      0.31042  0.61414 0.2193516     C
H       0.3111   0.2778     0.13     H
H       0.3111   0.7222     0.63     H
C      0.31114  0.40987  0.85012     C
C      0.31114  0.59027  0.35012     C
C      0.31252  0.30585 0.9649313     C
C      0.31252  0.69425 0.4649313     C
C     0.3136016  0.07144 0.2003013     C
C     0.3136016  0.92864 0.7003013     C
C      0.31372  0.13864 0.0999613     C
C      0.31372  0.86144 0.5999613     C
O      0.31382  0.18709 0.7817814     O
O      0.31382  0.81309 0.2817814     O
C      0.31472  0.18965 0.8484316     C
C      0.31472  0.81045 0.3484316     C
H        0.315   0.3355   0.6461     H
H        0.315   0.6645   0.1461     H
C      0.31792  0.17474 0.8799716     C
C      0.31792  0.82534 0.3799716     C
O     0.3195213  0.37334 0.2823811     O
O     0.3195213  0.62674 0.7823811     O
C      0.32182  0.36374 0.6649416     C
C      0.32182  0.63634 0.1649416     C
H       0.3243   0.2514   0.2332     H
H       0.3243   0.7486   0.7332     H
C      0.32492  0.38925 0.0216116     C
C      0.32492  0.61085 0.5216116     C
O     0.3267212  0.38304 0.334821     O
O     0.3267212  0.61704 0.834821     O
H       0.3295    0.418   0.0404     H
H       0.3295    0.582   0.5404     H
C     0.3302618  0.20844 0.2200313     C
C     0.3302618  0.79164 0.7200313     C
H       0.3332   0.2291   0.8405     H
H       0.3332   0.7709   0.3405     H
C      0.33322  0.06314 0.0955516     C
C      0.33322  0.93694 0.5955516     C
H       0.3337   0.1137   0.6457     H
H       0.3337   0.8863   0.1457     H
C     0.3340617  0.28114 0.1166811     C
C     0.3340617  0.71894 0.6166811     C
H       0.3352     0.37   0.2022     H
H       0.3352     0.63   0.7022     H
C      0.33574  0.45564 0.7198816     C
C      0.33574  0.54444 0.2198816     C
C      0.33702  0.07844 0.9434513     C
C      0.33702  0.92164 0.4434513     C
H       0.3373   0.4892   0.7375     H
H       0.3373   0.5108   0.2375     H
H       0.3375   0.4627   0.9209     H
H       0.3375   0.5373   0.4209     H
C      0.33862  0.06685 0.9761414     C
C      0.33862  0.93325 0.4761414     C
H       0.3392   0.2045   0.8933     H
H       0.3392   0.7955   0.3933     H
C      0.33964  0.08504  0.60022     C
C      0.33964  0.91504  0.10022     C
C     0.3414717  0.21664 0.0973811     C
C     0.3414717  0.78344 0.5973811     C
C      0.34224  0.44717  0.90074     C
C      0.34224  0.55297  0.40074     C
C     0.3427716  0.37664 0.3085413     C
C     0.3427716  0.62344 0.8085413     C
C     0.3448116  0.08284 0.1784411     C
C     0.3448116  0.91724 0.6784411     C
C      0.34774  0.13034  0.62842     C
C      0.34774  0.86974  0.12842     C
H       0.3484   0.0426   0.1636     H
H       0.3484   0.9574   0.6636     H
C      0.35052  0.43384 0.6668616     C
C      0.35052  0.56624 0.1668616     C
H       0.3556   0.3958   0.1288     H
H       0.3556   0.6042   0.6288     H
C      0.35682  0.32305 0.9784716     C
C      0.35682  0.67705 0.4784716     C
C      0.35684  0.39978  0.84314     C
C      0.35684  0.60038  0.34314     C
H       0.3593   0.0882   0.5564     H
H       0.3593   0.9118   0.0564     H
C     0.3595616  0.47854 0.6945013     C
C     0.3595616  0.52154 0.1945013     C
H       0.3605   0.3744   0.8242     H
H       0.3605   0.6256   0.3242     H
C     0.3609018  0.35114 0.1163713     C
C     0.3609018  0.64894 0.6163713     C
H       0.3631   0.0613   0.0901     H
H       0.3631   0.9387   0.5901     H
C      0.36344  0.36355 0.0057317     C
C      0.36344  0.63655 0.5057317     C
C      0.36347  0.11378  0.57594     C
C      0.36347  0.88638  0.07594     C
H       0.3637   0.4504   0.6492     H
H       0.3637   0.5496   0.1492     H
C     0.3644416  0.21754 0.1996411     C
C     0.3644416  0.78254 0.6996411     C
C     0.3661916  0.37044 0.1989511     C
C     0.3661916  0.62964 0.6989511     C
H       0.3671   0.0473   0.9081     H
H       0.3671   0.9527   0.4081     H
C     0.3705417  0.15444 0.1789512     C
C     0.3705417  0.84564 0.6789512     C
H       0.3745   0.0807   0.4824     H
H       0.3745   0.9193   0.9824     H
C      0.37482  0.21944 0.0778116     C
C      0.37482  0.78064 0.5778116     C
C      0.37572  0.19824  0.63082     C
C      0.37572  0.80184  0.13082     C
N      0.37692  0.06085 0.9278312     N
N      0.37692  0.93925 0.4278312     N
H        0.379   0.1755   0.0646     H
H        0.379   0.8245   0.5646     H
H         0.38   0.2277   0.6494     H
H         0.38   0.7723   0.1494     H
C      0.38292  0.03937 0.9944414     C
C      0.38292  0.96077 0.4944414     C
C      0.38714  0.44488  0.89334     C
C      0.38714  0.55528  0.39334     C
C     0.3878916  0.44474 0.1949213     C
C     0.3878916  0.55534 0.6949213     C
C     0.3895717  0.29734 0.1982911     C
C     0.3895717  0.70274 0.6982911     C
O     0.3906916  0.23854 0.9432512     O
O     0.3906916  0.76154 0.4432512     O
H       0.3908    0.017   0.9369     H
H       0.3908    0.983   0.4369     H
C      0.39087  0.17477  0.58034     C
C      0.39087  0.82537  0.08034     C
H       0.3925   0.1602    0.165     H
H       0.3925   0.8398    0.665     H
H       0.3933   0.3753   0.0146     H
H       0.3933   0.6247   0.5146     H
C      0.39334  0.42145  0.85994     C
C      0.39334  0.57865  0.35994     C
C     0.3938516  0.37604 0.3089512     C
C     0.3938516  0.62404 0.8089512     C
C      0.39402  0.04417  0.49412     C
C      0.39402  0.95597  0.99412     C
H       0.3948   0.3693   0.2645     H
H       0.3948   0.6307   0.7645     H
C     0.3970417  0.35294 0.0964014     C
C     0.3970417  0.64714 0.5964014     C
C      0.39735  0.22227  0.60544     C
C      0.39735  0.77787  0.10544     C
C      0.39882  0.29757 0.9631116     C
C      0.39882  0.70257 0.4631116     C
C      0.40292  0.28875 0.0776717     C
C      0.40292  0.71135 0.5776717     C
H        0.406   0.1533   0.0101     H
H        0.406   0.8467   0.5101     H
H       0.4081   0.1871   0.5641     H
H       0.4081   0.8129   0.0641     H
H       0.4113   0.3767   0.3563     H
H       0.4113   0.6233   0.8563     H
H       0.4122   0.4569    0.908     H
H       0.4122   0.5431    0.408     H
C      0.41254  0.09767 0.0108517     C
C      0.41254  0.90247 0.5108517     C
C      0.41352  0.37399 0.2835616     C
C      0.41352  0.62619 0.7835616     C
O     0.4219316  0.48114 0.1181514     O
O     0.4219316  0.51894 0.6181514     O
C      0.42422  0.37557 0.3374216     C
C      0.42422  0.62457 0.8374216     C
H        0.426   0.2905   0.0644     H
H        0.426   0.7095   0.5644     H
C      0.42662  0.42555  0.09722     C
C      0.42662  0.57455  0.59722     C
C      0.42875  0.29847  0.61014     C
C      0.42875  0.70167  0.11014     C
Zn    0.429574 0.158168 0.926892    Zn
Zn    0.429574 0.841848 0.426892    Zn
C     0.4347116  0.44814 0.1907116     C
C     0.4347116  0.55194 0.6907116     C
O      0.43512  0.33434 0.6360317     O
O      0.43512  0.66574 0.1360317     O
C     0.4358616  0.29854 0.1933912     C
C     0.4358616  0.70154 0.6933912     C
C      0.43614  0.07308  0.51212     C
C      0.43614  0.92708  0.01212     C
O      0.43642  0.32657  0.97082     O
O      0.43642  0.67357  0.47082     O
O      0.44124  0.32247  0.58484     O
O      0.44124  0.67767  0.08484     O
C      0.44184  0.42015  0.85164     C
C      0.44184  0.57995  0.35164     C
H       0.4423   0.4361   0.6941     H
H       0.4423   0.5639   0.1941     H
H       0.4441   0.1281   0.5119     H
H       0.4441   0.8719   0.0119     H
O      0.44684  0.39347  0.82524     O
O      0.44684  0.60667  0.32524     O
H       0.4516   0.2494    0.192     H
H       0.4516   0.7506    0.692     H
C      0.45234  0.06617 0.0283517     C
C      0.45234  0.93397 0.5283517     C
O      0.45414  0.43107  0.07602     O
O      0.45414  0.56907  0.57602     O
H       0.4544   0.3114   0.9586     H
H       0.4544   0.6886   0.4586     H
N     0.4574217  0.47564 0.6853118     N
N     0.4574217  0.52444 0.1853118     N
C     0.4597116  0.37364 0.1904813     C
C     0.4597116  0.62644 0.6904813     C
C      0.46082  0.37791 0.2830317     C
C      0.46082  0.62211 0.7830317     C
C      0.46344  0.01897 0.5289716     C
C      0.46344  0.98117 0.0289716     C
Zn    0.464093 0.439476 0.639533    Zn
Zn    0.464093 0.560536 0.139533    Zn
O      0.46854  0.00928  0.43562     O
O      0.46854  0.99088  0.93562     O
C      0.47082  0.37337 0.3385717     C
C      0.47082  0.62677 0.8385717     C
H       0.4722   0.1021     0.04     H
H       0.4722   0.8979     0.54     H
H       0.4728   0.3829    0.264     H
H       0.4728   0.6171    0.764     H
O      0.47292  0.44795  0.87182     O
O      0.47292  0.55215  0.37182     O
O      0.48422  0.11857 0.9523714     O
O      0.48422  0.88157 0.4523714     O
H       0.4857   0.4778   0.6957     H
H       0.4857   0.5222   0.1957     H
H       0.4895    0.371   0.3577     H
H       0.4895    0.629   0.8577     H
C     0.4897816  0.37464 0.3102014     C
C     0.4897816  0.62544 0.8102014     C
C      0.49524  0.04718  0.95222     C
C      0.49524  0.95298  0.45222     C
C      0.50484  0.04718  0.54782     C
C      0.50484  0.95298  0.04782     C
C     0.5102216  0.37464 0.1898014     C
C     0.5102216  0.62544 0.6898014     C
H       0.5105    0.371   0.1423     H
H       0.5105    0.629   0.6423     H
H       0.5143   0.4778   0.8043     H
H       0.5143   0.5222   0.3043     H
O      0.51582  0.11857 0.5476314     O
O      0.51582  0.88157 0.0476314     O
O      0.52712  0.44795  0.62822     O
O      0.52712  0.55215  0.12822     O
H       0.5272   0.3829    0.236     H
H       0.5272   0.6171    0.736     H
H       0.5278   0.1021     0.46     H
H       0.5278   0.8979     0.96     H
C      0.52922  0.37337 0.1614317     C
C      0.52922  0.62677 0.6614317     C
O      0.53154  0.00928  0.06442     O
O      0.53154  0.99088  0.56442     O
Zn    0.535913 0.439476 0.860473    Zn
Zn    0.535913 0.560536 0.360473    Zn
C      0.53664  0.01897 0.9710316     C
C      0.53664  0.98117 0.4710316     C
C      0.53922  0.37791 0.2169717     C
C      0.53922  0.62211 0.7169717     C
C     0.5402916  0.37364 0.3095213     C
C     0.5402916  0.62644 0.8095213     C
N     0.5425817  0.47564 0.8146918     N
N     0.5425817  0.52444 0.3146918     N
H       0.5456   0.3114   0.5414     H
H       0.5456   0.6886   0.0414     H
O      0.54594  0.43107  0.42402     O
O      0.54594  0.56907  0.92402     O
C      0.54774  0.06617 0.4716517     C
C      0.54774  0.93397 0.9716517     C
H       0.5484   0.2494    0.308     H
H       0.5484   0.7506    0.808     H
O      0.55324  0.39347  0.67484     O
O      0.55324  0.60667  0.17484     O
H       0.5559   0.1281   0.9881     H
H       0.5559   0.8719   0.4881     H
H       0.5577   0.4361   0.8059     H
H       0.5577   0.5639   0.3059     H
C      0.55824  0.42015  0.64844     C
C      0.55824  0.57995  0.14844     C
O      0.55884  0.32247  0.91524     O
O      0.55884  0.67767  0.41524     O
O      0.56362  0.32657  0.52922     O
O      0.56362  0.67357  0.02922     O
C      0.56394  0.07308  0.98792     C
C      0.56394  0.92708  0.48792     C
C     0.5641416  0.29854 0.3066112     C
C     0.5641416  0.70154 0.8066112     C
O      0.56492  0.33434 0.8639717     O
O      0.56492  0.66574 0.3639717     O
C     0.5652916  0.44814 0.3092916     C
C     0.5652916  0.55194 0.8092916     C
Zn    0.570434 0.158168 0.573112    Zn
Zn    0.570434 0.841848 0.073112    Zn
C      0.57135  0.29847  0.88994     C
C      0.57135  0.70167  0.38994     C
C      0.57342  0.42555  0.40282     C
C      0.57342  0.57455  0.90282     C
H        0.574   0.2905   0.4356     H
H        0.574   0.7095   0.9356     H
C      0.57582  0.37557 0.1625816     C
C      0.57582  0.62457 0.6625816     C
O     0.5780716  0.48114 0.3818514     O
O     0.5780716  0.51894 0.8818514     O
C      0.58652  0.37399 0.2164416     C
C      0.58652  0.62619 0.7164416     C
C      0.58754  0.09767 0.4891517     C
C      0.58754  0.90247 0.9891517     C
H       0.5878   0.4569    0.592     H
H       0.5878   0.5431    0.092     H
H       0.5887   0.3767   0.1437     H
H       0.5887   0.6233   0.6437     H
H       0.5919   0.1871   0.9359     H
H       0.5919   0.8129   0.4359     H
H        0.594   0.1533   0.4899     H
H        0.594   0.8467   0.9899     H
C      0.59712  0.28875 0.4223317     C
C      0.59712  0.71135 0.9223317     C
C      0.60122  0.29757 0.5368916     C
C      0.60122  0.70257 0.0368916     C
C      0.60275  0.22227  0.89464     C
C      0.60275  0.77787  0.39464     C
C     0.6029617  0.35294 0.4036014     C
C     0.6029617  0.64714 0.9036014     C
H       0.6052   0.3693   0.2355     H
H       0.6052   0.6307   0.7355     H
C      0.60602  0.04417  0.00592     C
C      0.60602  0.95597  0.50592     C
C     0.6061516  0.37604 0.1910512     C
C     0.6061516  0.62404 0.6910512     C
H       0.6067   0.3753   0.4854     H
H       0.6067   0.6247   0.9854     H
C      0.60674  0.42145  0.64014     C
C      0.60674  0.57865  0.14014     C
H       0.6075   0.1602    0.335     H
H       0.6075   0.8398    0.835     H
H       0.6092    0.017   0.5631     H
H       0.6092    0.983   0.0631     H
C      0.60927  0.17477  0.91974     C
C      0.60927  0.82537  0.41974     C
O     0.6093116  0.23854 0.5567512     O
O     0.6093116  0.76154 0.0567512     O
C     0.6104317  0.29734 0.3017111     C
C     0.6104317  0.70274 0.8017111     C
C     0.6121116  0.44474 0.3050813     C
C     0.6121116  0.55534 0.8050813     C
C      0.61294  0.44488  0.60674     C
C      0.61294  0.55528  0.10674     C
C      0.61712  0.03937 0.5055614     C
C      0.61712  0.96077 0.0055614     C
H         0.62   0.2277   0.8506     H
H         0.62   0.7723   0.3506     H
H        0.621   0.1755   0.4354     H
H        0.621   0.8245   0.9354     H
N      0.62312  0.06085 0.5721712     N
N      0.62312  0.93925 0.0721712     N
C      0.62432  0.19824  0.86922     C
C      0.62432  0.80184  0.36922     C
C      0.62522  0.21944 0.4221916     C
C      0.62522  0.78064 0.9221916     C
H       0.6255   0.0807   0.0176     H
H       0.6255   0.9193   0.5176     H
C     0.6294617  0.15444 0.3210512     C
C     0.6294617  0.84564 0.8210512     C
H       0.6329   0.0473   0.5919     H
H       0.6329   0.9527   0.0919     H
C     0.6338116  0.37044 0.3010511     C
C     0.6338116  0.62964 0.8010511     C
C     0.6355616  0.21754 0.3003611     C
C     0.6355616  0.78254 0.8003611     C
H       0.6363   0.4504   0.8508     H
H       0.6363   0.5496   0.3508     H
C      0.63664  0.36355 0.4942717     C
C      0.63664  0.63655 0.9942717     C
C      0.63667  0.11378  0.92414     C
C      0.63667  0.88638  0.42414     C
H       0.6369   0.0613   0.4099     H
H       0.6369   0.9387   0.9099     H
C     0.6391018  0.35114 0.3836313     C
C     0.6391018  0.64894 0.8836313     C
H       0.6395   0.3744   0.6758     H
H       0.6395   0.6256   0.1758     H
C     0.6404416  0.47854 0.8055013     C
C     0.6404416  0.52154 0.3055013     C
H       0.6407   0.0882   0.9436     H
H       0.6407   0.9118   0.4436     H
C      0.64322  0.32305 0.5215316     C
C      0.64322  0.67705 0.0215316     C
C      0.64324  0.39978  0.65694     C
C      0.64324  0.60038  0.15694     C
H       0.6444   0.3958   0.3712     H
H       0.6444   0.6042   0.8712     H
C      0.64952  0.43384 0.8331416     C
C      0.64952  0.56624 0.3331416     C
H       0.6516   0.0426   0.3364     H
H       0.6516   0.9574   0.8364     H
C      0.65234  0.13034  0.87162     C
C      0.65234  0.86974  0.37162     C
C     0.6551916  0.08284 0.3215611     C
C     0.6551916  0.91724 0.8215611     C
C     0.6572316  0.37664 0.1914613     C
C     0.6572316  0.62344 0.6914613     C
C      0.65784  0.44717  0.59934     C
C      0.65784  0.55297  0.09934     C
C     0.6585317  0.21664 0.4026211     C
C     0.6585317  0.78344 0.9026211     C
C      0.66044  0.08504  0.89982     C
C      0.66044  0.91504  0.39982     C
H       0.6608   0.2045   0.6067     H
H       0.6608   0.7955   0.1067     H
C      0.66142  0.06685 0.5238614     C
C      0.66142  0.93325 0.0238614     C
H       0.6625   0.4627   0.5791     H
H       0.6625   0.5373   0.0791     H
H       0.6627   0.4892   0.7625     H
H       0.6627   0.5108   0.2625     H
C      0.66302  0.07844 0.5565513     C
C      0.66302  0.92164 0.0565513     C
C      0.66434  0.45564 0.7801216     C
C      0.66434  0.54444 0.2801216     C
H       0.6648     0.37   0.2978     H
H       0.6648     0.63   0.7978     H
C     0.6659417  0.28114 0.3833211     C
C     0.6659417  0.71894 0.8833211     C
H       0.6663   0.1137   0.8543     H
H       0.6663   0.8863   0.3543     H
H       0.6668   0.2291   0.6595     H
H       0.6668   0.7709   0.1595     H
C      0.66682  0.06314 0.4044516     C
C      0.66682  0.93694 0.9044516     C
C     0.6697418  0.20844 0.2799713     C
C     0.6697418  0.79164 0.7799713     C
H       0.6705    0.418   0.4596     H
H       0.6705    0.582   0.9596     H
O     0.6732812  0.38304 0.165181     O
O     0.6732812  0.61704 0.665181     O
C      0.67512  0.38925 0.4783916     C
C      0.67512  0.61085 0.9783916     C
H       0.6757   0.2514   0.2668     H
H       0.6757   0.7486   0.7668     H
C      0.67822  0.36374 0.8350616     C
C      0.67822  0.63634 0.3350616     C
O     0.6804813  0.37334 0.2176211     O
O     0.6804813  0.62674 0.7176211     O
C      0.68212  0.17474 0.6200316     C
C      0.68212  0.82534 0.1200316     C
H        0.685   0.3355   0.8539     H
H        0.685   0.6645   0.3539     H
C      0.68532  0.18965 0.6515716     C
C      0.68532  0.81045 0.1515716     C
O      0.68622  0.18709 0.7182214     O
O      0.68622  0.81309 0.2182214     O
C      0.68632  0.13864 0.4000413     C
C      0.68632  0.86144 0.9000413     C
C     0.6864016  0.07144 0.2997013     C
C     0.6864016  0.92864 0.7997013     C
C      0.68752  0.30585 0.5350713     C
C      0.68752  0.69425 0.0350713     C
H       0.6889   0.2778     0.37     H
H       0.6889   0.7222     0.87     H
C      0.68894  0.40987  0.64992     C
C      0.68894  0.59027  0.14992     C
C      0.68962  0.38594 0.7806516     C
C      0.68962  0.61414 0.2806516     C
C      0.68984  0.01034 0.9011616     C
C      0.68984  0.98974 0.4011616     C
H       0.6917   0.2797   0.5545     H
H       0.6917   0.7203   0.0545     H
C      0.69422  0.13724 0.2792114     C
C      0.69422  0.86284 0.7792114     C
C      0.69442  0.42844  0.61932     C
C      0.69442  0.57164  0.11932     C
C     0.6961317  0.33804 0.8077014     C
C     0.6961317  0.66204 0.3077014     C
H       0.6973    0.078   0.4866     H
H       0.6973    0.922   0.9866     H
C      0.69982  0.08404 0.5082813     C
C      0.69982  0.91604 0.0082813     C
H       0.7026     0.37   0.7628     H
H       0.7026     0.63   0.2628     H
C      0.70452  0.10285 0.5732613     C
C      0.70452  0.89725 0.0732613     C
C     0.7084818  0.11894 0.6073113     C
C     0.7084818  0.88114 0.1073113     C
H       0.7102   0.4253   0.1004     H
H       0.7102   0.5747   0.6004     H
C     0.7139217  0.00484 0.8004914     C
C     0.7139217  0.99524 0.3004914     C
H       0.7141   0.4042   0.6653     H
H       0.7141   0.5958   0.1653     H
H       0.7162   0.1318   0.2652     H
H       0.7162   0.8682   0.7652     H
C     0.7174418  0.14374 0.6719612     C
C     0.7174418  0.85634 0.1719612     C
C      0.71912  0.36934 0.4921613     C
C      0.71912  0.63074 0.9921613     C
C      0.72012  0.15575 0.7067714     C
C      0.72012  0.84435 0.2067714     C
O     0.7218214  0.04314 0.825259     O
O     0.7218214  0.95694 0.325259     O
C      0.72372  0.26314 0.8092616     C
C      0.72372  0.73694 0.3092616     C
C      0.72492  0.32585 0.5208813     C
C      0.72492  0.67425 0.0208813     C
O      0.72972  0.02534 0.7755911     O
O      0.72972  0.97474 0.2755911     O
H       0.7306   0.3596   0.4315     H
H       0.7306   0.6404   0.9315     H
O      0.73132  0.22844 0.8357112     O
O      0.73132  0.77164 0.3357112     O
C      0.73262  0.13734 0.3930316     C
C      0.73262  0.86274 0.8930316     C
H        0.734   0.4428   0.3267     H
H        0.734   0.5572   0.8267     H
C      0.73454  0.00915 0.8941714     C
C      0.73454  0.99095 0.3941714     C
Zn    0.734732 0.373495 0.154102    Zn
Zn    0.734732 0.626515 0.654102    Zn
O      0.73762  0.23754 0.7841812     O
O      0.73762  0.76254 0.2841812     O
N      0.73892  0.41664 0.1094611     N
N      0.73892  0.58344 0.6094611     N
C      0.74052  0.07264 0.6273016     C
C      0.74052  0.92744 0.1273016     C
H       0.7413   0.4668    0.381     H
H       0.7413   0.5332    0.881     H
C      0.74202  0.11024 0.5245213     C
C      0.74202  0.88984 0.0245213     C
C      0.74252  0.12064 0.5570712     C
C      0.74252  0.87944 0.0570712     C
C      0.74332  0.43214 0.6096016     C
C      0.74332  0.56794 0.1096016     C
O     0.7442514  0.36944 0.277308     O
O     0.7442514  0.63064 0.777308     O
C     0.7446718  0.08684 0.6599413     C
C     0.7446718  0.91324 0.1599413     C
H       0.7457   0.1889   0.4701     H
H       0.7457   0.8111   0.9701     H
Zn    0.746072 0.367214 0.232482    Zn
Zn    0.746072 0.632794 0.732482    Zn
H       0.7471   0.1869   0.3901     H
H       0.7471   0.8131   0.8901     H
H       0.7492   0.1229   0.9014     H
H       0.7492   0.8771   0.4014     H
H       0.7508   0.3771   0.0986     H
H       0.7508   0.6229   0.5986     H
H       0.7529   0.3131   0.6099     H
H       0.7529   0.6869   0.1099     H
Zn    0.753932 0.132794 0.767522    Zn
Zn    0.753932 0.867214 0.267522    Zn
H       0.7543   0.3111   0.5299     H
H       0.7543   0.6889   0.0299     H
C     0.7553318  0.41324 0.3400613     C
C     0.7553318  0.58684 0.8400613     C
O     0.7557514  0.13064 0.722708     O
O     0.7557514  0.86944 0.222708     O
C      0.75672  0.06794 0.3904016     C
C      0.75672  0.93214 0.8904016     C
C      0.75752  0.37944 0.4429312     C
C      0.75752  0.62064 0.9429312     C
C      0.75802  0.38984 0.4754813     C
C      0.75802  0.61024 0.9754813     C
H       0.7587   0.0332    0.619     H
H       0.7587   0.9668    0.119     H
C      0.75952  0.42744 0.3727016     C
C      0.75952  0.57264 0.8727016     C
N      0.76112  0.08344 0.8905411     N
N      0.76112  0.91664 0.3905411     N
O      0.76242  0.26254 0.2158212     O
O      0.76242  0.73754 0.7158212     O
Zn    0.765272 0.126515 0.845902    Zn
Zn    0.765272 0.873495 0.345902    Zn
C      0.76554  0.49095 0.1058314     C
C      0.76554  0.50915 0.6058314     C
H        0.766   0.0572   0.6733     H
H        0.766   0.9428   0.1733     H
C      0.76742  0.36274 0.6069716     C
C      0.76742  0.63734 0.1069716     C
O      0.76872  0.27164 0.1642912     O
O      0.76872  0.72844 0.6642912     O
H       0.7694   0.1404   0.5685     H
H       0.7694   0.8596   0.0685     H
O      0.77032  0.47474 0.2244111     O
O      0.77032  0.52534 0.7244111     O
C      0.77512  0.17425 0.4791213     C
C      0.77512  0.82585 0.9791213     C
C      0.77632  0.23694 0.1907416     C
C      0.77632  0.76314 0.6907416     C
O     0.7781814  0.45694 0.174759     O
O     0.7781814  0.54314 0.674759     O
C      0.77992  0.34435 0.2932314     C
C      0.77992  0.65575 0.7932314     C
C      0.78092  0.13074 0.5078413     C
C      0.78092  0.86934 0.0078413     C
C     0.7825618  0.35634 0.3280412     C
C     0.7825618  0.64374 0.8280412     C
H       0.7838   0.3682   0.7348     H
H       0.7838   0.6318   0.2348     H
H       0.7859   0.0958   0.3347     H
H       0.7859   0.9042   0.8347     H
C     0.7860817  0.49524 0.1995114     C
C     0.7860817  0.50484 0.6995114     C
H       0.7898   0.0747   0.8996     H
H       0.7898   0.9253   0.3996     H
C     0.7915218  0.38114 0.3926913     C
C     0.7915218  0.61894 0.8926913     C
C      0.79552  0.39725 0.4267413     C
C      0.79552  0.60285 0.9267413     C
H       0.7974     0.13   0.2372     H
H       0.7974     0.87   0.7372     H
C      0.80022  0.41604 0.4917213     C
C      0.80022  0.58404 0.9917213     C
H       0.8027    0.422   0.5134     H
H       0.8027    0.578   0.0134     H
C     0.8038717  0.16204 0.1923014     C
C     0.8038717  0.83804 0.6923014     C
C      0.80562  0.07164  0.38072     C
C      0.80562  0.92844  0.88072     C
C      0.80582  0.36284 0.7207914     C
C      0.80582  0.63724 0.2207914     C
H       0.8083   0.2203   0.4455     H
H       0.8083   0.7797   0.9455     H
C      0.81024  0.48974 0.0988416     C
C      0.81024  0.51034 0.5988416     C
C      0.81042  0.11414 0.2193516     C
C      0.81042  0.88594 0.7193516     C
H       0.8111   0.2222     0.63     H
H       0.8111   0.7778     0.13     H
C      0.81114  0.09027  0.35012     C
C      0.81114  0.90987  0.85012     C
C      0.81252  0.19425 0.4649313     C
C      0.81252  0.80585 0.9649313     C
C     0.8136016  0.42864 0.7003013     C
C     0.8136016  0.57144 0.2003013     C
C      0.81372  0.36144 0.5999613     C
C      0.81372  0.63864 0.0999613     C
O      0.81382  0.31309 0.2817814     O
O      0.81382  0.68709 0.7817814     O
C      0.81472  0.31045 0.3484316     C
C      0.81472  0.68965 0.8484316     C
H        0.815   0.1645   0.1461     H
H        0.815   0.8355   0.6461     H
C      0.81792  0.32534 0.3799716     C
C      0.81792  0.67474 0.8799716     C
O     0.8195213  0.12674 0.7823811     O
O     0.8195213  0.87334 0.2823811     O
C      0.82182  0.13634 0.1649416     C
C      0.82182  0.86374 0.6649416     C
H       0.8243   0.2486   0.7332     H
H       0.8243   0.7514   0.2332     H
C      0.82492  0.11085 0.5216116     C
C      0.82492  0.88925 0.0216116     C
O     0.8267212  0.11704 0.834821     O
O     0.8267212  0.88304 0.334821     O
H       0.8295    0.082   0.5404     H
H       0.8295    0.918   0.0404     H
C     0.8302618  0.29164 0.7200313     C
C     0.8302618  0.70844 0.2200313     C
H       0.8332   0.2709   0.3405     H
H       0.8332   0.7291   0.8405     H
C      0.83322  0.43694 0.5955516     C
C      0.83322  0.56314 0.0955516     C
H       0.8337   0.3863   0.1457     H
H       0.8337   0.6137   0.6457     H
C     0.8340617  0.21894 0.6166811     C
C     0.8340617  0.78114 0.1166811     C
H       0.8352     0.13   0.7022     H
H       0.8352     0.87   0.2022     H
C      0.83574  0.04444 0.2198816     C
C      0.83574  0.95564 0.7198816     C
C      0.83702  0.42164 0.4434513     C
C      0.83702  0.57844 0.9434513     C
H       0.8373   0.0108   0.2375     H
H       0.8373   0.9892   0.7375     H
H       0.8375   0.0373   0.4209     H
H       0.8375   0.9627   0.9209     H
C      0.83862  0.43325 0.4761414     C
C      0.83862  0.56685 0.9761414     C
H       0.8392   0.2955   0.3933     H
H       0.8392   0.7045   0.8933     H
C      0.83964  0.41504  0.10022     C
C      0.83964  0.58504  0.60022     C
C     0.8414717  0.28344 0.5973811     C
C     0.8414717  0.71664 0.0973811     C
C      0.84224  0.05297  0.40074     C
C      0.84224  0.94717  0.90074     C
C     0.8427716  0.12344 0.8085413     C
C     0.8427716  0.87664 0.3085413     C
C     0.8448116  0.41724 0.6784411     C
C     0.8448116  0.58284 0.1784411     C
C      0.84774  0.36974  0.12842     C
C      0.84774  0.63034  0.62842     C
H       0.8484   0.4574   0.6636     H
H       0.8484   0.5426   0.1636     H
C      0.85052  0.06624 0.1668616     C
C      0.85052  0.93384 0.6668616     C
H       0.8556   0.1042   0.6288     H
H       0.8556   0.8958   0.1288     H
C      0.85682  0.17705 0.4784716     C
C      0.85682  0.82305 0.9784716     C
C      0.85684  0.10038  0.34314     C
C      0.85684  0.89978  0.84314     C
H       0.8593   0.4118   0.0564     H
H       0.8593   0.5882   0.5564     H
C     0.8595616  0.02154 0.1945013     C
C     0.8595616  0.97854 0.6945013     C
H       0.8605   0.1256   0.3242     H
H       0.8605   0.8744   0.8242     H
C     0.8609018  0.14894 0.6163713     C
C     0.8609018  0.85114 0.1163713     C
H       0.8631   0.4387   0.5901     H
H       0.8631   0.5613   0.0901     H
C      0.86344  0.13655 0.5057317     C
C      0.86344  0.86355 0.0057317     C
C      0.86347  0.38638  0.07594     C
C      0.86347  0.61378  0.57594     C
H       0.8637   0.0496   0.1492     H
H       0.8637   0.9504   0.6492     H
C     0.8644416  0.28254 0.6996411     C
C     0.8644416  0.71754 0.1996411     C
C     0.8661916  0.12964 0.6989511     C
C     0.8661916  0.87044 0.1989511     C
H       0.8671   0.4527   0.4081     H
H       0.8671   0.5473   0.9081     H
C     0.8705417  0.34564 0.6789512     C
C     0.8705417  0.65444 0.1789512     C
H       0.8745   0.4193   0.9824     H
H       0.8745   0.5807   0.4824     H
C      0.87482  0.28064 0.5778116     C
C      0.87482  0.71944 0.0778116     C
C      0.87572  0.30184  0.13082     C
C      0.87572  0.69824  0.63082     C
N      0.87692  0.43925 0.4278312     N
N      0.87692  0.56085 0.9278312     N
H        0.879   0.3245   0.5646     H
H        0.879   0.6755   0.0646     H
H         0.88   0.2723   0.1494     H
H         0.88   0.7277   0.6494     H
C      0.88292  0.46077 0.4944414     C
C      0.88292  0.53937 0.9944414     C
C      0.88714  0.05528  0.39334     C
C      0.88714  0.94488  0.89334     C
C     0.8878916  0.05534 0.6949213     C
C     0.8878916  0.94474 0.1949213     C
C     0.8895717  0.20274 0.6982911     C
C     0.8895717  0.79734 0.1982911     C
O     0.8906916  0.26154 0.4432512     O
O     0.8906916  0.73854 0.9432512     O
H       0.8908    0.483   0.4369     H
H       0.8908    0.517   0.9369     H
C      0.89087  0.32537  0.08034     C
C      0.89087  0.67477  0.58034     C
H       0.8925   0.3398    0.665     H
H       0.8925   0.6602    0.165     H
H       0.8933   0.1247   0.5146     H
H       0.8933   0.8753   0.0146     H
C      0.89334  0.07865  0.35994     C
C      0.89334  0.92145  0.85994     C
C     0.8938516  0.12404 0.8089512     C
C     0.8938516  0.87604 0.3089512     C
C      0.89402  0.45597  0.99412     C
C      0.89402  0.54417  0.49412     C
H       0.8948   0.1307   0.7645     H
H       0.8948   0.8693   0.2645     H
C     0.8970417  0.14714 0.5964014     C
C     0.8970417  0.85294 0.0964014     C
C      0.89735  0.27787  0.10544     C
C      0.89735  0.72227  0.60544     C
C      0.89882  0.20257 0.4631116     C
C      0.89882  0.79757 0.9631116     C
C      0.90292  0.21135 0.5776717     C
C      0.90292  0.78875 0.0776717     C
H        0.906   0.3467   0.5101     H
H        0.906   0.6533   0.0101     H
H       0.9081   0.3129   0.0641     H
H       0.9081   0.6871   0.5641     H
H       0.9113   0.1233   0.8563     H
H       0.9113   0.8767   0.3563     H
H       0.9122   0.0431    0.408     H
H       0.9122   0.9569    0.908     H
C      0.91254  0.40247 0.5108517     C
C      0.91254  0.59767 0.0108517     C
C      0.91352  0.12619 0.7835616     C
C      0.91352  0.87399 0.2835616     C
O     0.9219316  0.01894 0.6181514     O
O     0.9219316  0.98114 0.1181514     O
C      0.92422  0.12457 0.8374216     C
C      0.92422  0.87557 0.3374216     C
H        0.926   0.2095   0.5644     H
H        0.926   0.7905   0.0644     H
C      0.92662  0.07455  0.59722     C
C      0.92662  0.92555  0.09722     C
C      0.92875  0.20167  0.11014     C
C      0.92875  0.79847  0.61014     C
Zn    0.929574 0.341848 0.426892    Zn
Zn    0.929574 0.658168 0.926892    Zn
C     0.9347116  0.05194 0.6907116     C
C     0.9347116  0.94814 0.1907116     C
O      0.93512  0.16574 0.1360317     O
O      0.93512  0.83434 0.6360317     O
C     0.9358616  0.20154 0.6933912     C
C     0.9358616  0.79854 0.1933912     C
C      0.93614  0.42708  0.01212     C
C      0.93614  0.57308  0.51212     C
O      0.93642  0.17357  0.47082     O
O      0.93642  0.82657  0.97082     O
O      0.94124  0.17767  0.08484     O
O      0.94124  0.82247  0.58484     O
C      0.94184  0.07995  0.35164     C
C      0.94184  0.92015  0.85164     C
H       0.9423   0.0639   0.1941     H
H       0.9423   0.9361   0.6941     H
H       0.9441   0.3719   0.0119     H
H       0.9441   0.6281   0.5119     H
O      0.94684  0.10667  0.32524     O
O      0.94684  0.89347  0.82524     O
H       0.9516   0.2506    0.692     H
H       0.9516   0.7494    0.192     H
C      0.95234  0.43397 0.5283517     C
C      0.95234  0.56617 0.0283517     C
O      0.95414  0.06907  0.57602     O
O      0.95414  0.93107  0.07602     O
H       0.9544   0.1886   0.4586     H
H       0.9544   0.8114   0.9586     H
N     0.9574217  0.02444 0.1853118     N
N     0.9574217  0.97564 0.6853118     N
C     0.9597116  0.12644 0.6904813     C
C     0.9597116  0.87364 0.1904813     C
C      0.96082  0.12211 0.7830317     C
C      0.96082  0.87791 0.2830317     C
C      0.96344  0.48117 0.0289716     C
C      0.96344  0.51897 0.5289716     C
Zn    0.964093 0.060536 0.139533    Zn
Zn    0.964093 0.939476 0.639533    Zn
O      0.96854  0.49088  0.93562     O
O      0.96854  0.50928  0.43562     O
C      0.97082  0.12677 0.8385717     C
C      0.97082  0.87337 0.3385717     C
H       0.9722   0.3979     0.54     H
H       0.9722   0.6021     0.04     H
H       0.9728   0.1171    0.764     H
H       0.9728   0.8829    0.264     H
O      0.97292  0.05215  0.37182     O
O      0.97292  0.94795  0.87182     O
O      0.98422  0.38157 0.4523714     O
O      0.98422  0.61857 0.9523714     O
H       0.9857   0.0222   0.1957     H
H       0.9857   0.9778   0.6957     H
H       0.9895    0.129   0.8577     H
H       0.9895    0.871   0.3577     H
C     0.9897816  0.12544 0.8102014     C
C     0.9897816  0.87464 0.3102014     C
C      0.99524  0.45298  0.45222     C
C      0.99524  0.54718  0.95222     C
