data_I
_chemical_name_common  'val_48'
_cell_length_a 12.20020
_cell_length_b  6.78301
_cell_length_c 10.70720
_cell_angle_alpha 90.00000
_cell_angle_beta  90.00000
_cell_angle_gamma 90.00000
_space_group_name_H-M_alt      'P 1'


loop_
_space_group_symop_operation_xyz
  'x, y, z' 

loop_
_atom_site_label
_atom_site_fract_x
_atom_site_fract_y
_atom_site_fract_z
_atom_site_type_symbol
Co         0.0      0.5 0.7794412    Co
N      0.09772  0.64724  0.90782     N
H     0.105513 0.896623 0.817134     H
H     0.109671 0.421917 0.025487     H
O     0.1126217  0.28524  0.72582     O
O      0.12002  0.57054  0.62862     O
C      0.13442  0.82885  0.88514     C
C      0.13694  0.54687  0.00764     C
C      0.15472  0.39715  0.64224     C
H     0.202302 0.666012 0.469086     H
C      0.21494  0.92384  0.95864     C
C      0.21704  0.62785  0.08324     C
H     0.218473 0.165451  0.86323     H
C      0.24252  0.31604  0.56034     C
H     0.244176 0.555427 0.150192     H
N      0.24774  0.10745  0.92644     N
N      0.25234  0.60745  0.42644     N
H     0.255824 0.055427 0.650192     H
C      0.25752  0.81604  0.06034     C
H     0.281527 0.665451  0.36323     H
C      0.28304  0.12785  0.58324     C
C      0.28514  0.42384  0.45864     C
H     0.297698 0.166012 0.969086     H
C      0.34532  0.89715  0.14224     C
C      0.36314  0.04687  0.50764     C
C      0.36562  0.32885  0.38514     C
O      0.38002  0.07054  0.12862     O
O     0.3873817  0.78524  0.22582     O
H     0.390329 0.921917 0.525487     H
H     0.394487 0.396623 0.317134     H
N      0.40232  0.14724  0.40782     N
Co         0.5      0.0 0.2794412    Co
N      0.59772  0.85284  0.40782     N
H     0.605513 0.603377 0.317134     H
H     0.609671 0.078083 0.525487     H
O     0.6126217  0.21484  0.22582     O
O      0.62002  0.92954  0.12862     O
C      0.63442  0.67125  0.38514     C
C      0.63694  0.95327  0.50764     C
C      0.65472  0.10295  0.14224     C
H     0.702302 0.833988 0.969086     H
C      0.71494  0.57624  0.45864     C
C      0.71704  0.87225  0.58324     C
H     0.718473 0.334549  0.36323     H
C      0.74252  0.18404  0.06034     C
H     0.744176 0.944573 0.650192     H
N      0.74774  0.39265  0.42644     N
N      0.75234  0.89265  0.92644     N
H     0.755824 0.444573 0.150192     H
C      0.75752  0.68404  0.56034     C
H     0.781527 0.834549  0.86323     H
C      0.78304  0.37225  0.08324     C
C      0.78514  0.07624  0.95864     C
H     0.797698 0.333988 0.469086     H
C      0.84532  0.60295  0.64224     C
C      0.86314  0.45327  0.00764     C
C      0.86562  0.17125  0.88514     C
O      0.88002  0.42954  0.62862     O
O     0.8873817  0.71484  0.72582     O
H     0.890329 0.578083 0.025487     H
H     0.894487 0.103377 0.817134     H
N      0.90232  0.35284  0.90782     N
