data_I
_chemical_name_common  '/home/zhangsd/repos/MofS-CGCNN/ML/data/WS24/clean_cifs/AQOLID'
_cell_length_a 37.06680
_cell_length_b 37.06680
_cell_length_c 37.06680
_cell_angle_alpha 90.00000
_cell_angle_beta  90.00000
_cell_angle_gamma 90.00000
_space_group_name_H-M_alt      'P 1'


loop_
_space_group_symop_operation_xyz
  'x, y, z' 

loop_
_atom_site_label
_atom_site_fract_x
_atom_site_fract_y
_atom_site_fract_z
_atom_site_type_symbol
Co         0.0  0.18626  0.24613    Co
Co         0.0  0.18626  0.75387    Co
Co         0.0  0.24613  0.31374    Co
Co         0.0  0.24613  0.68626    Co
Cl         0.0     0.25     0.25    Cl
Cl         0.0     0.25     0.75    Cl
Co         0.0  0.25387  0.18626    Co
Co         0.0  0.25387  0.81374    Co
Co         0.0  0.31374  0.25387    Co
Co         0.0  0.31374  0.74613    Co
Co         0.0  0.68626  0.25387    Co
Co         0.0  0.68626  0.74613    Co
Co         0.0  0.74613  0.18626    Co
Co         0.0  0.74613  0.81374    Co
Cl         0.0     0.75     0.25    Cl
Cl         0.0     0.75     0.75    Cl
Co         0.0  0.75387  0.31374    Co
Co         0.0  0.75387  0.68626    Co
Co         0.0  0.81374  0.24613    Co
Co         0.0  0.81374  0.75387    Co
N       0.0365   0.1893  0.20825     N
N       0.0365   0.1893  0.79175     N
N       0.0365  0.20825   0.3107     N
N       0.0365  0.20825   0.6893     N
N       0.0365  0.29175   0.1893     N
N       0.0365  0.29175   0.8107     N
N       0.0365   0.3107  0.29175     N
N       0.0365   0.3107  0.70825     N
N       0.0365   0.6893  0.29175     N
N       0.0365   0.6893  0.70825     N
N       0.0365  0.70825   0.1893     N
N       0.0365  0.70825   0.8107     N
N       0.0365  0.79175   0.3107     N
N       0.0365  0.79175   0.6893     N
N       0.0365   0.8107  0.20825     N
N       0.0365   0.8107  0.79175     N
N      0.03665  0.18409  0.28391     N
N      0.03665  0.18409  0.71609     N
N      0.03665  0.21609  0.18409     N
N      0.03665  0.21609  0.81591     N
N      0.03665  0.28391  0.31591     N
N      0.03665  0.28391  0.68409     N
N      0.03665  0.31591  0.21609     N
N      0.03665  0.31591  0.78391     N
N      0.03665  0.68409  0.21609     N
N      0.03665  0.68409  0.78391     N
N      0.03665  0.71609  0.31591     N
N      0.03665  0.71609  0.68409     N
N      0.03665  0.78391  0.18409     N
N      0.03665  0.78391  0.81591     N
N      0.03665  0.81591  0.28391     N
N      0.03665  0.81591  0.71609     N
C      0.06378  0.16696  0.20278     C
C      0.06378  0.16696  0.79722     C
N      0.06378  0.20278  0.33304     N
N      0.06378  0.20278  0.66696     N
N      0.06378  0.29722  0.16696     N
N      0.06378  0.29722  0.83304     N
C      0.06378  0.33304  0.29722     C
C      0.06378  0.33304  0.70278     C
C      0.06378  0.66696  0.29722     C
C      0.06378  0.66696  0.70278     C
N      0.06378  0.70278  0.16696     N
N      0.06378  0.70278  0.83304     N
N      0.06378  0.79722  0.33304     N
N      0.06378  0.79722  0.66696     N
C      0.06378  0.83304  0.20278     C
C      0.06378  0.83304  0.79722     C
C      0.06494  0.16257  0.28932     C
C      0.06494  0.16257  0.71068     C
C      0.06494  0.21068  0.16257     C
C      0.06494  0.21068  0.83743     C
C      0.06494  0.28932  0.33743     C
C      0.06494  0.28932  0.66257     C
C      0.06494  0.33743  0.21068     C
C      0.06494  0.33743  0.78932     C
C      0.06494  0.66257  0.21068     C
C      0.06494  0.66257  0.78932     C
C      0.06494  0.71068  0.33743     C
C      0.06494  0.71068  0.66257     C
C      0.06494  0.78932  0.16257     C
C      0.06494  0.78932  0.83743     C
C      0.06494  0.83743  0.28932     C
C      0.06494  0.83743  0.71068     C
H       0.0695   0.1461   0.2165     H
H       0.0695   0.1461   0.7835     H
H       0.0695   0.2165   0.3539     H
H       0.0695   0.2165   0.6461     H
H       0.0695   0.2835   0.1461     H
H       0.0695   0.2835   0.8539     H
H       0.0695   0.3539   0.2835     H
H       0.0695   0.3539   0.7165     H
H       0.0695   0.6461   0.2835     H
H       0.0695   0.6461   0.7165     H
H       0.0695   0.7165   0.1461     H
H       0.0695   0.7165   0.8539     H
H       0.0695   0.7835   0.3539     H
H       0.0695   0.7835   0.6461     H
H       0.0695   0.8539   0.2165     H
H       0.0695   0.8539   0.7835     H
H        0.072    0.143   0.2744     H
H        0.072    0.143   0.7256     H
H        0.072   0.2256    0.143     H
H        0.072   0.2256    0.857     H
H        0.072   0.2744    0.357     H
H        0.072   0.2744    0.643     H
H        0.072    0.357   0.2256     H
H        0.072    0.357   0.7744     H
H        0.072    0.643   0.2256     H
H        0.072    0.643   0.7744     H
H        0.072   0.7256    0.357     H
H        0.072   0.7256    0.643     H
H        0.072   0.7744    0.143     H
H        0.072   0.7744    0.857     H
H        0.072    0.857   0.2744     H
H        0.072    0.857   0.7256     H
Co      0.0726  0.13592   0.2483    Co
Co      0.0726  0.13592   0.7517    Co
Co      0.0726   0.2483  0.36408    Co
Co      0.0726   0.2483  0.63592    Co
Co      0.0726   0.2517  0.13592    Co
Co      0.0726   0.2517  0.86408    Co
Co      0.0726  0.36408   0.2517    Co
Co      0.0726  0.36408   0.7483    Co
Co      0.0726  0.63592   0.2517    Co
Co      0.0726  0.63592   0.7483    Co
Co      0.0726   0.7483  0.13592    Co
Co      0.0726   0.7483  0.86408    Co
Co      0.0726   0.7517  0.36408    Co
Co      0.0726   0.7517  0.63592    Co
Co      0.0726  0.86408   0.2483    Co
Co      0.0726  0.86408   0.7517    Co
C      0.08208  0.17374  0.32027     C
C      0.08208  0.17374  0.67973     C
C      0.08208  0.17973  0.17374     C
C      0.08208  0.17973  0.82626     C
C      0.08208  0.32027  0.32626     C
C      0.08208  0.32027  0.67374     C
C      0.08208  0.32626  0.17973     C
C      0.08208  0.32626  0.82027     C
C      0.08208  0.67374  0.17973     C
C      0.08208  0.67374  0.82027     C
C      0.08208  0.67973  0.32626     C
C      0.08208  0.67973  0.67374     C
C      0.08208  0.82027  0.17374     C
C      0.08208  0.82027  0.82626     C
C      0.08208  0.82626  0.32027     C
C      0.08208  0.82626  0.67973     C
C      0.11453  0.15923   0.3378     C
C      0.11453  0.15923   0.6622     C
C      0.11453   0.1622  0.15923     C
C      0.11453   0.1622  0.84077     C
C      0.11453   0.3378  0.34077     C
C      0.11453   0.3378  0.65923     C
C      0.11453  0.34077   0.1622     C
C      0.11453  0.34077   0.8378     C
C      0.11453  0.65923   0.1622     C
C      0.11453  0.65923   0.8378     C
C      0.11453   0.6622  0.34077     C
C      0.11453   0.6622  0.65923     C
C      0.11453   0.8378  0.15923     C
C      0.11453   0.8378  0.84077     C
C      0.11453  0.84077   0.3378     C
C      0.11453  0.84077   0.6622     C
H       0.1173   0.1222   0.1967     H
H       0.1173   0.1222   0.8033     H
H       0.1173   0.1967   0.3778     H
H       0.1173   0.1967   0.6222     H
H       0.1173   0.3033   0.1222     H
H       0.1173   0.3033   0.8778     H
H       0.1173   0.3778   0.3033     H
H       0.1173   0.3778   0.6967     H
H       0.1173   0.6222   0.3033     H
H       0.1173   0.6222   0.6967     H
H       0.1173   0.6967   0.1222     H
H       0.1173   0.6967   0.8778     H
H       0.1173   0.8033   0.3778     H
H       0.1173   0.8033   0.6222     H
H       0.1173   0.8778   0.1967     H
H       0.1173   0.8778   0.8033     H
H       0.1222   0.1173   0.3033     H
H       0.1222   0.1173   0.6967     H
H       0.1222   0.1967   0.1173     H
H       0.1222   0.1967   0.8827     H
H       0.1222   0.3033   0.3827     H
H       0.1222   0.3033   0.6173     H
H       0.1222   0.3827   0.1967     H
H       0.1222   0.3827   0.8033     H
H       0.1222   0.6173   0.1967     H
H       0.1222   0.6173   0.8033     H
H       0.1222   0.6967   0.3827     H
H       0.1222   0.6967   0.6173     H
H       0.1222   0.8033   0.1173     H
H       0.1222   0.8033   0.8827     H
H       0.1222   0.8827   0.3033     H
H       0.1222   0.8827   0.6967     H
C      0.12868  0.13158  0.17579     C
C      0.12868  0.13158  0.82421     C
C      0.12868  0.17579  0.36842     C
C      0.12868  0.17579  0.63158     C
C      0.12868  0.32421  0.13158     C
C      0.12868  0.32421  0.86842     C
C      0.12868  0.36842  0.32421     C
C      0.12868  0.36842  0.67579     C
C      0.12868  0.63158  0.32421     C
C      0.12868  0.63158  0.67579     C
C      0.12868  0.67579  0.13158     C
C      0.12868  0.67579  0.86842     C
C      0.12868  0.82421  0.36842     C
C      0.12868  0.82421  0.63158     C
C      0.12868  0.86842  0.17579     C
C      0.12868  0.86842  0.82421     C
C      0.13158  0.12868  0.32421     C
C      0.13158  0.12868  0.67579     C
C      0.13158  0.17579  0.12868     C
C      0.13158  0.17579  0.87132     C
C      0.13158  0.32421  0.37132     C
C      0.13158  0.32421  0.62868     C
C      0.13158  0.37132  0.17579     C
C      0.13158  0.37132  0.82421     C
C      0.13158  0.62868  0.17579     C
C      0.13158  0.62868  0.82421     C
C      0.13158  0.67579  0.37132     C
C      0.13158  0.67579  0.62868     C
C      0.13158  0.82421  0.12868     C
C      0.13158  0.82421  0.87132     C
C      0.13158  0.87132  0.32421     C
C      0.13158  0.87132  0.67579     C
Co     0.13592   0.0726   0.2517    Co
Co     0.13592   0.0726   0.7483    Co
Co     0.13592   0.2483   0.0726    Co
Co     0.13592   0.2483   0.9274    Co
Co     0.13592   0.2517   0.4274    Co
Co     0.13592   0.2517   0.5726    Co
Co     0.13592   0.4274   0.2483    Co
Co     0.13592   0.4274   0.7517    Co
Co     0.13592   0.5726   0.2483    Co
Co     0.13592   0.5726   0.7517    Co
Co     0.13592   0.7483   0.4274    Co
Co     0.13592   0.7483   0.5726    Co
Co     0.13592   0.7517   0.0726    Co
Co     0.13592   0.7517   0.9274    Co
Co     0.13592   0.9274   0.2517    Co
Co     0.13592   0.9274   0.7483    Co
H        0.143    0.072   0.2256     H
H        0.143    0.072   0.7744     H
H        0.143   0.2256    0.428     H
H        0.143   0.2256    0.572     H
H        0.143   0.2744    0.072     H
H        0.143   0.2744    0.928     H
H        0.143    0.428   0.2744     H
H        0.143    0.428   0.7256     H
H        0.143    0.572   0.2744     H
H        0.143    0.572   0.7256     H
H        0.143   0.7256    0.072     H
H        0.143   0.7256    0.928     H
H        0.143   0.7744    0.428     H
H        0.143   0.7744    0.572     H
H        0.143    0.928   0.2256     H
H        0.143    0.928   0.7744     H
H       0.1461   0.0695   0.2835     H
H       0.1461   0.0695   0.7165     H
H       0.1461   0.2165   0.0695     H
H       0.1461   0.2165   0.9305     H
H       0.1461   0.2835   0.4305     H
H       0.1461   0.2835   0.5695     H
H       0.1461   0.4305   0.2165     H
H       0.1461   0.4305   0.7835     H
H       0.1461   0.5695   0.2165     H
H       0.1461   0.5695   0.7835     H
H       0.1461   0.7165   0.4305     H
H       0.1461   0.7165   0.5695     H
H       0.1461   0.7835   0.0695     H
H       0.1461   0.7835   0.9305     H
H       0.1461   0.9305   0.2835     H
H       0.1461   0.9305   0.7165     H
C      0.15923  0.11453   0.1622     C
C      0.15923  0.11453   0.8378     C
C      0.15923   0.1622  0.38547     C
C      0.15923   0.1622  0.61453     C
C      0.15923   0.3378  0.11453     C
C      0.15923   0.3378  0.88547     C
C      0.15923  0.38547   0.3378     C
C      0.15923  0.38547   0.6622     C
C      0.15923  0.61453   0.3378     C
C      0.15923  0.61453   0.6622     C
C      0.15923   0.6622  0.11453     C
C      0.15923   0.6622  0.88547     C
C      0.15923   0.8378  0.38547     C
C      0.15923   0.8378  0.61453     C
C      0.15923  0.88547   0.1622     C
C      0.15923  0.88547   0.8378     C
C       0.1622  0.11453  0.34077     C
C       0.1622  0.11453  0.65923     C
C       0.1622  0.15923  0.11453     C
C       0.1622  0.15923  0.88547     C
C       0.1622  0.34077  0.38547     C
C       0.1622  0.34077  0.61453     C
C       0.1622  0.38547  0.15923     C
C       0.1622  0.38547  0.84077     C
C       0.1622  0.61453  0.15923     C
C       0.1622  0.61453  0.84077     C
C       0.1622  0.65923  0.38547     C
C       0.1622  0.65923  0.61453     C
C       0.1622  0.84077  0.11453     C
C       0.1622  0.84077  0.88547     C
C       0.1622  0.88547  0.34077     C
C       0.1622  0.88547  0.65923     C
C      0.16257  0.06494  0.21068     C
C      0.16257  0.06494  0.78932     C
C      0.16257  0.21068  0.43506     C
C      0.16257  0.21068  0.56494     C
C      0.16257  0.28932  0.06494     C
C      0.16257  0.28932  0.93506     C
C      0.16257  0.43506  0.28932     C
C      0.16257  0.43506  0.71068     C
C      0.16257  0.56494  0.28932     C
C      0.16257  0.56494  0.71068     C
C      0.16257  0.71068  0.06494     C
C      0.16257  0.71068  0.93506     C
C      0.16257  0.78932  0.43506     C
C      0.16257  0.78932  0.56494     C
C      0.16257  0.93506  0.21068     C
C      0.16257  0.93506  0.78932     C
C      0.16696  0.06378  0.29722     C
C      0.16696  0.06378  0.70278     C
N      0.16696  0.20278  0.06378     N
N      0.16696  0.20278  0.93622     N
N      0.16696  0.29722  0.43622     N
N      0.16696  0.29722  0.56378     N
C      0.16696  0.43622  0.20278     C
C      0.16696  0.43622  0.79722     C
C      0.16696  0.56378  0.20278     C
C      0.16696  0.56378  0.79722     C
N      0.16696  0.70278  0.43622     N
N      0.16696  0.70278  0.56378     N
N      0.16696  0.79722  0.06378     N
N      0.16696  0.79722  0.93622     N
C      0.16696  0.93622  0.29722     C
C      0.16696  0.93622  0.70278     C
C      0.17374  0.08208  0.17973     C
C      0.17374  0.08208  0.82027     C
C      0.17374  0.17973  0.41792     C
C      0.17374  0.17973  0.58208     C
C      0.17374  0.32027  0.08208     C
C      0.17374  0.32027  0.91792     C
C      0.17374  0.41792  0.32027     C
C      0.17374  0.41792  0.67973     C
C      0.17374  0.58208  0.32027     C
C      0.17374  0.58208  0.67973     C
C      0.17374  0.67973  0.08208     C
C      0.17374  0.67973  0.91792     C
C      0.17374  0.82027  0.41792     C
C      0.17374  0.82027  0.58208     C
C      0.17374  0.91792  0.17973     C
C      0.17374  0.91792  0.82027     C
C      0.17579  0.12868  0.13158     C
C      0.17579  0.12868  0.86842     C
C      0.17579  0.13158  0.37132     C
C      0.17579  0.13158  0.62868     C
C      0.17579  0.36842  0.12868     C
C      0.17579  0.36842  0.87132     C
C      0.17579  0.37132  0.36842     C
C      0.17579  0.37132  0.63158     C
C      0.17579  0.62868  0.36842     C
C      0.17579  0.62868  0.63158     C
C      0.17579  0.63158  0.12868     C
C      0.17579  0.63158  0.87132     C
C      0.17579  0.86842  0.37132     C
C      0.17579  0.86842  0.62868     C
C      0.17579  0.87132  0.13158     C
C      0.17579  0.87132  0.86842     C
C      0.17973  0.08208  0.32626     C
C      0.17973  0.08208  0.67374     C
C      0.17973  0.17374  0.08208     C
C      0.17973  0.17374  0.91792     C
C      0.17973  0.32626  0.41792     C
C      0.17973  0.32626  0.58208     C
C      0.17973  0.41792  0.17374     C
C      0.17973  0.41792  0.82626     C
C      0.17973  0.58208  0.17374     C
C      0.17973  0.58208  0.82626     C
C      0.17973  0.67374  0.41792     C
C      0.17973  0.67374  0.58208     C
C      0.17973  0.82626  0.08208     C
C      0.17973  0.82626  0.91792     C
C      0.17973  0.91792  0.32626     C
C      0.17973  0.91792  0.67374     C
N      0.18409  0.03665  0.21609     N
N      0.18409  0.03665  0.78391     N
N      0.18409  0.21609  0.46335     N
N      0.18409  0.21609  0.53665     N
N      0.18409  0.28391  0.03665     N
N      0.18409  0.28391  0.96335     N
N      0.18409  0.46335  0.28391     N
N      0.18409  0.46335  0.71609     N
N      0.18409  0.53665  0.28391     N
N      0.18409  0.53665  0.71609     N
N      0.18409  0.71609  0.03665     N
N      0.18409  0.71609  0.96335     N
N      0.18409  0.78391  0.46335     N
N      0.18409  0.78391  0.53665     N
N      0.18409  0.96335  0.21609     N
N      0.18409  0.96335  0.78391     N
Co     0.18626      0.0  0.25387    Co
Co     0.18626      0.0  0.74613    Co
Co     0.18626  0.24613      0.0    Co
Co     0.18626  0.25387      0.5    Co
Co     0.18626      0.5  0.24613    Co
Co     0.18626      0.5  0.75387    Co
Co     0.18626  0.74613      0.5    Co
Co     0.18626  0.75387      0.0    Co
N       0.1893   0.0365  0.29175     N
N       0.1893   0.0365  0.70825     N
N       0.1893  0.20825   0.0365     N
N       0.1893  0.20825   0.9635     N
N       0.1893  0.29175   0.4635     N
N       0.1893  0.29175   0.5365     N
N       0.1893   0.4635  0.20825     N
N       0.1893   0.4635  0.79175     N
N       0.1893   0.5365  0.20825     N
N       0.1893   0.5365  0.79175     N
N       0.1893  0.70825   0.4635     N
N       0.1893  0.70825   0.5365     N
N       0.1893  0.79175   0.0365     N
N       0.1893  0.79175   0.9635     N
N       0.1893   0.9635  0.29175     N
N       0.1893   0.9635  0.70825     N
H       0.1967   0.1173   0.1222     H
H       0.1967   0.1173   0.8778     H
H       0.1967   0.1222   0.3827     H
H       0.1967   0.1222   0.6173     H
H       0.1967   0.3778   0.1173     H
H       0.1967   0.3778   0.8827     H
H       0.1967   0.3827   0.3778     H
H       0.1967   0.3827   0.6222     H
H       0.1967   0.6173   0.3778     H
H       0.1967   0.6173   0.6222     H
H       0.1967   0.6222   0.1173     H
H       0.1967   0.6222   0.8827     H
H       0.1967   0.8778   0.3827     H
H       0.1967   0.8778   0.6173     H
H       0.1967   0.8827   0.1222     H
H       0.1967   0.8827   0.8778     H
N      0.20278  0.06378  0.16696     N
N      0.20278  0.06378  0.83304     N
N      0.20278  0.16696  0.43622     N
N      0.20278  0.16696  0.56378     N
N      0.20278  0.33304  0.06378     N
N      0.20278  0.33304  0.93622     N
N      0.20278  0.43622  0.33304     N
N      0.20278  0.43622  0.66696     N
N      0.20278  0.56378  0.33304     N
N      0.20278  0.56378  0.66696     N
N      0.20278  0.66696  0.06378     N
N      0.20278  0.66696  0.93622     N
N      0.20278  0.83304  0.43622     N
N      0.20278  0.83304  0.56378     N
N      0.20278  0.93622  0.16696     N
N      0.20278  0.93622  0.83304     N
N      0.20825   0.0365   0.1893     N
N      0.20825   0.0365   0.8107     N
N      0.20825   0.1893   0.4635     N
N      0.20825   0.1893   0.5365     N
N      0.20825   0.3107   0.0365     N
N      0.20825   0.3107   0.9635     N
N      0.20825   0.4635   0.3107     N
N      0.20825   0.4635   0.6893     N
N      0.20825   0.5365   0.3107     N
N      0.20825   0.5365   0.6893     N
N      0.20825   0.6893   0.0365     N
N      0.20825   0.6893   0.9635     N
N      0.20825   0.8107   0.4635     N
N      0.20825   0.8107   0.5365     N
N      0.20825   0.9635   0.1893     N
N      0.20825   0.9635   0.8107     N
C      0.21068  0.06494  0.33743     C
C      0.21068  0.06494  0.66257     C
C      0.21068  0.16257  0.06494     C
C      0.21068  0.16257  0.93506     C
C      0.21068  0.33743  0.43506     C
C      0.21068  0.33743  0.56494     C
C      0.21068  0.43506  0.16257     C
C      0.21068  0.43506  0.83743     C
C      0.21068  0.56494  0.16257     C
C      0.21068  0.56494  0.83743     C
C      0.21068  0.66257  0.43506     C
C      0.21068  0.66257  0.56494     C
C      0.21068  0.83743  0.06494     C
C      0.21068  0.83743  0.93506     C
C      0.21068  0.93506  0.33743     C
C      0.21068  0.93506  0.66257     C
N      0.21609  0.03665  0.31591     N
N      0.21609  0.03665  0.68409     N
N      0.21609  0.18409  0.03665     N
N      0.21609  0.18409  0.96335     N
N      0.21609  0.31591  0.46335     N
N      0.21609  0.31591  0.53665     N
N      0.21609  0.46335  0.18409     N
N      0.21609  0.46335  0.81591     N
N      0.21609  0.53665  0.18409     N
N      0.21609  0.53665  0.81591     N
N      0.21609  0.68409  0.46335     N
N      0.21609  0.68409  0.53665     N
N      0.21609  0.81591  0.03665     N
N      0.21609  0.81591  0.96335     N
N      0.21609  0.96335  0.31591     N
N      0.21609  0.96335  0.68409     N
H       0.2165   0.0695   0.1461     H
H       0.2165   0.0695   0.8539     H
H       0.2165   0.1461   0.4305     H
H       0.2165   0.1461   0.5695     H
H       0.2165   0.3539   0.0695     H
H       0.2165   0.3539   0.9305     H
H       0.2165   0.4305   0.3539     H
H       0.2165   0.4305   0.6461     H
H       0.2165   0.5695   0.3539     H
H       0.2165   0.5695   0.6461     H
H       0.2165   0.6461   0.0695     H
H       0.2165   0.6461   0.9305     H
H       0.2165   0.8539   0.4305     H
H       0.2165   0.8539   0.5695     H
H       0.2165   0.9305   0.1461     H
H       0.2165   0.9305   0.8539     H
H       0.2256    0.072    0.357     H
H       0.2256    0.072    0.643     H
H       0.2256    0.143    0.072     H
H       0.2256    0.143    0.928     H
H       0.2256    0.357    0.428     H
H       0.2256    0.357    0.572     H
H       0.2256    0.428    0.143     H
H       0.2256    0.428    0.857     H
H       0.2256    0.572    0.143     H
H       0.2256    0.572    0.857     H
H       0.2256    0.643    0.428     H
H       0.2256    0.643    0.572     H
H       0.2256    0.857    0.072     H
H       0.2256    0.857    0.928     H
H       0.2256    0.928    0.357     H
H       0.2256    0.928    0.643     H
Co     0.24613      0.0  0.18626    Co
Co     0.24613      0.0  0.81374    Co
Co     0.24613  0.18626      0.5    Co
Co     0.24613  0.31374      0.0    Co
Co     0.24613      0.5  0.31374    Co
Co     0.24613      0.5  0.68626    Co
Co     0.24613  0.68626      0.0    Co
Co     0.24613  0.81374      0.5    Co
Co      0.2483   0.0726  0.13592    Co
Co      0.2483   0.0726  0.86408    Co
Co      0.2483  0.13592   0.4274    Co
Co      0.2483  0.13592   0.5726    Co
Co      0.2483  0.36408   0.0726    Co
Co      0.2483  0.36408   0.9274    Co
Co      0.2483   0.4274  0.36408    Co
Co      0.2483   0.4274  0.63592    Co
Co      0.2483   0.5726  0.36408    Co
Co      0.2483   0.5726  0.63592    Co
Co      0.2483  0.63592   0.0726    Co
Co      0.2483  0.63592   0.9274    Co
Co      0.2483  0.86408   0.4274    Co
Co      0.2483  0.86408   0.5726    Co
Co      0.2483   0.9274  0.13592    Co
Co      0.2483   0.9274  0.86408    Co
Cl        0.25      0.0     0.25    Cl
Cl        0.25      0.0     0.75    Cl
Cl        0.25     0.25      0.0    Cl
Cl        0.25     0.25      0.5    Cl
Cl        0.25      0.5     0.25    Cl
Cl        0.25      0.5     0.75    Cl
Cl        0.25     0.75      0.0    Cl
Cl        0.25     0.75      0.5    Cl
Co      0.2517   0.0726  0.36408    Co
Co      0.2517   0.0726  0.63592    Co
Co      0.2517  0.13592   0.0726    Co
Co      0.2517  0.13592   0.9274    Co
Co      0.2517  0.36408   0.4274    Co
Co      0.2517  0.36408   0.5726    Co
Co      0.2517   0.4274  0.13592    Co
Co      0.2517   0.4274  0.86408    Co
Co      0.2517   0.5726  0.13592    Co
Co      0.2517   0.5726  0.86408    Co
Co      0.2517  0.63592   0.4274    Co
Co      0.2517  0.63592   0.5726    Co
Co      0.2517  0.86408   0.0726    Co
Co      0.2517  0.86408   0.9274    Co
Co      0.2517   0.9274  0.36408    Co
Co      0.2517   0.9274  0.63592    Co
Co     0.25387      0.0  0.31374    Co
Co     0.25387      0.0  0.68626    Co
Co     0.25387  0.18626      0.0    Co
Co     0.25387  0.31374      0.5    Co
Co     0.25387      0.5  0.18626    Co
Co     0.25387      0.5  0.81374    Co
Co     0.25387  0.68626      0.5    Co
Co     0.25387  0.81374      0.0    Co
H       0.2744    0.072    0.143     H
H       0.2744    0.072    0.857     H
H       0.2744    0.143    0.428     H
H       0.2744    0.143    0.572     H
H       0.2744    0.357    0.072     H
H       0.2744    0.357    0.928     H
H       0.2744    0.428    0.357     H
H       0.2744    0.428    0.643     H
H       0.2744    0.572    0.357     H
H       0.2744    0.572    0.643     H
H       0.2744    0.643    0.072     H
H       0.2744    0.643    0.928     H
H       0.2744    0.857    0.428     H
H       0.2744    0.857    0.572     H
H       0.2744    0.928    0.143     H
H       0.2744    0.928    0.857     H
H       0.2835   0.0695   0.3539     H
H       0.2835   0.0695   0.6461     H
H       0.2835   0.1461   0.0695     H
H       0.2835   0.1461   0.9305     H
H       0.2835   0.3539   0.4305     H
H       0.2835   0.3539   0.5695     H
H       0.2835   0.4305   0.1461     H
H       0.2835   0.4305   0.8539     H
H       0.2835   0.5695   0.1461     H
H       0.2835   0.5695   0.8539     H
H       0.2835   0.6461   0.4305     H
H       0.2835   0.6461   0.5695     H
H       0.2835   0.8539   0.0695     H
H       0.2835   0.8539   0.9305     H
H       0.2835   0.9305   0.3539     H
H       0.2835   0.9305   0.6461     H
N      0.28391  0.03665  0.18409     N
N      0.28391  0.03665  0.81591     N
N      0.28391  0.18409  0.46335     N
N      0.28391  0.18409  0.53665     N
N      0.28391  0.31591  0.03665     N
N      0.28391  0.31591  0.96335     N
N      0.28391  0.46335  0.31591     N
N      0.28391  0.46335  0.68409     N
N      0.28391  0.53665  0.31591     N
N      0.28391  0.53665  0.68409     N
N      0.28391  0.68409  0.03665     N
N      0.28391  0.68409  0.96335     N
N      0.28391  0.81591  0.46335     N
N      0.28391  0.81591  0.53665     N
N      0.28391  0.96335  0.18409     N
N      0.28391  0.96335  0.81591     N
C      0.28932  0.06494  0.16257     C
C      0.28932  0.06494  0.83743     C
C      0.28932  0.16257  0.43506     C
C      0.28932  0.16257  0.56494     C
C      0.28932  0.33743  0.06494     C
C      0.28932  0.33743  0.93506     C
C      0.28932  0.43506  0.33743     C
C      0.28932  0.43506  0.66257     C
C      0.28932  0.56494  0.33743     C
C      0.28932  0.56494  0.66257     C
C      0.28932  0.66257  0.06494     C
C      0.28932  0.66257  0.93506     C
C      0.28932  0.83743  0.43506     C
C      0.28932  0.83743  0.56494     C
C      0.28932  0.93506  0.16257     C
C      0.28932  0.93506  0.83743     C
N      0.29175   0.0365   0.3107     N
N      0.29175   0.0365   0.6893     N
N      0.29175   0.1893   0.0365     N
N      0.29175   0.1893   0.9635     N
N      0.29175   0.3107   0.4635     N
N      0.29175   0.3107   0.5365     N
N      0.29175   0.4635   0.1893     N
N      0.29175   0.4635   0.8107     N
N      0.29175   0.5365   0.1893     N
N      0.29175   0.5365   0.8107     N
N      0.29175   0.6893   0.4635     N
N      0.29175   0.6893   0.5365     N
N      0.29175   0.8107   0.0365     N
N      0.29175   0.8107   0.9635     N
N      0.29175   0.9635   0.3107     N
N      0.29175   0.9635   0.6893     N
N      0.29722  0.06378  0.33304     N
N      0.29722  0.06378  0.66696     N
N      0.29722  0.16696  0.06378     N
N      0.29722  0.16696  0.93622     N
N      0.29722  0.33304  0.43622     N
N      0.29722  0.33304  0.56378     N
N      0.29722  0.43622  0.16696     N
N      0.29722  0.43622  0.83304     N
N      0.29722  0.56378  0.16696     N
N      0.29722  0.56378  0.83304     N
N      0.29722  0.66696  0.43622     N
N      0.29722  0.66696  0.56378     N
N      0.29722  0.83304  0.06378     N
N      0.29722  0.83304  0.93622     N
N      0.29722  0.93622  0.33304     N
N      0.29722  0.93622  0.66696     N
H       0.3033   0.1173   0.3778     H
H       0.3033   0.1173   0.6222     H
H       0.3033   0.1222   0.1173     H
H       0.3033   0.1222   0.8827     H
H       0.3033   0.3778   0.3827     H
H       0.3033   0.3778   0.6173     H
H       0.3033   0.3827   0.1222     H
H       0.3033   0.3827   0.8778     H
H       0.3033   0.6173   0.1222     H
H       0.3033   0.6173   0.8778     H
H       0.3033   0.6222   0.3827     H
H       0.3033   0.6222   0.6173     H
H       0.3033   0.8778   0.1173     H
H       0.3033   0.8778   0.8827     H
H       0.3033   0.8827   0.3778     H
H       0.3033   0.8827   0.6222     H
N       0.3107   0.0365  0.20825     N
N       0.3107   0.0365  0.79175     N
N       0.3107  0.20825   0.4635     N
N       0.3107  0.20825   0.5365     N
N       0.3107  0.29175   0.0365     N
N       0.3107  0.29175   0.9635     N
N       0.3107   0.4635  0.29175     N
N       0.3107   0.4635  0.70825     N
N       0.3107   0.5365  0.29175     N
N       0.3107   0.5365  0.70825     N
N       0.3107  0.70825   0.0365     N
N       0.3107  0.70825   0.9635     N
N       0.3107  0.79175   0.4635     N
N       0.3107  0.79175   0.5365     N
N       0.3107   0.9635  0.20825     N
N       0.3107   0.9635  0.79175     N
Co     0.31374      0.0  0.24613    Co
Co     0.31374      0.0  0.75387    Co
Co     0.31374  0.24613      0.5    Co
Co     0.31374  0.25387      0.0    Co
Co     0.31374      0.5  0.25387    Co
Co     0.31374      0.5  0.74613    Co
Co     0.31374  0.74613      0.0    Co
Co     0.31374  0.75387      0.5    Co
N      0.31591  0.03665  0.28391     N
N      0.31591  0.03665  0.71609     N
N      0.31591  0.21609  0.03665     N
N      0.31591  0.21609  0.96335     N
N      0.31591  0.28391  0.46335     N
N      0.31591  0.28391  0.53665     N
N      0.31591  0.46335  0.21609     N
N      0.31591  0.46335  0.78391     N
N      0.31591  0.53665  0.21609     N
N      0.31591  0.53665  0.78391     N
N      0.31591  0.71609  0.46335     N
N      0.31591  0.71609  0.53665     N
N      0.31591  0.78391  0.03665     N
N      0.31591  0.78391  0.96335     N
N      0.31591  0.96335  0.28391     N
N      0.31591  0.96335  0.71609     N
C      0.32027  0.08208  0.17374     C
C      0.32027  0.08208  0.82626     C
C      0.32027  0.17374  0.41792     C
C      0.32027  0.17374  0.58208     C
C      0.32027  0.32626  0.08208     C
C      0.32027  0.32626  0.91792     C
C      0.32027  0.41792  0.32626     C
C      0.32027  0.41792  0.67374     C
C      0.32027  0.58208  0.32626     C
C      0.32027  0.58208  0.67374     C
C      0.32027  0.67374  0.08208     C
C      0.32027  0.67374  0.91792     C
C      0.32027  0.82626  0.41792     C
C      0.32027  0.82626  0.58208     C
C      0.32027  0.91792  0.17374     C
C      0.32027  0.91792  0.82626     C
C      0.32421  0.12868  0.36842     C
C      0.32421  0.12868  0.63158     C
C      0.32421  0.13158  0.12868     C
C      0.32421  0.13158  0.87132     C
C      0.32421  0.36842  0.37132     C
C      0.32421  0.36842  0.62868     C
C      0.32421  0.37132  0.13158     C
C      0.32421  0.37132  0.86842     C
C      0.32421  0.62868  0.13158     C
C      0.32421  0.62868  0.86842     C
C      0.32421  0.63158  0.37132     C
C      0.32421  0.63158  0.62868     C
C      0.32421  0.86842  0.12868     C
C      0.32421  0.86842  0.87132     C
C      0.32421  0.87132  0.36842     C
C      0.32421  0.87132  0.63158     C
C      0.32626  0.08208  0.32027     C
C      0.32626  0.08208  0.67973     C
C      0.32626  0.17973  0.08208     C
C      0.32626  0.17973  0.91792     C
C      0.32626  0.32027  0.41792     C
C      0.32626  0.32027  0.58208     C
C      0.32626  0.41792  0.17973     C
C      0.32626  0.41792  0.82027     C
C      0.32626  0.58208  0.17973     C
C      0.32626  0.58208  0.82027     C
C      0.32626  0.67973  0.41792     C
C      0.32626  0.67973  0.58208     C
C      0.32626  0.82027  0.08208     C
C      0.32626  0.82027  0.91792     C
C      0.32626  0.91792  0.32027     C
C      0.32626  0.91792  0.67973     C
C      0.33304  0.06378  0.20278     C
C      0.33304  0.06378  0.79722     C
N      0.33304  0.20278  0.43622     N
N      0.33304  0.20278  0.56378     N
N      0.33304  0.29722  0.06378     N
N      0.33304  0.29722  0.93622     N
C      0.33304  0.43622  0.29722     C
C      0.33304  0.43622  0.70278     C
C      0.33304  0.56378  0.29722     C
C      0.33304  0.56378  0.70278     C
N      0.33304  0.70278  0.06378     N
N      0.33304  0.70278  0.93622     N
N      0.33304  0.79722  0.43622     N
N      0.33304  0.79722  0.56378     N
C      0.33304  0.93622  0.20278     C
C      0.33304  0.93622  0.79722     C
C      0.33743  0.06494  0.28932     C
C      0.33743  0.06494  0.71068     C
C      0.33743  0.21068  0.06494     C
C      0.33743  0.21068  0.93506     C
C      0.33743  0.28932  0.43506     C
C      0.33743  0.28932  0.56494     C
C      0.33743  0.43506  0.21068     C
C      0.33743  0.43506  0.78932     C
C      0.33743  0.56494  0.21068     C
C      0.33743  0.56494  0.78932     C
C      0.33743  0.71068  0.43506     C
C      0.33743  0.71068  0.56494     C
C      0.33743  0.78932  0.06494     C
C      0.33743  0.78932  0.93506     C
C      0.33743  0.93506  0.28932     C
C      0.33743  0.93506  0.71068     C
C       0.3378  0.11453  0.15923     C
C       0.3378  0.11453  0.84077     C
C       0.3378  0.15923  0.38547     C
C       0.3378  0.15923  0.61453     C
C       0.3378  0.34077  0.11453     C
C       0.3378  0.34077  0.88547     C
C       0.3378  0.38547  0.34077     C
C       0.3378  0.38547  0.65923     C
C       0.3378  0.61453  0.34077     C
C       0.3378  0.61453  0.65923     C
C       0.3378  0.65923  0.11453     C
C       0.3378  0.65923  0.88547     C
C       0.3378  0.84077  0.38547     C
C       0.3378  0.84077  0.61453     C
C       0.3378  0.88547  0.15923     C
C       0.3378  0.88547  0.84077     C
C      0.34077  0.11453   0.3378     C
C      0.34077  0.11453   0.6622     C
C      0.34077   0.1622  0.11453     C
C      0.34077   0.1622  0.88547     C
C      0.34077   0.3378  0.38547     C
C      0.34077   0.3378  0.61453     C
C      0.34077  0.38547   0.1622     C
C      0.34077  0.38547   0.8378     C
C      0.34077  0.61453   0.1622     C
C      0.34077  0.61453   0.8378     C
C      0.34077   0.6622  0.38547     C
C      0.34077   0.6622  0.61453     C
C      0.34077   0.8378  0.11453     C
C      0.34077   0.8378  0.88547     C
C      0.34077  0.88547   0.3378     C
C      0.34077  0.88547   0.6622     C
H       0.3539   0.0695   0.2165     H
H       0.3539   0.0695   0.7835     H
H       0.3539   0.2165   0.4305     H
H       0.3539   0.2165   0.5695     H
H       0.3539   0.2835   0.0695     H
H       0.3539   0.2835   0.9305     H
H       0.3539   0.4305   0.2835     H
H       0.3539   0.4305   0.7165     H
H       0.3539   0.5695   0.2835     H
H       0.3539   0.5695   0.7165     H
H       0.3539   0.7165   0.0695     H
H       0.3539   0.7165   0.9305     H
H       0.3539   0.7835   0.4305     H
H       0.3539   0.7835   0.5695     H
H       0.3539   0.9305   0.2165     H
H       0.3539   0.9305   0.7835     H
H        0.357    0.072   0.2744     H
H        0.357    0.072   0.7256     H
H        0.357   0.2256    0.072     H
H        0.357   0.2256    0.928     H
H        0.357   0.2744    0.428     H
H        0.357   0.2744    0.572     H
H        0.357    0.428   0.2256     H
H        0.357    0.428   0.7744     H
H        0.357    0.572   0.2256     H
H        0.357    0.572   0.7744     H
H        0.357   0.7256    0.428     H
H        0.357   0.7256    0.572     H
H        0.357   0.7744    0.072     H
H        0.357   0.7744    0.928     H
H        0.357    0.928   0.2744     H
H        0.357    0.928   0.7256     H
Co     0.36408   0.0726   0.2483    Co
Co     0.36408   0.0726   0.7517    Co
Co     0.36408   0.2483   0.4274    Co
Co     0.36408   0.2483   0.5726    Co
Co     0.36408   0.2517   0.0726    Co
Co     0.36408   0.2517   0.9274    Co
Co     0.36408   0.4274   0.2517    Co
Co     0.36408   0.4274   0.7483    Co
Co     0.36408   0.5726   0.2517    Co
Co     0.36408   0.5726   0.7483    Co
Co     0.36408   0.7483   0.0726    Co
Co     0.36408   0.7483   0.9274    Co
Co     0.36408   0.7517   0.4274    Co
Co     0.36408   0.7517   0.5726    Co
Co     0.36408   0.9274   0.2483    Co
Co     0.36408   0.9274   0.7517    Co
C      0.36842  0.12868  0.17579     C
C      0.36842  0.12868  0.82421     C
C      0.36842  0.17579  0.37132     C
C      0.36842  0.17579  0.62868     C
C      0.36842  0.32421  0.12868     C
C      0.36842  0.32421  0.87132     C
C      0.36842  0.37132  0.32421     C
C      0.36842  0.37132  0.67579     C
C      0.36842  0.62868  0.32421     C
C      0.36842  0.62868  0.67579     C
C      0.36842  0.67579  0.12868     C
C      0.36842  0.67579  0.87132     C
C      0.36842  0.82421  0.37132     C
C      0.36842  0.82421  0.62868     C
C      0.36842  0.87132  0.17579     C
C      0.36842  0.87132  0.82421     C
C      0.37132  0.13158  0.32421     C
C      0.37132  0.13158  0.67579     C
C      0.37132  0.17579  0.13158     C
C      0.37132  0.17579  0.86842     C
C      0.37132  0.32421  0.36842     C
C      0.37132  0.32421  0.63158     C
C      0.37132  0.36842  0.17579     C
C      0.37132  0.36842  0.82421     C
C      0.37132  0.63158  0.17579     C
C      0.37132  0.63158  0.82421     C
C      0.37132  0.67579  0.36842     C
C      0.37132  0.67579  0.63158     C
C      0.37132  0.82421  0.13158     C
C      0.37132  0.82421  0.86842     C
C      0.37132  0.86842  0.32421     C
C      0.37132  0.86842  0.67579     C
H       0.3778   0.1173   0.1967     H
H       0.3778   0.1173   0.8033     H
H       0.3778   0.1967   0.3827     H
H       0.3778   0.1967   0.6173     H
H       0.3778   0.3033   0.1173     H
H       0.3778   0.3033   0.8827     H
H       0.3778   0.3827   0.3033     H
H       0.3778   0.3827   0.6967     H
H       0.3778   0.6173   0.3033     H
H       0.3778   0.6173   0.6967     H
H       0.3778   0.6967   0.1173     H
H       0.3778   0.6967   0.8827     H
H       0.3778   0.8033   0.3827     H
H       0.3778   0.8033   0.6173     H
H       0.3778   0.8827   0.1967     H
H       0.3778   0.8827   0.8033     H
H       0.3827   0.1222   0.3033     H
H       0.3827   0.1222   0.6967     H
H       0.3827   0.1967   0.1222     H
H       0.3827   0.1967   0.8778     H
H       0.3827   0.3033   0.3778     H
H       0.3827   0.3033   0.6222     H
H       0.3827   0.3778   0.1967     H
H       0.3827   0.3778   0.8033     H
H       0.3827   0.6222   0.1967     H
H       0.3827   0.6222   0.8033     H
H       0.3827   0.6967   0.3778     H
H       0.3827   0.6967   0.6222     H
H       0.3827   0.8033   0.1222     H
H       0.3827   0.8033   0.8778     H
H       0.3827   0.8778   0.3033     H
H       0.3827   0.8778   0.6967     H
C      0.38547  0.15923   0.1622     C
C      0.38547  0.15923   0.8378     C
C      0.38547   0.1622  0.34077     C
C      0.38547   0.1622  0.65923     C
C      0.38547   0.3378  0.15923     C
C      0.38547   0.3378  0.84077     C
C      0.38547  0.34077   0.3378     C
C      0.38547  0.34077   0.6622     C
C      0.38547  0.65923   0.3378     C
C      0.38547  0.65923   0.6622     C
C      0.38547   0.6622  0.15923     C
C      0.38547   0.6622  0.84077     C
C      0.38547   0.8378  0.34077     C
C      0.38547   0.8378  0.65923     C
C      0.38547  0.84077   0.1622     C
C      0.38547  0.84077   0.8378     C
C      0.41792  0.17374  0.17973     C
C      0.41792  0.17374  0.82027     C
C      0.41792  0.17973  0.32626     C
C      0.41792  0.17973  0.67374     C
C      0.41792  0.32027  0.17374     C
C      0.41792  0.32027  0.82626     C
C      0.41792  0.32626  0.32027     C
C      0.41792  0.32626  0.67973     C
C      0.41792  0.67374  0.32027     C
C      0.41792  0.67374  0.67973     C
C      0.41792  0.67973  0.17374     C
C      0.41792  0.67973  0.82626     C
C      0.41792  0.82027  0.32626     C
C      0.41792  0.82027  0.67374     C
C      0.41792  0.82626  0.17973     C
C      0.41792  0.82626  0.82027     C
Co      0.4274  0.13592   0.2517    Co
Co      0.4274  0.13592   0.7483    Co
Co      0.4274   0.2483  0.13592    Co
Co      0.4274   0.2483  0.86408    Co
Co      0.4274   0.2517  0.36408    Co
Co      0.4274   0.2517  0.63592    Co
Co      0.4274  0.36408   0.2483    Co
Co      0.4274  0.36408   0.7517    Co
Co      0.4274  0.63592   0.2483    Co
Co      0.4274  0.63592   0.7517    Co
Co      0.4274   0.7483  0.36408    Co
Co      0.4274   0.7483  0.63592    Co
Co      0.4274   0.7517  0.13592    Co
Co      0.4274   0.7517  0.86408    Co
Co      0.4274  0.86408   0.2517    Co
Co      0.4274  0.86408   0.7483    Co
H        0.428    0.143   0.2256     H
H        0.428    0.143   0.7744     H
H        0.428   0.2256    0.357     H
H        0.428   0.2256    0.643     H
H        0.428   0.2744    0.143     H
H        0.428   0.2744    0.857     H
H        0.428    0.357   0.2744     H
H        0.428    0.357   0.7256     H
H        0.428    0.643   0.2744     H
H        0.428    0.643   0.7256     H
H        0.428   0.7256    0.143     H
H        0.428   0.7256    0.857     H
H        0.428   0.7744    0.357     H
H        0.428   0.7744    0.643     H
H        0.428    0.857   0.2256     H
H        0.428    0.857   0.7744     H
H       0.4305   0.1461   0.2835     H
H       0.4305   0.1461   0.7165     H
H       0.4305   0.2165   0.1461     H
H       0.4305   0.2165   0.8539     H
H       0.4305   0.2835   0.3539     H
H       0.4305   0.2835   0.6461     H
H       0.4305   0.3539   0.2165     H
H       0.4305   0.3539   0.7835     H
H       0.4305   0.6461   0.2165     H
H       0.4305   0.6461   0.7835     H
H       0.4305   0.7165   0.3539     H
H       0.4305   0.7165   0.6461     H
H       0.4305   0.7835   0.1461     H
H       0.4305   0.7835   0.8539     H
H       0.4305   0.8539   0.2835     H
H       0.4305   0.8539   0.7165     H
C      0.43506  0.16257  0.21068     C
C      0.43506  0.16257  0.78932     C
C      0.43506  0.21068  0.33743     C
C      0.43506  0.21068  0.66257     C
C      0.43506  0.28932  0.16257     C
C      0.43506  0.28932  0.83743     C
C      0.43506  0.33743  0.28932     C
C      0.43506  0.33743  0.71068     C
C      0.43506  0.66257  0.28932     C
C      0.43506  0.66257  0.71068     C
C      0.43506  0.71068  0.16257     C
C      0.43506  0.71068  0.83743     C
C      0.43506  0.78932  0.33743     C
C      0.43506  0.78932  0.66257     C
C      0.43506  0.83743  0.21068     C
C      0.43506  0.83743  0.78932     C
C      0.43622  0.16696  0.29722     C
C      0.43622  0.16696  0.70278     C
N      0.43622  0.20278  0.16696     N
N      0.43622  0.20278  0.83304     N
N      0.43622  0.29722  0.33304     N
N      0.43622  0.29722  0.66696     N
C      0.43622  0.33304  0.20278     C
C      0.43622  0.33304  0.79722     C
C      0.43622  0.66696  0.20278     C
C      0.43622  0.66696  0.79722     C
N      0.43622  0.70278  0.33304     N
N      0.43622  0.70278  0.66696     N
N      0.43622  0.79722  0.16696     N
N      0.43622  0.79722  0.83304     N
C      0.43622  0.83304  0.29722     C
C      0.43622  0.83304  0.70278     C
N      0.46335  0.18409  0.21609     N
N      0.46335  0.18409  0.78391     N
N      0.46335  0.21609  0.31591     N
N      0.46335  0.21609  0.68409     N
N      0.46335  0.28391  0.18409     N
N      0.46335  0.28391  0.81591     N
N      0.46335  0.31591  0.28391     N
N      0.46335  0.31591  0.71609     N
N      0.46335  0.68409  0.28391     N
N      0.46335  0.68409  0.71609     N
N      0.46335  0.71609  0.18409     N
N      0.46335  0.71609  0.81591     N
N      0.46335  0.78391  0.31591     N
N      0.46335  0.78391  0.68409     N
N      0.46335  0.81591  0.21609     N
N      0.46335  0.81591  0.78391     N
N       0.4635   0.1893  0.29175     N
N       0.4635   0.1893  0.70825     N
N       0.4635  0.20825   0.1893     N
N       0.4635  0.20825   0.8107     N
N       0.4635  0.29175   0.3107     N
N       0.4635  0.29175   0.6893     N
N       0.4635   0.3107  0.20825     N
N       0.4635   0.3107  0.79175     N
N       0.4635   0.6893  0.20825     N
N       0.4635   0.6893  0.79175     N
N       0.4635  0.70825   0.3107     N
N       0.4635  0.70825   0.6893     N
N       0.4635  0.79175   0.1893     N
N       0.4635  0.79175   0.8107     N
N       0.4635   0.8107  0.29175     N
N       0.4635   0.8107  0.70825     N
Co         0.5  0.18626  0.25387    Co
Co         0.5  0.18626  0.74613    Co
Co         0.5  0.24613  0.18626    Co
Co         0.5  0.24613  0.81374    Co
Cl         0.5     0.25     0.25    Cl
Cl         0.5     0.25     0.75    Cl
Co         0.5  0.25387  0.31374    Co
Co         0.5  0.25387  0.68626    Co
Co         0.5  0.31374  0.24613    Co
Co         0.5  0.31374  0.75387    Co
Co         0.5  0.68626  0.24613    Co
Co         0.5  0.68626  0.75387    Co
Co         0.5  0.74613  0.31374    Co
Co         0.5  0.74613  0.68626    Co
Cl         0.5     0.75     0.25    Cl
Cl         0.5     0.75     0.75    Cl
Co         0.5  0.75387  0.18626    Co
Co         0.5  0.75387  0.81374    Co
Co         0.5  0.81374  0.25387    Co
Co         0.5  0.81374  0.74613    Co
N       0.5365   0.1893  0.29175     N
N       0.5365   0.1893  0.70825     N
N       0.5365  0.20825   0.1893     N
N       0.5365  0.20825   0.8107     N
N       0.5365  0.29175   0.3107     N
N       0.5365  0.29175   0.6893     N
N       0.5365   0.3107  0.20825     N
N       0.5365   0.3107  0.79175     N
N       0.5365   0.6893  0.20825     N
N       0.5365   0.6893  0.79175     N
N       0.5365  0.70825   0.3107     N
N       0.5365  0.70825   0.6893     N
N       0.5365  0.79175   0.1893     N
N       0.5365  0.79175   0.8107     N
N       0.5365   0.8107  0.29175     N
N       0.5365   0.8107  0.70825     N
N      0.53665  0.18409  0.21609     N
N      0.53665  0.18409  0.78391     N
N      0.53665  0.21609  0.31591     N
N      0.53665  0.21609  0.68409     N
N      0.53665  0.28391  0.18409     N
N      0.53665  0.28391  0.81591     N
N      0.53665  0.31591  0.28391     N
N      0.53665  0.31591  0.71609     N
N      0.53665  0.68409  0.28391     N
N      0.53665  0.68409  0.71609     N
N      0.53665  0.71609  0.18409     N
N      0.53665  0.71609  0.81591     N
N      0.53665  0.78391  0.31591     N
N      0.53665  0.78391  0.68409     N
N      0.53665  0.81591  0.21609     N
N      0.53665  0.81591  0.78391     N
C      0.56378  0.16696  0.29722     C
C      0.56378  0.16696  0.70278     C
N      0.56378  0.20278  0.16696     N
N      0.56378  0.20278  0.83304     N
N      0.56378  0.29722  0.33304     N
N      0.56378  0.29722  0.66696     N
C      0.56378  0.33304  0.20278     C
C      0.56378  0.33304  0.79722     C
C      0.56378  0.66696  0.20278     C
C      0.56378  0.66696  0.79722     C
N      0.56378  0.70278  0.33304     N
N      0.56378  0.70278  0.66696     N
N      0.56378  0.79722  0.16696     N
N      0.56378  0.79722  0.83304     N
C      0.56378  0.83304  0.29722     C
C      0.56378  0.83304  0.70278     C
C      0.56494  0.16257  0.21068     C
C      0.56494  0.16257  0.78932     C
C      0.56494  0.21068  0.33743     C
C      0.56494  0.21068  0.66257     C
C      0.56494  0.28932  0.16257     C
C      0.56494  0.28932  0.83743     C
C      0.56494  0.33743  0.28932     C
C      0.56494  0.33743  0.71068     C
C      0.56494  0.66257  0.28932     C
C      0.56494  0.66257  0.71068     C
C      0.56494  0.71068  0.16257     C
C      0.56494  0.71068  0.83743     C
C      0.56494  0.78932  0.33743     C
C      0.56494  0.78932  0.66257     C
C      0.56494  0.83743  0.21068     C
C      0.56494  0.83743  0.78932     C
H       0.5695   0.1461   0.2835     H
H       0.5695   0.1461   0.7165     H
H       0.5695   0.2165   0.1461     H
H       0.5695   0.2165   0.8539     H
H       0.5695   0.2835   0.3539     H
H       0.5695   0.2835   0.6461     H
H       0.5695   0.3539   0.2165     H
H       0.5695   0.3539   0.7835     H
H       0.5695   0.6461   0.2165     H
H       0.5695   0.6461   0.7835     H
H       0.5695   0.7165   0.3539     H
H       0.5695   0.7165   0.6461     H
H       0.5695   0.7835   0.1461     H
H       0.5695   0.7835   0.8539     H
H       0.5695   0.8539   0.2835     H
H       0.5695   0.8539   0.7165     H
H        0.572    0.143   0.2256     H
H        0.572    0.143   0.7744     H
H        0.572   0.2256    0.357     H
H        0.572   0.2256    0.643     H
H        0.572   0.2744    0.143     H
H        0.572   0.2744    0.857     H
H        0.572    0.357   0.2744     H
H        0.572    0.357   0.7256     H
H        0.572    0.643   0.2744     H
H        0.572    0.643   0.7256     H
H        0.572   0.7256    0.143     H
H        0.572   0.7256    0.857     H
H        0.572   0.7744    0.357     H
H        0.572   0.7744    0.643     H
H        0.572    0.857   0.2256     H
H        0.572    0.857   0.7744     H
Co      0.5726  0.13592   0.2517    Co
Co      0.5726  0.13592   0.7483    Co
Co      0.5726   0.2483  0.13592    Co
Co      0.5726   0.2483  0.86408    Co
Co      0.5726   0.2517  0.36408    Co
Co      0.5726   0.2517  0.63592    Co
Co      0.5726  0.36408   0.2483    Co
Co      0.5726  0.36408   0.7517    Co
Co      0.5726  0.63592   0.2483    Co
Co      0.5726  0.63592   0.7517    Co
Co      0.5726   0.7483  0.36408    Co
Co      0.5726   0.7483  0.63592    Co
Co      0.5726   0.7517  0.13592    Co
Co      0.5726   0.7517  0.86408    Co
Co      0.5726  0.86408   0.2517    Co
Co      0.5726  0.86408   0.7483    Co
C      0.58208  0.17374  0.17973     C
C      0.58208  0.17374  0.82027     C
C      0.58208  0.17973  0.32626     C
C      0.58208  0.17973  0.67374     C
C      0.58208  0.32027  0.17374     C
C      0.58208  0.32027  0.82626     C
C      0.58208  0.32626  0.32027     C
C      0.58208  0.32626  0.67973     C
C      0.58208  0.67374  0.32027     C
C      0.58208  0.67374  0.67973     C
C      0.58208  0.67973  0.17374     C
C      0.58208  0.67973  0.82626     C
C      0.58208  0.82027  0.32626     C
C      0.58208  0.82027  0.67374     C
C      0.58208  0.82626  0.17973     C
C      0.58208  0.82626  0.82027     C
C      0.61453  0.15923   0.1622     C
C      0.61453  0.15923   0.8378     C
C      0.61453   0.1622  0.34077     C
C      0.61453   0.1622  0.65923     C
C      0.61453   0.3378  0.15923     C
C      0.61453   0.3378  0.84077     C
C      0.61453  0.34077   0.3378     C
C      0.61453  0.34077   0.6622     C
C      0.61453  0.65923   0.3378     C
C      0.61453  0.65923   0.6622     C
C      0.61453   0.6622  0.15923     C
C      0.61453   0.6622  0.84077     C
C      0.61453   0.8378  0.34077     C
C      0.61453   0.8378  0.65923     C
C      0.61453  0.84077   0.1622     C
C      0.61453  0.84077   0.8378     C
H       0.6173   0.1222   0.3033     H
H       0.6173   0.1222   0.6967     H
H       0.6173   0.1967   0.1222     H
H       0.6173   0.1967   0.8778     H
H       0.6173   0.3033   0.3778     H
H       0.6173   0.3033   0.6222     H
H       0.6173   0.3778   0.1967     H
H       0.6173   0.3778   0.8033     H
H       0.6173   0.6222   0.1967     H
H       0.6173   0.6222   0.8033     H
H       0.6173   0.6967   0.3778     H
H       0.6173   0.6967   0.6222     H
H       0.6173   0.8033   0.1222     H
H       0.6173   0.8033   0.8778     H
H       0.6173   0.8778   0.3033     H
H       0.6173   0.8778   0.6967     H
H       0.6222   0.1173   0.1967     H
H       0.6222   0.1173   0.8033     H
H       0.6222   0.1967   0.3827     H
H       0.6222   0.1967   0.6173     H
H       0.6222   0.3033   0.1173     H
H       0.6222   0.3033   0.8827     H
H       0.6222   0.3827   0.3033     H
H       0.6222   0.3827   0.6967     H
H       0.6222   0.6173   0.3033     H
H       0.6222   0.6173   0.6967     H
H       0.6222   0.6967   0.1173     H
H       0.6222   0.6967   0.8827     H
H       0.6222   0.8033   0.3827     H
H       0.6222   0.8033   0.6173     H
H       0.6222   0.8827   0.1967     H
H       0.6222   0.8827   0.8033     H
C      0.62868  0.13158  0.32421     C
C      0.62868  0.13158  0.67579     C
C      0.62868  0.17579  0.13158     C
C      0.62868  0.17579  0.86842     C
C      0.62868  0.32421  0.36842     C
C      0.62868  0.32421  0.63158     C
C      0.62868  0.36842  0.17579     C
C      0.62868  0.36842  0.82421     C
C      0.62868  0.63158  0.17579     C
C      0.62868  0.63158  0.82421     C
C      0.62868  0.67579  0.36842     C
C      0.62868  0.67579  0.63158     C
C      0.62868  0.82421  0.13158     C
C      0.62868  0.82421  0.86842     C
C      0.62868  0.86842  0.32421     C
C      0.62868  0.86842  0.67579     C
C      0.63158  0.12868  0.17579     C
C      0.63158  0.12868  0.82421     C
C      0.63158  0.17579  0.37132     C
C      0.63158  0.17579  0.62868     C
C      0.63158  0.32421  0.12868     C
C      0.63158  0.32421  0.87132     C
C      0.63158  0.37132  0.32421     C
C      0.63158  0.37132  0.67579     C
C      0.63158  0.62868  0.32421     C
C      0.63158  0.62868  0.67579     C
C      0.63158  0.67579  0.12868     C
C      0.63158  0.67579  0.87132     C
C      0.63158  0.82421  0.37132     C
C      0.63158  0.82421  0.62868     C
C      0.63158  0.87132  0.17579     C
C      0.63158  0.87132  0.82421     C
Co     0.63592   0.0726   0.2483    Co
Co     0.63592   0.0726   0.7517    Co
Co     0.63592   0.2483   0.4274    Co
Co     0.63592   0.2483   0.5726    Co
Co     0.63592   0.2517   0.0726    Co
Co     0.63592   0.2517   0.9274    Co
Co     0.63592   0.4274   0.2517    Co
Co     0.63592   0.4274   0.7483    Co
Co     0.63592   0.5726   0.2517    Co
Co     0.63592   0.5726   0.7483    Co
Co     0.63592   0.7483   0.0726    Co
Co     0.63592   0.7483   0.9274    Co
Co     0.63592   0.7517   0.4274    Co
Co     0.63592   0.7517   0.5726    Co
Co     0.63592   0.9274   0.2483    Co
Co     0.63592   0.9274   0.7517    Co
H        0.643    0.072   0.2744     H
H        0.643    0.072   0.7256     H
H        0.643   0.2256    0.072     H
H        0.643   0.2256    0.928     H
H        0.643   0.2744    0.428     H
H        0.643   0.2744    0.572     H
H        0.643    0.428   0.2256     H
H        0.643    0.428   0.7744     H
H        0.643    0.572   0.2256     H
H        0.643    0.572   0.7744     H
H        0.643   0.7256    0.428     H
H        0.643   0.7256    0.572     H
H        0.643   0.7744    0.072     H
H        0.643   0.7744    0.928     H
H        0.643    0.928   0.2744     H
H        0.643    0.928   0.7256     H
H       0.6461   0.0695   0.2165     H
H       0.6461   0.0695   0.7835     H
H       0.6461   0.2165   0.4305     H
H       0.6461   0.2165   0.5695     H
H       0.6461   0.2835   0.0695     H
H       0.6461   0.2835   0.9305     H
H       0.6461   0.4305   0.2835     H
H       0.6461   0.4305   0.7165     H
H       0.6461   0.5695   0.2835     H
H       0.6461   0.5695   0.7165     H
H       0.6461   0.7165   0.0695     H
H       0.6461   0.7165   0.9305     H
H       0.6461   0.7835   0.4305     H
H       0.6461   0.7835   0.5695     H
H       0.6461   0.9305   0.2165     H
H       0.6461   0.9305   0.7835     H
C      0.65923  0.11453   0.3378     C
C      0.65923  0.11453   0.6622     C
C      0.65923   0.1622  0.11453     C
C      0.65923   0.1622  0.88547     C
C      0.65923   0.3378  0.38547     C
C      0.65923   0.3378  0.61453     C
C      0.65923  0.38547   0.1622     C
C      0.65923  0.38547   0.8378     C
C      0.65923  0.61453   0.1622     C
C      0.65923  0.61453   0.8378     C
C      0.65923   0.6622  0.38547     C
C      0.65923   0.6622  0.61453     C
C      0.65923   0.8378  0.11453     C
C      0.65923   0.8378  0.88547     C
C      0.65923  0.88547   0.3378     C
C      0.65923  0.88547   0.6622     C
C       0.6622  0.11453  0.15923     C
C       0.6622  0.11453  0.84077     C
C       0.6622  0.15923  0.38547     C
C       0.6622  0.15923  0.61453     C
C       0.6622  0.34077  0.11453     C
C       0.6622  0.34077  0.88547     C
C       0.6622  0.38547  0.34077     C
C       0.6622  0.38547  0.65923     C
C       0.6622  0.61453  0.34077     C
C       0.6622  0.61453  0.65923     C
C       0.6622  0.65923  0.11453     C
C       0.6622  0.65923  0.88547     C
C       0.6622  0.84077  0.38547     C
C       0.6622  0.84077  0.61453     C
C       0.6622  0.88547  0.15923     C
C       0.6622  0.88547  0.84077     C
C      0.66257  0.06494  0.28932     C
C      0.66257  0.06494  0.71068     C
C      0.66257  0.21068  0.06494     C
C      0.66257  0.21068  0.93506     C
C      0.66257  0.28932  0.43506     C
C      0.66257  0.28932  0.56494     C
C      0.66257  0.43506  0.21068     C
C      0.66257  0.43506  0.78932     C
C      0.66257  0.56494  0.21068     C
C      0.66257  0.56494  0.78932     C
C      0.66257  0.71068  0.43506     C
C      0.66257  0.71068  0.56494     C
C      0.66257  0.78932  0.06494     C
C      0.66257  0.78932  0.93506     C
C      0.66257  0.93506  0.28932     C
C      0.66257  0.93506  0.71068     C
C      0.66696  0.06378  0.20278     C
C      0.66696  0.06378  0.79722     C
N      0.66696  0.20278  0.43622     N
N      0.66696  0.20278  0.56378     N
N      0.66696  0.29722  0.06378     N
N      0.66696  0.29722  0.93622     N
C      0.66696  0.43622  0.29722     C
C      0.66696  0.43622  0.70278     C
C      0.66696  0.56378  0.29722     C
C      0.66696  0.56378  0.70278     C
N      0.66696  0.70278  0.06378     N
N      0.66696  0.70278  0.93622     N
N      0.66696  0.79722  0.43622     N
N      0.66696  0.79722  0.56378     N
C      0.66696  0.93622  0.20278     C
C      0.66696  0.93622  0.79722     C
C      0.67374  0.08208  0.32027     C
C      0.67374  0.08208  0.67973     C
C      0.67374  0.17973  0.08208     C
C      0.67374  0.17973  0.91792     C
C      0.67374  0.32027  0.41792     C
C      0.67374  0.32027  0.58208     C
C      0.67374  0.41792  0.17973     C
C      0.67374  0.41792  0.82027     C
C      0.67374  0.58208  0.17973     C
C      0.67374  0.58208  0.82027     C
C      0.67374  0.67973  0.41792     C
C      0.67374  0.67973  0.58208     C
C      0.67374  0.82027  0.08208     C
C      0.67374  0.82027  0.91792     C
C      0.67374  0.91792  0.32027     C
C      0.67374  0.91792  0.67973     C
C      0.67579  0.12868  0.36842     C
C      0.67579  0.12868  0.63158     C
C      0.67579  0.13158  0.12868     C
C      0.67579  0.13158  0.87132     C
C      0.67579  0.36842  0.37132     C
C      0.67579  0.36842  0.62868     C
C      0.67579  0.37132  0.13158     C
C      0.67579  0.37132  0.86842     C
C      0.67579  0.62868  0.13158     C
C      0.67579  0.62868  0.86842     C
C      0.67579  0.63158  0.37132     C
C      0.67579  0.63158  0.62868     C
C      0.67579  0.86842  0.12868     C
C      0.67579  0.86842  0.87132     C
C      0.67579  0.87132  0.36842     C
C      0.67579  0.87132  0.63158     C
C      0.67973  0.08208  0.17374     C
C      0.67973  0.08208  0.82626     C
C      0.67973  0.17374  0.41792     C
C      0.67973  0.17374  0.58208     C
C      0.67973  0.32626  0.08208     C
C      0.67973  0.32626  0.91792     C
C      0.67973  0.41792  0.32626     C
C      0.67973  0.41792  0.67374     C
C      0.67973  0.58208  0.32626     C
C      0.67973  0.58208  0.67374     C
C      0.67973  0.67374  0.08208     C
C      0.67973  0.67374  0.91792     C
C      0.67973  0.82626  0.41792     C
C      0.67973  0.82626  0.58208     C
C      0.67973  0.91792  0.17374     C
C      0.67973  0.91792  0.82626     C
N      0.68409  0.03665  0.28391     N
N      0.68409  0.03665  0.71609     N
N      0.68409  0.21609  0.03665     N
N      0.68409  0.21609  0.96335     N
N      0.68409  0.28391  0.46335     N
N      0.68409  0.28391  0.53665     N
N      0.68409  0.46335  0.21609     N
N      0.68409  0.46335  0.78391     N
N      0.68409  0.53665  0.21609     N
N      0.68409  0.53665  0.78391     N
N      0.68409  0.71609  0.46335     N
N      0.68409  0.71609  0.53665     N
N      0.68409  0.78391  0.03665     N
N      0.68409  0.78391  0.96335     N
N      0.68409  0.96335  0.28391     N
N      0.68409  0.96335  0.71609     N
Co     0.68626      0.0  0.24613    Co
Co     0.68626      0.0  0.75387    Co
Co     0.68626  0.24613      0.5    Co
Co     0.68626  0.25387      0.0    Co
Co     0.68626      0.5  0.25387    Co
Co     0.68626      0.5  0.74613    Co
Co     0.68626  0.74613      0.0    Co
Co     0.68626  0.75387      0.5    Co
N       0.6893   0.0365  0.20825     N
N       0.6893   0.0365  0.79175     N
N       0.6893  0.20825   0.4635     N
N       0.6893  0.20825   0.5365     N
N       0.6893  0.29175   0.0365     N
N       0.6893  0.29175   0.9635     N
N       0.6893   0.4635  0.29175     N
N       0.6893   0.4635  0.70825     N
N       0.6893   0.5365  0.29175     N
N       0.6893   0.5365  0.70825     N
N       0.6893  0.70825   0.0365     N
N       0.6893  0.70825   0.9635     N
N       0.6893  0.79175   0.4635     N
N       0.6893  0.79175   0.5365     N
N       0.6893   0.9635  0.20825     N
N       0.6893   0.9635  0.79175     N
H       0.6967   0.1173   0.3778     H
H       0.6967   0.1173   0.6222     H
H       0.6967   0.1222   0.1173     H
H       0.6967   0.1222   0.8827     H
H       0.6967   0.3778   0.3827     H
H       0.6967   0.3778   0.6173     H
H       0.6967   0.3827   0.1222     H
H       0.6967   0.3827   0.8778     H
H       0.6967   0.6173   0.1222     H
H       0.6967   0.6173   0.8778     H
H       0.6967   0.6222   0.3827     H
H       0.6967   0.6222   0.6173     H
H       0.6967   0.8778   0.1173     H
H       0.6967   0.8778   0.8827     H
H       0.6967   0.8827   0.3778     H
H       0.6967   0.8827   0.6222     H
N      0.70278  0.06378  0.33304     N
N      0.70278  0.06378  0.66696     N
N      0.70278  0.16696  0.06378     N
N      0.70278  0.16696  0.93622     N
N      0.70278  0.33304  0.43622     N
N      0.70278  0.33304  0.56378     N
N      0.70278  0.43622  0.16696     N
N      0.70278  0.43622  0.83304     N
N      0.70278  0.56378  0.16696     N
N      0.70278  0.56378  0.83304     N
N      0.70278  0.66696  0.43622     N
N      0.70278  0.66696  0.56378     N
N      0.70278  0.83304  0.06378     N
N      0.70278  0.83304  0.93622     N
N      0.70278  0.93622  0.33304     N
N      0.70278  0.93622  0.66696     N
N      0.70825   0.0365   0.3107     N
N      0.70825   0.0365   0.6893     N
N      0.70825   0.1893   0.0365     N
N      0.70825   0.1893   0.9635     N
N      0.70825   0.3107   0.4635     N
N      0.70825   0.3107   0.5365     N
N      0.70825   0.4635   0.1893     N
N      0.70825   0.4635   0.8107     N
N      0.70825   0.5365   0.1893     N
N      0.70825   0.5365   0.8107     N
N      0.70825   0.6893   0.4635     N
N      0.70825   0.6893   0.5365     N
N      0.70825   0.8107   0.0365     N
N      0.70825   0.8107   0.9635     N
N      0.70825   0.9635   0.3107     N
N      0.70825   0.9635   0.6893     N
C      0.71068  0.06494  0.16257     C
C      0.71068  0.06494  0.83743     C
C      0.71068  0.16257  0.43506     C
C      0.71068  0.16257  0.56494     C
C      0.71068  0.33743  0.06494     C
C      0.71068  0.33743  0.93506     C
C      0.71068  0.43506  0.33743     C
C      0.71068  0.43506  0.66257     C
C      0.71068  0.56494  0.33743     C
C      0.71068  0.56494  0.66257     C
C      0.71068  0.66257  0.06494     C
C      0.71068  0.66257  0.93506     C
C      0.71068  0.83743  0.43506     C
C      0.71068  0.83743  0.56494     C
C      0.71068  0.93506  0.16257     C
C      0.71068  0.93506  0.83743     C
N      0.71609  0.03665  0.18409     N
N      0.71609  0.03665  0.81591     N
N      0.71609  0.18409  0.46335     N
N      0.71609  0.18409  0.53665     N
N      0.71609  0.31591  0.03665     N
N      0.71609  0.31591  0.96335     N
N      0.71609  0.46335  0.31591     N
N      0.71609  0.46335  0.68409     N
N      0.71609  0.53665  0.31591     N
N      0.71609  0.53665  0.68409     N
N      0.71609  0.68409  0.03665     N
N      0.71609  0.68409  0.96335     N
N      0.71609  0.81591  0.46335     N
N      0.71609  0.81591  0.53665     N
N      0.71609  0.96335  0.18409     N
N      0.71609  0.96335  0.81591     N
H       0.7165   0.0695   0.3539     H
H       0.7165   0.0695   0.6461     H
H       0.7165   0.1461   0.0695     H
H       0.7165   0.1461   0.9305     H
H       0.7165   0.3539   0.4305     H
H       0.7165   0.3539   0.5695     H
H       0.7165   0.4305   0.1461     H
H       0.7165   0.4305   0.8539     H
H       0.7165   0.5695   0.1461     H
H       0.7165   0.5695   0.8539     H
H       0.7165   0.6461   0.4305     H
H       0.7165   0.6461   0.5695     H
H       0.7165   0.8539   0.0695     H
H       0.7165   0.8539   0.9305     H
H       0.7165   0.9305   0.3539     H
H       0.7165   0.9305   0.6461     H
H       0.7256    0.072    0.143     H
H       0.7256    0.072    0.857     H
H       0.7256    0.143    0.428     H
H       0.7256    0.143    0.572     H
H       0.7256    0.357    0.072     H
H       0.7256    0.357    0.928     H
H       0.7256    0.428    0.357     H
H       0.7256    0.428    0.643     H
H       0.7256    0.572    0.357     H
H       0.7256    0.572    0.643     H
H       0.7256    0.643    0.072     H
H       0.7256    0.643    0.928     H
H       0.7256    0.857    0.428     H
H       0.7256    0.857    0.572     H
H       0.7256    0.928    0.143     H
H       0.7256    0.928    0.857     H
Co     0.74613      0.0  0.31374    Co
Co     0.74613      0.0  0.68626    Co
Co     0.74613  0.18626      0.0    Co
Co     0.74613  0.31374      0.5    Co
Co     0.74613      0.5  0.18626    Co
Co     0.74613      0.5  0.81374    Co
Co     0.74613  0.68626      0.5    Co
Co     0.74613  0.81374      0.0    Co
Co      0.7483   0.0726  0.36408    Co
Co      0.7483   0.0726  0.63592    Co
Co      0.7483  0.13592   0.0726    Co
Co      0.7483  0.13592   0.9274    Co
Co      0.7483  0.36408   0.4274    Co
Co      0.7483  0.36408   0.5726    Co
Co      0.7483   0.4274  0.13592    Co
Co      0.7483   0.4274  0.86408    Co
Co      0.7483   0.5726  0.13592    Co
Co      0.7483   0.5726  0.86408    Co
Co      0.7483  0.63592   0.4274    Co
Co      0.7483  0.63592   0.5726    Co
Co      0.7483  0.86408   0.0726    Co
Co      0.7483  0.86408   0.9274    Co
Co      0.7483   0.9274  0.36408    Co
Co      0.7483   0.9274  0.63592    Co
Cl        0.75      0.0     0.25    Cl
Cl        0.75      0.0     0.75    Cl
Cl        0.75     0.25      0.0    Cl
Cl        0.75     0.25      0.5    Cl
Cl        0.75      0.5     0.25    Cl
Cl        0.75      0.5     0.75    Cl
Cl        0.75     0.75      0.0    Cl
Cl        0.75     0.75      0.5    Cl
Co      0.7517   0.0726  0.13592    Co
Co      0.7517   0.0726  0.86408    Co
Co      0.7517  0.13592   0.4274    Co
Co      0.7517  0.13592   0.5726    Co
Co      0.7517  0.36408   0.0726    Co
Co      0.7517  0.36408   0.9274    Co
Co      0.7517   0.4274  0.36408    Co
Co      0.7517   0.4274  0.63592    Co
Co      0.7517   0.5726  0.36408    Co
Co      0.7517   0.5726  0.63592    Co
Co      0.7517  0.63592   0.0726    Co
Co      0.7517  0.63592   0.9274    Co
Co      0.7517  0.86408   0.4274    Co
Co      0.7517  0.86408   0.5726    Co
Co      0.7517   0.9274  0.13592    Co
Co      0.7517   0.9274  0.86408    Co
Co     0.75387      0.0  0.18626    Co
Co     0.75387      0.0  0.81374    Co
Co     0.75387  0.18626      0.5    Co
Co     0.75387  0.31374      0.0    Co
Co     0.75387      0.5  0.31374    Co
Co     0.75387      0.5  0.68626    Co
Co     0.75387  0.68626      0.0    Co
Co     0.75387  0.81374      0.5    Co
H       0.7744    0.072    0.357     H
H       0.7744    0.072    0.643     H
H       0.7744    0.143    0.072     H
H       0.7744    0.143    0.928     H
H       0.7744    0.357    0.428     H
H       0.7744    0.357    0.572     H
H       0.7744    0.428    0.143     H
H       0.7744    0.428    0.857     H
H       0.7744    0.572    0.143     H
H       0.7744    0.572    0.857     H
H       0.7744    0.643    0.428     H
H       0.7744    0.643    0.572     H
H       0.7744    0.857    0.072     H
H       0.7744    0.857    0.928     H
H       0.7744    0.928    0.357     H
H       0.7744    0.928    0.643     H
H       0.7835   0.0695   0.1461     H
H       0.7835   0.0695   0.8539     H
H       0.7835   0.1461   0.4305     H
H       0.7835   0.1461   0.5695     H
H       0.7835   0.3539   0.0695     H
H       0.7835   0.3539   0.9305     H
H       0.7835   0.4305   0.3539     H
H       0.7835   0.4305   0.6461     H
H       0.7835   0.5695   0.3539     H
H       0.7835   0.5695   0.6461     H
H       0.7835   0.6461   0.0695     H
H       0.7835   0.6461   0.9305     H
H       0.7835   0.8539   0.4305     H
H       0.7835   0.8539   0.5695     H
H       0.7835   0.9305   0.1461     H
H       0.7835   0.9305   0.8539     H
N      0.78391  0.03665  0.31591     N
N      0.78391  0.03665  0.68409     N
N      0.78391  0.18409  0.03665     N
N      0.78391  0.18409  0.96335     N
N      0.78391  0.31591  0.46335     N
N      0.78391  0.31591  0.53665     N
N      0.78391  0.46335  0.18409     N
N      0.78391  0.46335  0.81591     N
N      0.78391  0.53665  0.18409     N
N      0.78391  0.53665  0.81591     N
N      0.78391  0.68409  0.46335     N
N      0.78391  0.68409  0.53665     N
N      0.78391  0.81591  0.03665     N
N      0.78391  0.81591  0.96335     N
N      0.78391  0.96335  0.31591     N
N      0.78391  0.96335  0.68409     N
C      0.78932  0.06494  0.33743     C
C      0.78932  0.06494  0.66257     C
C      0.78932  0.16257  0.06494     C
C      0.78932  0.16257  0.93506     C
C      0.78932  0.33743  0.43506     C
C      0.78932  0.33743  0.56494     C
C      0.78932  0.43506  0.16257     C
C      0.78932  0.43506  0.83743     C
C      0.78932  0.56494  0.16257     C
C      0.78932  0.56494  0.83743     C
C      0.78932  0.66257  0.43506     C
C      0.78932  0.66257  0.56494     C
C      0.78932  0.83743  0.06494     C
C      0.78932  0.83743  0.93506     C
C      0.78932  0.93506  0.33743     C
C      0.78932  0.93506  0.66257     C
N      0.79175   0.0365   0.1893     N
N      0.79175   0.0365   0.8107     N
N      0.79175   0.1893   0.4635     N
N      0.79175   0.1893   0.5365     N
N      0.79175   0.3107   0.0365     N
N      0.79175   0.3107   0.9635     N
N      0.79175   0.4635   0.3107     N
N      0.79175   0.4635   0.6893     N
N      0.79175   0.5365   0.3107     N
N      0.79175   0.5365   0.6893     N
N      0.79175   0.6893   0.0365     N
N      0.79175   0.6893   0.9635     N
N      0.79175   0.8107   0.4635     N
N      0.79175   0.8107   0.5365     N
N      0.79175   0.9635   0.1893     N
N      0.79175   0.9635   0.8107     N
N      0.79722  0.06378  0.16696     N
N      0.79722  0.06378  0.83304     N
N      0.79722  0.16696  0.43622     N
N      0.79722  0.16696  0.56378     N
N      0.79722  0.33304  0.06378     N
N      0.79722  0.33304  0.93622     N
N      0.79722  0.43622  0.33304     N
N      0.79722  0.43622  0.66696     N
N      0.79722  0.56378  0.33304     N
N      0.79722  0.56378  0.66696     N
N      0.79722  0.66696  0.06378     N
N      0.79722  0.66696  0.93622     N
N      0.79722  0.83304  0.43622     N
N      0.79722  0.83304  0.56378     N
N      0.79722  0.93622  0.16696     N
N      0.79722  0.93622  0.83304     N
H       0.8033   0.1173   0.1222     H
H       0.8033   0.1173   0.8778     H
H       0.8033   0.1222   0.3827     H
H       0.8033   0.1222   0.6173     H
H       0.8033   0.3778   0.1173     H
H       0.8033   0.3778   0.8827     H
H       0.8033   0.3827   0.3778     H
H       0.8033   0.3827   0.6222     H
H       0.8033   0.6173   0.3778     H
H       0.8033   0.6173   0.6222     H
H       0.8033   0.6222   0.1173     H
H       0.8033   0.6222   0.8827     H
H       0.8033   0.8778   0.3827     H
H       0.8033   0.8778   0.6173     H
H       0.8033   0.8827   0.1222     H
H       0.8033   0.8827   0.8778     H
N       0.8107   0.0365  0.29175     N
N       0.8107   0.0365  0.70825     N
N       0.8107  0.20825   0.0365     N
N       0.8107  0.20825   0.9635     N
N       0.8107  0.29175   0.4635     N
N       0.8107  0.29175   0.5365     N
N       0.8107   0.4635  0.20825     N
N       0.8107   0.4635  0.79175     N
N       0.8107   0.5365  0.20825     N
N       0.8107   0.5365  0.79175     N
N       0.8107  0.70825   0.4635     N
N       0.8107  0.70825   0.5365     N
N       0.8107  0.79175   0.0365     N
N       0.8107  0.79175   0.9635     N
N       0.8107   0.9635  0.29175     N
N       0.8107   0.9635  0.70825     N
Co     0.81374      0.0  0.25387    Co
Co     0.81374      0.0  0.74613    Co
Co     0.81374  0.24613      0.0    Co
Co     0.81374  0.25387      0.5    Co
Co     0.81374      0.5  0.24613    Co
Co     0.81374      0.5  0.75387    Co
Co     0.81374  0.74613      0.5    Co
Co     0.81374  0.75387      0.0    Co
N      0.81591  0.03665  0.21609     N
N      0.81591  0.03665  0.78391     N
N      0.81591  0.21609  0.46335     N
N      0.81591  0.21609  0.53665     N
N      0.81591  0.28391  0.03665     N
N      0.81591  0.28391  0.96335     N
N      0.81591  0.46335  0.28391     N
N      0.81591  0.46335  0.71609     N
N      0.81591  0.53665  0.28391     N
N      0.81591  0.53665  0.71609     N
N      0.81591  0.71609  0.03665     N
N      0.81591  0.71609  0.96335     N
N      0.81591  0.78391  0.46335     N
N      0.81591  0.78391  0.53665     N
N      0.81591  0.96335  0.21609     N
N      0.81591  0.96335  0.78391     N
C      0.82027  0.08208  0.32626     C
C      0.82027  0.08208  0.67374     C
C      0.82027  0.17374  0.08208     C
C      0.82027  0.17374  0.91792     C
C      0.82027  0.32626  0.41792     C
C      0.82027  0.32626  0.58208     C
C      0.82027  0.41792  0.17374     C
C      0.82027  0.41792  0.82626     C
C      0.82027  0.58208  0.17374     C
C      0.82027  0.58208  0.82626     C
C      0.82027  0.67374  0.41792     C
C      0.82027  0.67374  0.58208     C
C      0.82027  0.82626  0.08208     C
C      0.82027  0.82626  0.91792     C
C      0.82027  0.91792  0.32626     C
C      0.82027  0.91792  0.67374     C
C      0.82421  0.12868  0.13158     C
C      0.82421  0.12868  0.86842     C
C      0.82421  0.13158  0.37132     C
C      0.82421  0.13158  0.62868     C
C      0.82421  0.36842  0.12868     C
C      0.82421  0.36842  0.87132     C
C      0.82421  0.37132  0.36842     C
C      0.82421  0.37132  0.63158     C
C      0.82421  0.62868  0.36842     C
C      0.82421  0.62868  0.63158     C
C      0.82421  0.63158  0.12868     C
C      0.82421  0.63158  0.87132     C
C      0.82421  0.86842  0.37132     C
C      0.82421  0.86842  0.62868     C
C      0.82421  0.87132  0.13158     C
C      0.82421  0.87132  0.86842     C
C      0.82626  0.08208  0.17973     C
C      0.82626  0.08208  0.82027     C
C      0.82626  0.17973  0.41792     C
C      0.82626  0.17973  0.58208     C
C      0.82626  0.32027  0.08208     C
C      0.82626  0.32027  0.91792     C
C      0.82626  0.41792  0.32027     C
C      0.82626  0.41792  0.67973     C
C      0.82626  0.58208  0.32027     C
C      0.82626  0.58208  0.67973     C
C      0.82626  0.67973  0.08208     C
C      0.82626  0.67973  0.91792     C
C      0.82626  0.82027  0.41792     C
C      0.82626  0.82027  0.58208     C
C      0.82626  0.91792  0.17973     C
C      0.82626  0.91792  0.82027     C
C      0.83304  0.06378  0.29722     C
C      0.83304  0.06378  0.70278     C
N      0.83304  0.20278  0.06378     N
N      0.83304  0.20278  0.93622     N
N      0.83304  0.29722  0.43622     N
N      0.83304  0.29722  0.56378     N
C      0.83304  0.43622  0.20278     C
C      0.83304  0.43622  0.79722     C
C      0.83304  0.56378  0.20278     C
C      0.83304  0.56378  0.79722     C
N      0.83304  0.70278  0.43622     N
N      0.83304  0.70278  0.56378     N
N      0.83304  0.79722  0.06378     N
N      0.83304  0.79722  0.93622     N
C      0.83304  0.93622  0.29722     C
C      0.83304  0.93622  0.70278     C
C      0.83743  0.06494  0.21068     C
C      0.83743  0.06494  0.78932     C
C      0.83743  0.21068  0.43506     C
C      0.83743  0.21068  0.56494     C
C      0.83743  0.28932  0.06494     C
C      0.83743  0.28932  0.93506     C
C      0.83743  0.43506  0.28932     C
C      0.83743  0.43506  0.71068     C
C      0.83743  0.56494  0.28932     C
C      0.83743  0.56494  0.71068     C
C      0.83743  0.71068  0.06494     C
C      0.83743  0.71068  0.93506     C
C      0.83743  0.78932  0.43506     C
C      0.83743  0.78932  0.56494     C
C      0.83743  0.93506  0.21068     C
C      0.83743  0.93506  0.78932     C
C       0.8378  0.11453  0.34077     C
C       0.8378  0.11453  0.65923     C
C       0.8378  0.15923  0.11453     C
C       0.8378  0.15923  0.88547     C
C       0.8378  0.34077  0.38547     C
C       0.8378  0.34077  0.61453     C
C       0.8378  0.38547  0.15923     C
C       0.8378  0.38547  0.84077     C
C       0.8378  0.61453  0.15923     C
C       0.8378  0.61453  0.84077     C
C       0.8378  0.65923  0.38547     C
C       0.8378  0.65923  0.61453     C
C       0.8378  0.84077  0.11453     C
C       0.8378  0.84077  0.88547     C
C       0.8378  0.88547  0.34077     C
C       0.8378  0.88547  0.65923     C
C      0.84077  0.11453   0.1622     C
C      0.84077  0.11453   0.8378     C
C      0.84077   0.1622  0.38547     C
C      0.84077   0.1622  0.61453     C
C      0.84077   0.3378  0.11453     C
C      0.84077   0.3378  0.88547     C
C      0.84077  0.38547   0.3378     C
C      0.84077  0.38547   0.6622     C
C      0.84077  0.61453   0.3378     C
C      0.84077  0.61453   0.6622     C
C      0.84077   0.6622  0.11453     C
C      0.84077   0.6622  0.88547     C
C      0.84077   0.8378  0.38547     C
C      0.84077   0.8378  0.61453     C
C      0.84077  0.88547   0.1622     C
C      0.84077  0.88547   0.8378     C
H       0.8539   0.0695   0.2835     H
H       0.8539   0.0695   0.7165     H
H       0.8539   0.2165   0.0695     H
H       0.8539   0.2165   0.9305     H
H       0.8539   0.2835   0.4305     H
H       0.8539   0.2835   0.5695     H
H       0.8539   0.4305   0.2165     H
H       0.8539   0.4305   0.7835     H
H       0.8539   0.5695   0.2165     H
H       0.8539   0.5695   0.7835     H
H       0.8539   0.7165   0.4305     H
H       0.8539   0.7165   0.5695     H
H       0.8539   0.7835   0.0695     H
H       0.8539   0.7835   0.9305     H
H       0.8539   0.9305   0.2835     H
H       0.8539   0.9305   0.7165     H
H        0.857    0.072   0.2256     H
H        0.857    0.072   0.7744     H
H        0.857   0.2256    0.428     H
H        0.857   0.2256    0.572     H
H        0.857   0.2744    0.072     H
H        0.857   0.2744    0.928     H
H        0.857    0.428   0.2744     H
H        0.857    0.428   0.7256     H
H        0.857    0.572   0.2744     H
H        0.857    0.572   0.7256     H
H        0.857   0.7256    0.072     H
H        0.857   0.7256    0.928     H
H        0.857   0.7744    0.428     H
H        0.857   0.7744    0.572     H
H        0.857    0.928   0.2256     H
H        0.857    0.928   0.7744     H
Co     0.86408   0.0726   0.2517    Co
Co     0.86408   0.0726   0.7483    Co
Co     0.86408   0.2483   0.0726    Co
Co     0.86408   0.2483   0.9274    Co
Co     0.86408   0.2517   0.4274    Co
Co     0.86408   0.2517   0.5726    Co
Co     0.86408   0.4274   0.2483    Co
Co     0.86408   0.4274   0.7517    Co
Co     0.86408   0.5726   0.2483    Co
Co     0.86408   0.5726   0.7517    Co
Co     0.86408   0.7483   0.4274    Co
Co     0.86408   0.7483   0.5726    Co
Co     0.86408   0.7517   0.0726    Co
Co     0.86408   0.7517   0.9274    Co
Co     0.86408   0.9274   0.2517    Co
Co     0.86408   0.9274   0.7483    Co
C      0.86842  0.12868  0.32421     C
C      0.86842  0.12868  0.67579     C
C      0.86842  0.17579  0.12868     C
C      0.86842  0.17579  0.87132     C
C      0.86842  0.32421  0.37132     C
C      0.86842  0.32421  0.62868     C
C      0.86842  0.37132  0.17579     C
C      0.86842  0.37132  0.82421     C
C      0.86842  0.62868  0.17579     C
C      0.86842  0.62868  0.82421     C
C      0.86842  0.67579  0.37132     C
C      0.86842  0.67579  0.62868     C
C      0.86842  0.82421  0.12868     C
C      0.86842  0.82421  0.87132     C
C      0.86842  0.87132  0.32421     C
C      0.86842  0.87132  0.67579     C
C      0.87132  0.13158  0.17579     C
C      0.87132  0.13158  0.82421     C
C      0.87132  0.17579  0.36842     C
C      0.87132  0.17579  0.63158     C
C      0.87132  0.32421  0.13158     C
C      0.87132  0.32421  0.86842     C
C      0.87132  0.36842  0.32421     C
C      0.87132  0.36842  0.67579     C
C      0.87132  0.63158  0.32421     C
C      0.87132  0.63158  0.67579     C
C      0.87132  0.67579  0.13158     C
C      0.87132  0.67579  0.86842     C
C      0.87132  0.82421  0.36842     C
C      0.87132  0.82421  0.63158     C
C      0.87132  0.86842  0.17579     C
C      0.87132  0.86842  0.82421     C
H       0.8778   0.1173   0.3033     H
H       0.8778   0.1173   0.6967     H
H       0.8778   0.1967   0.1173     H
H       0.8778   0.1967   0.8827     H
H       0.8778   0.3033   0.3827     H
H       0.8778   0.3033   0.6173     H
H       0.8778   0.3827   0.1967     H
H       0.8778   0.3827   0.8033     H
H       0.8778   0.6173   0.1967     H
H       0.8778   0.6173   0.8033     H
H       0.8778   0.6967   0.3827     H
H       0.8778   0.6967   0.6173     H
H       0.8778   0.8033   0.1173     H
H       0.8778   0.8033   0.8827     H
H       0.8778   0.8827   0.3033     H
H       0.8778   0.8827   0.6967     H
H       0.8827   0.1222   0.1967     H
H       0.8827   0.1222   0.8033     H
H       0.8827   0.1967   0.3778     H
H       0.8827   0.1967   0.6222     H
H       0.8827   0.3033   0.1222     H
H       0.8827   0.3033   0.8778     H
H       0.8827   0.3778   0.3033     H
H       0.8827   0.3778   0.6967     H
H       0.8827   0.6222   0.3033     H
H       0.8827   0.6222   0.6967     H
H       0.8827   0.6967   0.1222     H
H       0.8827   0.6967   0.8778     H
H       0.8827   0.8033   0.3778     H
H       0.8827   0.8033   0.6222     H
H       0.8827   0.8778   0.1967     H
H       0.8827   0.8778   0.8033     H
C      0.88547  0.15923   0.3378     C
C      0.88547  0.15923   0.6622     C
C      0.88547   0.1622  0.15923     C
C      0.88547   0.1622  0.84077     C
C      0.88547   0.3378  0.34077     C
C      0.88547   0.3378  0.65923     C
C      0.88547  0.34077   0.1622     C
C      0.88547  0.34077   0.8378     C
C      0.88547  0.65923   0.1622     C
C      0.88547  0.65923   0.8378     C
C      0.88547   0.6622  0.34077     C
C      0.88547   0.6622  0.65923     C
C      0.88547   0.8378  0.15923     C
C      0.88547   0.8378  0.84077     C
C      0.88547  0.84077   0.3378     C
C      0.88547  0.84077   0.6622     C
C      0.91792  0.17374  0.32027     C
C      0.91792  0.17374  0.67973     C
C      0.91792  0.17973  0.17374     C
C      0.91792  0.17973  0.82626     C
C      0.91792  0.32027  0.32626     C
C      0.91792  0.32027  0.67374     C
C      0.91792  0.32626  0.17973     C
C      0.91792  0.32626  0.82027     C
C      0.91792  0.67374  0.17973     C
C      0.91792  0.67374  0.82027     C
C      0.91792  0.67973  0.32626     C
C      0.91792  0.67973  0.67374     C
C      0.91792  0.82027  0.17374     C
C      0.91792  0.82027  0.82626     C
C      0.91792  0.82626  0.32027     C
C      0.91792  0.82626  0.67973     C
Co      0.9274  0.13592   0.2483    Co
Co      0.9274  0.13592   0.7517    Co
Co      0.9274   0.2483  0.36408    Co
Co      0.9274   0.2483  0.63592    Co
Co      0.9274   0.2517  0.13592    Co
Co      0.9274   0.2517  0.86408    Co
Co      0.9274  0.36408   0.2517    Co
Co      0.9274  0.36408   0.7483    Co
Co      0.9274  0.63592   0.2517    Co
Co      0.9274  0.63592   0.7483    Co
Co      0.9274   0.7483  0.13592    Co
Co      0.9274   0.7483  0.86408    Co
Co      0.9274   0.7517  0.36408    Co
Co      0.9274   0.7517  0.63592    Co
Co      0.9274  0.86408   0.2483    Co
Co      0.9274  0.86408   0.7517    Co
H        0.928    0.143   0.2744     H
H        0.928    0.143   0.7256     H
H        0.928   0.2256    0.143     H
H        0.928   0.2256    0.857     H
H        0.928   0.2744    0.357     H
H        0.928   0.2744    0.643     H
H        0.928    0.357   0.2256     H
H        0.928    0.357   0.7744     H
H        0.928    0.643   0.2256     H
H        0.928    0.643   0.7744     H
H        0.928   0.7256    0.357     H
H        0.928   0.7256    0.643     H
H        0.928   0.7744    0.143     H
H        0.928   0.7744    0.857     H
H        0.928    0.857   0.2744     H
H        0.928    0.857   0.7256     H
H       0.9305   0.1461   0.2165     H
H       0.9305   0.1461   0.7835     H
H       0.9305   0.2165   0.3539     H
H       0.9305   0.2165   0.6461     H
H       0.9305   0.2835   0.1461     H
H       0.9305   0.2835   0.8539     H
H       0.9305   0.3539   0.2835     H
H       0.9305   0.3539   0.7165     H
H       0.9305   0.6461   0.2835     H
H       0.9305   0.6461   0.7165     H
H       0.9305   0.7165   0.1461     H
H       0.9305   0.7165   0.8539     H
H       0.9305   0.7835   0.3539     H
H       0.9305   0.7835   0.6461     H
H       0.9305   0.8539   0.2165     H
H       0.9305   0.8539   0.7835     H
C      0.93506  0.16257  0.28932     C
C      0.93506  0.16257  0.71068     C
C      0.93506  0.21068  0.16257     C
C      0.93506  0.21068  0.83743     C
C      0.93506  0.28932  0.33743     C
C      0.93506  0.28932  0.66257     C
C      0.93506  0.33743  0.21068     C
C      0.93506  0.33743  0.78932     C
C      0.93506  0.66257  0.21068     C
C      0.93506  0.66257  0.78932     C
C      0.93506  0.71068  0.33743     C
C      0.93506  0.71068  0.66257     C
C      0.93506  0.78932  0.16257     C
C      0.93506  0.78932  0.83743     C
C      0.93506  0.83743  0.28932     C
C      0.93506  0.83743  0.71068     C
C      0.93622  0.16696  0.20278     C
C      0.93622  0.16696  0.79722     C
N      0.93622  0.20278  0.33304     N
N      0.93622  0.20278  0.66696     N
N      0.93622  0.29722  0.16696     N
N      0.93622  0.29722  0.83304     N
C      0.93622  0.33304  0.29722     C
C      0.93622  0.33304  0.70278     C
C      0.93622  0.66696  0.29722     C
C      0.93622  0.66696  0.70278     C
N      0.93622  0.70278  0.16696     N
N      0.93622  0.70278  0.83304     N
N      0.93622  0.79722  0.33304     N
N      0.93622  0.79722  0.66696     N
C      0.93622  0.83304  0.20278     C
C      0.93622  0.83304  0.79722     C
N      0.96335  0.18409  0.28391     N
N      0.96335  0.18409  0.71609     N
N      0.96335  0.21609  0.18409     N
N      0.96335  0.21609  0.81591     N
N      0.96335  0.28391  0.31591     N
N      0.96335  0.28391  0.68409     N
N      0.96335  0.31591  0.21609     N
N      0.96335  0.31591  0.78391     N
N      0.96335  0.68409  0.21609     N
N      0.96335  0.68409  0.78391     N
N      0.96335  0.71609  0.31591     N
N      0.96335  0.71609  0.68409     N
N      0.96335  0.78391  0.18409     N
N      0.96335  0.78391  0.81591     N
N      0.96335  0.81591  0.28391     N
N      0.96335  0.81591  0.71609     N
N       0.9635   0.1893  0.20825     N
N       0.9635   0.1893  0.79175     N
N       0.9635  0.20825   0.3107     N
N       0.9635  0.20825   0.6893     N
N       0.9635  0.29175   0.1893     N
N       0.9635  0.29175   0.8107     N
N       0.9635   0.3107  0.29175     N
N       0.9635   0.3107  0.70825     N
N       0.9635   0.6893  0.29175     N
N       0.9635   0.6893  0.70825     N
N       0.9635  0.70825   0.1893     N
N       0.9635  0.70825   0.8107     N
N       0.9635  0.79175   0.3107     N
N       0.9635  0.79175   0.6893     N
N       0.9635   0.8107  0.20825     N
N       0.9635   0.8107  0.79175     N
