data_I
_chemical_name_common  '/home/zhangsd/repos/MofS-CGCNN/ML/data/WS24/clean_cifs/ATAYEB'
_cell_length_a 18.43470
_cell_length_b 18.43470
_cell_length_c 23.83200
_cell_angle_alpha 90.00000
_cell_angle_beta  90.00000
_cell_angle_gamma 120.00000
_space_group_name_H-M_alt      'P 1'


loop_
_space_group_symop_operation_xyz
  'x, y, z' 

loop_
_atom_site_label
_atom_site_fract_x
_atom_site_fract_y
_atom_site_fract_z
_atom_site_type_symbol
F        0.006   0.1019     0.25     F
F        0.006   0.9041     0.25     F
O       0.0282   0.4379  0.07159     O
O       0.0282   0.4379  0.42841     O
O       0.0282   0.5903  0.07159     O
O       0.0282   0.5903  0.42841     O
Cu     0.04813  0.52406  0.54552    Cu
Cu     0.04813  0.52407  0.95448    Cu
H        0.075   0.3638   0.1369     H
H        0.075   0.3638   0.3631     H
H        0.075   0.7112   0.1369     H
H        0.075   0.7112   0.3631     H
C      0.08865   0.1773     0.25     C
C      0.08865  0.91135     0.25     C
C       0.0905   0.4492   0.0426     C
C       0.0905   0.4492   0.4574     C
C       0.0905   0.6413   0.0426     C
C       0.0905   0.6413   0.4574     C
F       0.0959   0.1019     0.25     F
F       0.0959    0.994     0.25     F
H      0.09875   0.1975   0.1667     H
H      0.09875   0.1975   0.3333     H
H      0.09875  0.90125   0.1667     H
H      0.09875  0.90125   0.3333     H
F       0.1019    0.006     0.75     F
F       0.1019   0.0959     0.75     F
O      0.11054   0.4809  0.50545     O
O      0.11054   0.4809  0.99455     O
O      0.11054  0.62964  0.50545     O
O      0.11054  0.62964  0.99455     O
C       0.1128   0.2256   0.2008     C
C       0.1128   0.2256   0.2992     C
C       0.1128   0.8872   0.2008     C
C       0.1128   0.8872   0.2992     C
C       0.1259   0.3786  0.11974     C
C       0.1259   0.3786  0.38026     C
C       0.1259   0.7473  0.11974     C
C       0.1259   0.7473  0.38026     C
C       0.1461    0.422   0.0699     C
C       0.1461    0.422   0.4301     C
C       0.1461   0.7241   0.0699     C
C       0.1461   0.7241   0.4301     C
C      0.15475   0.3095   0.1997     C
C      0.15475   0.3095   0.3003     C
C      0.15475  0.84525   0.1997     C
C      0.15475  0.84525   0.3003     C
C      0.17695   0.3539     0.25     C
C      0.17695  0.82305     0.25     C
C       0.1773  0.08865     0.75     C
C      0.17845   0.3569   0.1442     C
C      0.17845   0.3569   0.3558     C
C      0.17845  0.82155   0.1442     C
C      0.17845  0.82155   0.3558     C
H       0.1975  0.09875   0.6667     H
H       0.1975  0.09875   0.8333     H
N      0.22035   0.4407     0.25     N
N      0.22035  0.77965     0.25     N
C       0.2213   0.4426   0.0456     C
C       0.2213   0.4426   0.4544     C
C       0.2213   0.7787   0.0456     C
C       0.2213   0.7787   0.4544     C
C       0.2256   0.1128   0.7008     C
C       0.2256   0.1128   0.7992     C
H       0.2338   0.4676   0.2187     H
H       0.2338   0.4676   0.2813     H
H       0.2338   0.7662   0.2187     H
H       0.2338   0.7662   0.2813     H
H      0.23565   0.4713   0.0116     H
H      0.23565   0.4713   0.4884     H
H      0.23565  0.76435   0.0116     H
H      0.23565  0.76435   0.4884     H
C       0.2527   0.3786  0.11974     C
C       0.2527   0.3786  0.38026     C
C       0.2527   0.8741  0.11974     C
C       0.2527   0.8741  0.38026     C
C       0.2759    0.422   0.0699     C
C       0.2759    0.422   0.4301     C
C       0.2759   0.8539   0.0699     C
C       0.2759   0.8539   0.4301     C
H       0.2888   0.3638   0.1369     H
H       0.2888   0.3638   0.3631     H
H       0.2888    0.925   0.1369     H
H       0.2888    0.925   0.3631     H
C       0.3095  0.15475   0.6997     C
C       0.3095  0.15475   0.8003     C
C       0.3539  0.17695     0.75     C
C       0.3569  0.17845   0.6442     C
C       0.3569  0.17845   0.8558     C
C       0.3587   0.4492   0.0426     C
C       0.3587   0.4492   0.4574     C
C       0.3587   0.9095   0.0426     C
C       0.3587   0.9095   0.4574     C
H       0.3638    0.075   0.6369     H
H       0.3638    0.075   0.8631     H
H       0.3638   0.2888   0.6369     H
H       0.3638   0.2888   0.8631     H
O      0.37036   0.4809  0.50545     O
O      0.37036   0.4809  0.99455     O
O      0.37036  0.88946  0.50545     O
O      0.37036  0.88946  0.99455     O
C       0.3786   0.1259  0.61974     C
C       0.3786   0.1259  0.88026     C
C       0.3786   0.2527  0.61974     C
C       0.3786   0.2527  0.88026     C
O       0.4097   0.4379  0.07159     O
O       0.4097   0.4379  0.42841     O
O       0.4097   0.9718  0.07159     O
O       0.4097   0.9718  0.42841     O
C        0.422   0.1461   0.5699     C
C        0.422   0.1461   0.9301     C
C        0.422   0.2759   0.5699     C
C        0.422   0.2759   0.9301     C
O       0.4379   0.0282  0.57159     O
O       0.4379   0.0282  0.92841     O
O       0.4379   0.4097  0.57159     O
O       0.4379   0.4097  0.92841     O
N       0.4407  0.22035     0.75     N
C       0.4426   0.2213   0.5456     C
C       0.4426   0.2213   0.9544     C
C       0.4492   0.0905   0.5426     C
C       0.4492   0.0905   0.9574     C
C       0.4492   0.3587   0.5426     C
C       0.4492   0.3587   0.9574     C
H       0.4676   0.2338   0.7187     H
H       0.4676   0.2338   0.7813     H
H       0.4713  0.23565   0.5116     H
H       0.4713  0.23565   0.9884     H
Cu     0.47593  0.52406  0.95448    Cu
Cu     0.47593  0.95187  0.54552    Cu
Cu     0.47594  0.52407  0.54552    Cu
Cu     0.47594  0.95187  0.95448    Cu
O       0.4809  0.11054  0.00545     O
O       0.4809  0.11054  0.49455     O
O       0.4809  0.37036  0.00545     O
O       0.4809  0.37036  0.49455     O
O       0.5191  0.62964  0.50545     O
O       0.5191  0.62964  0.99455     O
O       0.5191  0.88946  0.50545     O
O       0.5191  0.88946  0.99455     O
Cu     0.52406  0.04813  0.04552    Cu
Cu     0.52406  0.04813  0.45448    Cu
Cu     0.52406  0.47593  0.04552    Cu
Cu     0.52406  0.47594  0.45448    Cu
H       0.5287  0.76435   0.0116     H
H       0.5287  0.76435   0.4884     H
H       0.5324   0.7662   0.2187     H
H       0.5324   0.7662   0.2813     H
C       0.5508   0.6413   0.0426     C
C       0.5508   0.6413   0.4574     C
C       0.5508   0.9095   0.0426     C
C       0.5508   0.9095   0.4574     C
C       0.5574   0.7787   0.0456     C
C       0.5574   0.7787   0.4544     C
N       0.5593  0.77965     0.25     N
O       0.5621   0.5903  0.07159     O
O       0.5621   0.5903  0.42841     O
O       0.5621   0.9718  0.07159     O
O       0.5621   0.9718  0.42841     O
C        0.578   0.7241   0.0699     C
C        0.578   0.7241   0.4301     C
C        0.578   0.8539   0.0699     C
C        0.578   0.8539   0.4301     C
O       0.5903   0.0282  0.57159     O
O       0.5903   0.0282  0.92841     O
O       0.5903   0.5621  0.57159     O
O       0.5903   0.5621  0.92841     O
C       0.6214   0.7473  0.11974     C
C       0.6214   0.7473  0.38026     C
C       0.6214   0.8741  0.11974     C
C       0.6214   0.8741  0.38026     C
O      0.62964  0.11054  0.00545     O
O      0.62964  0.11054  0.49455     O
O      0.62964   0.5191  0.00545     O
O      0.62964   0.5191  0.49455     O
H       0.6362   0.7112   0.1369     H
H       0.6362   0.7112   0.3631     H
H       0.6362    0.925   0.1369     H
H       0.6362    0.925   0.3631     H
C       0.6413   0.0905   0.5426     C
C       0.6413   0.0905   0.9574     C
C       0.6413   0.5508   0.5426     C
C       0.6413   0.5508   0.9574     C
C       0.6431  0.82155   0.1442     C
C       0.6431  0.82155   0.3558     C
C       0.6461  0.82305     0.25     C
C       0.6905  0.84525   0.1997     C
C       0.6905  0.84525   0.3003     C
H       0.7112    0.075   0.6369     H
H       0.7112    0.075   0.8631     H
H       0.7112   0.6362   0.6369     H
H       0.7112   0.6362   0.8631     H
C       0.7241   0.1461   0.5699     C
C       0.7241   0.1461   0.9301     C
C       0.7241    0.578   0.5699     C
C       0.7241    0.578   0.9301     C
C       0.7473   0.1259  0.61974     C
C       0.7473   0.1259  0.88026     C
C       0.7473   0.6214  0.61974     C
C       0.7473   0.6214  0.88026     C
H      0.76435  0.23565   0.5116     H
H      0.76435  0.23565   0.9884     H
H      0.76435   0.5287   0.5116     H
H      0.76435   0.5287   0.9884     H
H       0.7662   0.2338   0.7187     H
H       0.7662   0.2338   0.7813     H
H       0.7662   0.5324   0.7187     H
H       0.7662   0.5324   0.7813     H
C       0.7744   0.8872   0.2008     C
C       0.7744   0.8872   0.2992     C
C       0.7787   0.2213   0.5456     C
C       0.7787   0.2213   0.9544     C
C       0.7787   0.5574   0.5456     C
C       0.7787   0.5574   0.9544     C
N      0.77965  0.22035     0.75     N
N      0.77965   0.5593     0.75     N
H       0.8025  0.90125   0.1667     H
H       0.8025  0.90125   0.3333     H
C      0.82155  0.17845   0.6442     C
C      0.82155  0.17845   0.8558     C
C      0.82155   0.6431   0.6442     C
C      0.82155   0.6431   0.8558     C
C       0.8227  0.91135     0.25     C
C      0.82305  0.17695     0.75     C
C      0.82305   0.6461     0.75     C
C      0.84525  0.15475   0.6997     C
C      0.84525  0.15475   0.8003     C
C      0.84525   0.6905   0.6997     C
C      0.84525   0.6905   0.8003     C
C       0.8539   0.2759   0.5699     C
C       0.8539   0.2759   0.9301     C
C       0.8539    0.578   0.5699     C
C       0.8539    0.578   0.9301     C
C       0.8741   0.2527  0.61974     C
C       0.8741   0.2527  0.88026     C
C       0.8741   0.6214  0.61974     C
C       0.8741   0.6214  0.88026     C
C       0.8872   0.1128   0.7008     C
C       0.8872   0.1128   0.7992     C
C       0.8872   0.7744   0.7008     C
C       0.8872   0.7744   0.7992     C
O      0.88946  0.37036  0.00545     O
O      0.88946  0.37036  0.49455     O
O      0.88946   0.5191  0.00545     O
O      0.88946   0.5191  0.49455     O
F       0.8981   0.9041     0.25     F
F       0.8981    0.994     0.25     F
H      0.90125  0.09875   0.6667     H
H      0.90125  0.09875   0.8333     H
H      0.90125   0.8025   0.6667     H
H      0.90125   0.8025   0.8333     H
F       0.9041    0.006     0.75     F
F       0.9041   0.8981     0.75     F
C       0.9095   0.3587   0.5426     C
C       0.9095   0.3587   0.9574     C
C       0.9095   0.5508   0.5426     C
C       0.9095   0.5508   0.9574     C
C      0.91135  0.08865     0.75     C
C      0.91135   0.8227     0.75     C
H        0.925   0.2888   0.6369     H
H        0.925   0.2888   0.8631     H
H        0.925   0.6362   0.6369     H
H        0.925   0.6362   0.8631     H
Cu     0.95187  0.47593  0.45448    Cu
Cu     0.95187  0.47594  0.04552    Cu
O       0.9718   0.4097  0.57159     O
O       0.9718   0.4097  0.92841     O
O       0.9718   0.5621  0.57159     O
O       0.9718   0.5621  0.92841     O
F        0.994   0.0959     0.75     F
F        0.994   0.8981     0.75     F
