data_I
_chemical_name_common  '/home/zhangsd/repos/MofS-CGCNN/ML/data/WS24/clean_cifs/AWIBAL'
_cell_length_a 10.06690
_cell_length_b 10.35620
_cell_length_c 10.53800
_cell_angle_alpha 103.15800
_cell_angle_beta  115.52400
_cell_angle_gamma 92.54600
_space_group_name_H-M_alt      'P 1'


loop_
_space_group_symop_operation_xyz
  'x, y, z' 

loop_
_atom_site_label
_atom_site_fract_x
_atom_site_fract_y
_atom_site_fract_z
_atom_site_type_symbol
H       0.0003   0.8039   0.2035     H
C       0.0226   0.8816   0.9225     C
C       0.0334   0.6258   0.0965     C
N       0.0379   0.7658    0.841     N
H       0.0389   0.2947   0.2172     H
C       0.0525   0.4586   0.6277     C
N         0.07    0.762    0.198     N
H       0.0867   0.4292   0.7117     H
C       0.0873   0.6011   0.4925     C
C       0.1163   0.4326   0.9996     C
C       0.1179   0.1011   0.0908     C
H       0.1244   0.7533   0.8479     H
C       0.1362   0.5592    0.619     C
H       0.1411   0.7255   0.3969     H
C       0.1434   0.9901   0.0169     C
C       0.1479   0.5585    0.088     C
H       0.1621   0.7996   0.2512     H
N       0.1745   0.7018   0.4768     N
H       0.1978   0.1696   0.1537     H
O       0.2232   0.2614   0.8983     O
C        0.237   0.3604    0.993     C
H       0.2466   0.6008   0.1436     H
H       0.2609   0.7392   0.5472     H
C       0.2826   0.6252   0.7519     C
C       0.2963   0.9776   0.0356     C
H       0.3148   0.9932   0.8177     H
O       0.3212   0.5877   0.8622     O
O       0.3304   0.8632   0.0009     O
O       0.3619   0.0581   0.7856     O
O       0.3621   0.7245   0.7494     O
O       0.3724   0.4026    0.098     O
O       0.3942   0.0885   0.0864     O
H       0.4705   0.0508   0.8241     H
Lu     0.47493  0.23375  0.00334    Lu
Lu     0.52507  0.76625  0.99666    Lu
H       0.5295   0.9492   0.1759     H
O       0.6058   0.9115   0.9136     O
O       0.6276   0.5974    0.902     O
O       0.6379   0.2755   0.2506     O
O       0.6381   0.9419   0.2144     O
O       0.6696   0.1368   0.9991     O
O       0.6788   0.4123   0.1378     O
H       0.6852   0.0068   0.1823     H
C       0.7037   0.0224   0.9644     C
C       0.7174   0.3748   0.2481     C
H       0.7391   0.2608   0.4528     H
H       0.7534   0.3992   0.8564     H
C        0.763   0.6396    0.007     C
O       0.7768   0.7386   0.1017     O
H       0.8022   0.8304   0.8463     H
N       0.8255   0.2982   0.5232     N
H       0.8379   0.2004   0.7488     H
C       0.8521   0.4415    0.912     C
C       0.8566   0.0099   0.9831     C
H       0.8589   0.2745   0.6031     H
C       0.8638   0.4408    0.381     C
H       0.8756   0.2467   0.1521     H
C       0.8821   0.8989   0.9092     C
C       0.8837   0.5674   0.0004     C
C       0.9127   0.3989   0.5075     C
H       0.9133   0.5708   0.2883     H
N         0.93    0.238    0.802     N
C       0.9475   0.5414   0.3723     C
H       0.9611   0.7053   0.7828     H
N       0.9621   0.2342    0.159     N
C       0.9666   0.3742   0.9035     C
C       0.9774   0.1184   0.0775     C
H       0.9997   0.1961   0.7965     H
