data_I
_chemical_name_common  '/home/zhangsd/repos/MofS-CGCNN/ML/data/WS24/clean_cifs/BADXAI'
_cell_length_a 31.12920
_cell_length_b 31.12920
_cell_length_c 12.05200
_cell_angle_alpha 90.00000
_cell_angle_beta  90.00000
_cell_angle_gamma 120.00000
_space_group_name_H-M_alt      'P 1'


loop_
_space_group_symop_operation_xyz
  'x, y, z' 

loop_
_atom_site_label
_atom_site_fract_x
_atom_site_fract_y
_atom_site_fract_z
_atom_site_type_symbol
C       0.0004   0.1717    0.313     C
Tb     0.00045  0.67336  0.96628    Tb
C      0.00197  0.17463  0.74833     C
C      0.00223  0.87617  0.23967     C
O      0.00257  0.59913  0.73433     O
O      0.00467  0.38103  0.87623     O
C       0.0047   0.5456   0.4707     C
O       0.0049   0.2086    0.233     O
H       0.0061   0.8562   0.7387     H
Tb     0.00624  0.66621  0.63294    Tb
Tb     0.00669  0.33957  0.70039    Tb
H      0.00827  0.11663  0.69183     H
C       0.0083    0.592   0.4329     C
C      0.00907  0.47073  0.82283     C
C      0.01117  0.51433  0.79713     C
O      0.01573  0.81307  0.14967     O
H      0.01713  0.82457  0.31817     H
H       0.0173   0.8402   0.5214     H
O       0.0182   0.3919   0.5185     O
H      0.01887  0.12433  0.81953     H
C      0.02043  0.42547  0.17877     C
C      0.02413  0.47397  0.15967     C
C      0.02713  0.60987  0.07987     C
O       0.0286   0.7504   0.3369     O
C      0.02863  0.56397  0.11107     C
H      0.03073  0.79777  0.16597     H
C       0.0327   0.8571    0.591     C
H      0.03367  0.46403  0.79503     H
O       0.0339   0.6142   0.3499     O
H       0.0347   0.2262   0.2143     H
H      0.03583  0.90127  0.22427     H
C       0.0363   0.4888   0.4689     C
H      0.03667  0.53723  0.74953     H
H       0.0372   0.8906   0.5901     H
O      0.03747  0.40933  0.10693     O
O      0.03853  0.29587  0.44027     O
O      0.04037  0.31513  0.85183     O
C       0.0412    0.534   0.4403     C
O      0.04303  0.32867  0.20957     O
H       0.0444   0.2447   0.3674     H
O       0.0477   0.7097   0.4571     O
H      0.04847  0.26273  0.78633     H
O      0.05247  0.75303  0.68323     O
C       0.0551   0.1881    0.351     C
O      0.05513  0.63807  0.00357     O
C       0.0568   0.7506   0.4132     C
C      0.05847  0.21123  0.73333     C
O      0.05857  0.70703  0.81483     O
H       0.0611   0.4812   0.4473     H
C      0.06183  0.50857  0.09167     C
C      0.06353  0.55407  0.06617     C
H       0.0651   0.8593   0.5994     H
N       0.0668   0.2358    0.379     N
O      0.06753  0.73677  0.06767     O
H       0.0695   0.5573   0.3997     H
O       0.0701   0.3359    0.599     O
H       0.0706   0.4524    0.453     H
C       0.0717   0.3129   0.5121     C
N      0.07317  0.25713  0.77433     N
C      0.07467  0.74963  0.76623     C
O        0.076   0.7052   0.2264     O
N       0.0762   0.4827    0.441     N
C      0.08297  0.34163  0.90043     C
O       0.0836   0.1869    0.279     O
O      0.08373  0.38847  0.32977     O
C      0.08393  0.36047  0.25347     C
O      0.08637  0.36723  0.98343     O
O      0.08677  0.19733  0.69933     O
H      0.08677  0.27223  0.78063     H
H      0.08863  0.46637  0.03407     H
H      0.08863  0.57757  0.01867     H
H       0.0891   0.8444    0.352     H
C      0.09213  0.73837  0.15457     C
H      0.09703  0.29967  0.12837     H
N      0.09753  0.49767  0.04567     N
H      0.09873  0.13457  0.22427     H
H      0.10037  0.63593  0.83263     H
C       0.1027    0.798   0.4444     C
O       0.1033   0.9164    0.279     O
H      0.10547  0.98113  0.81953     H
H      0.10713  0.47517  0.88097     H
H      0.10837  0.99173  0.69183     H
H      0.10937  0.84553  0.73303     H
H       0.1094   0.1466   0.5901     H
O      0.11057  0.91323  0.69933     O
C       0.1126   0.8428   0.3995     C
C       0.1134   0.2715    0.425     C
C       0.1165   0.3092    0.493     C
H      0.11663  0.10837  0.30817     H
H      0.11907  0.71513  0.88033     H
C      0.11917  0.29703  0.80223     C
C      0.12107  0.79243  0.80403     C
C       0.1221   0.5139      0.4     C
C      0.12383  0.12607  0.23967     C
H      0.12433  0.10547  0.18047     H
O      0.12473  0.46297  0.89967     O
C      0.12577  0.33803  0.86263     C
C      0.12607  0.00223  0.76033     C
H      0.12753  0.60157  0.26607     H
C      0.12833  0.32427  0.15617     C
H      0.12943  0.83277  0.08287     H
O      0.12963  0.67157  0.43367     O
O      0.13067  0.65093  0.81633     O
H       0.1307   0.7637   0.5383     H
H       0.1311   0.4337   0.5007     H
C      0.13133  0.36197  0.22227     C
C      0.13267  0.84053  0.77363     C
C        0.133   0.9449    0.351     C
H      0.13303  0.71107  0.29927     H
H      0.13457  0.03583  0.77573     H
O        0.136   0.5561    0.366     O
C       0.1374    0.795   0.5105     C
C      0.14063  0.78317  0.17367     C
H       0.1407   0.2058   0.5994     H
H      0.14077  0.64953  0.98483     H
H      0.14183  0.70137  0.45237     H
C       0.1429   0.1756    0.591     C
H       0.1438   0.1499   0.7387     H
C      0.14523  0.53367  0.01767     C
O       0.1464    0.464    0.517     O
O      0.14643  0.56337  0.94567     O
H       0.1466   0.0372   0.4099     H
H      0.14787  0.75343  0.88603     H
N      0.14937  0.73983  0.89233     N
H       0.1499   0.0061   0.2613     H
C      0.15233  0.83017  0.13047     C
C      0.15277  0.94153  0.73333     C
H      0.15447  0.26383  0.73303     H
C      0.15547  0.78583  0.86443     C
H       0.1556   0.2447    0.352     H
H      0.15623  0.64937  0.18807     H
C       0.1572   0.2698   0.3995     C
C      0.15773  0.63397  0.25767     C
H       0.1579   0.4741   0.3485     H
C       0.1581   0.8866    0.425     C
C       0.1587    0.494    0.415     C
C      0.15947  0.29213  0.77363     C
H       0.1598   0.1771   0.5214     H
C      0.16067  0.66863  0.91833     C
C      0.16163  0.49537  0.97967     C
C      0.16203  0.66707  0.35367     C
C       0.1635   0.3445   0.5362     C
N      0.16433  0.73347  0.28767     N
H       0.1661     0.37   0.5838     H
H      0.16723  0.29667  0.08287     H
N        0.169   0.9332    0.379     N
C      0.16983  0.32217  0.13047     C
C       0.1713   0.9996    0.313     C
C       0.1717   0.1713    0.687     C
C      0.17267  0.99803  0.74833     C
H      0.17353  0.48957  0.14527     H
C      0.17387  0.37453  0.89303     C
C      0.17463  0.17267  0.25167     C
C      0.17523  0.78007  0.24167     C
H      0.17543  0.19257  0.31817     H
C       0.1756   0.0327    0.409     C
C      0.17613  0.39687  0.26717     C
H       0.1771   0.0173   0.4786     H
H      0.17773  0.42197  0.31467     H
C      0.17787  0.88083  0.80223     C
H      0.17887  0.40283  0.93363     H
C      0.18057  0.72513  0.93333     C
C        0.181   0.8365   0.5362     C
H      0.18343  0.66057  0.40537     H
N      0.18397  0.92683  0.77433     N
H      0.18547  0.91323  0.78063     H
H      0.18673  0.62947  0.25677     H
O       0.1869   0.1033    0.721     O
O      0.18693  0.20267  0.14967     O
C       0.1881    0.133    0.649     C
H      0.18953  0.51677  0.92797     H
C      0.19043  0.49107  0.07567     C
H       0.1915   0.9653   0.2143     H
H      0.19257  0.01713  0.68183     H
H      0.19263  0.46087  0.06727     H
C       0.1927   0.8835    0.493     C
C      0.19593  0.87167  0.15617     C
O      0.19733  0.11057  0.30067     O
H      0.19877  0.63083  0.89093     H
H       0.2003   0.9556   0.3674     H
C      0.20033  0.72177  0.31567     C
C      0.20067  0.82613  0.89303     C
C        0.202   0.3047   0.4444     C
H      0.20223  0.23297  0.16597     H
H      0.20263  0.90297  0.12837     H
O      0.20267  0.01573  0.85033     O
O       0.2037   0.9951    0.233     O
H       0.2039   0.8339   0.5838     H
C        0.205   0.3424   0.5105     C
H       0.2058   0.0651   0.4006     H
C      0.20727  0.66443  0.90633     C
C      0.20757  0.32863  0.80403     C
O       0.2086   0.2037    0.767     O
H        0.209   0.5612   0.4862     H
C       0.2095   0.5406    0.427     C
C      0.21123  0.15277  0.26667     C
C      0.21227  0.87423  0.86263     C
C      0.21417  0.36963  0.86443     C
H      0.21427  0.95153  0.78633     H
H       0.2167   0.5583   0.3585     H
C      0.21683  0.35747  0.17367     C
C      0.21993  0.39517  0.24167     C
C      0.22073  0.82387  0.26717     C
O      0.22277  0.75343  0.96733     O
H      0.22393  0.52007  0.07657     H
H      0.22397  0.82113  0.93363     H
H      0.22497  0.67493  0.97483     H
H       0.2262   0.1915   0.7857     H
H      0.22787  0.68553  0.84713     H
O      0.23003  0.75027  0.38767     O
C      0.23063  0.86867  0.22227     C
H      0.23297  0.03073  0.83403     H
H       0.2346   0.5321   0.4424     H
N       0.2358    0.169    0.621     N
H       0.2363    0.367   0.5383     H
C       0.2412   0.9283   0.5121     C
H      0.24423  0.82227  0.31467     H
H       0.2447   0.0891    0.648     H
H       0.2447   0.2003   0.6326     H
H      0.24657  0.39443  0.88603     H
O      0.24657  0.46933  0.96733     O
O      0.24697  0.29943  0.68323     O
C       0.2494   0.3062   0.4132     C
O       0.2496   0.2782   0.3369     O
O      0.24973  0.47977  0.38767     O
C      0.25037  0.32503  0.76623     C
N      0.25713  0.18397  0.22567     N
O      0.25733  0.96147  0.44027     O
C      0.25867  0.91703  0.90043     C
N      0.26017  0.40953  0.89233     N
C      0.26163  0.35377  0.15457     C
H      0.26273  0.21427  0.21367     H
O      0.26323  0.33077  0.06767     O
H      0.26383  0.10937  0.26697     H
O       0.2658   0.9299    0.599     O
N      0.26653  0.43087  0.28767     N
H      0.26823  0.80737  0.06727     H
C       0.2698   0.1126   0.6005     C
C       0.2715   0.1581    0.575     C
H      0.27223  0.18547  0.21937     H
O      0.27477  0.95963  0.85183     O
C      0.27487  0.45543  0.93333     C
C      0.27653  0.91607  0.25347     C
O       0.2782   0.0286   0.6631     O
C      0.27823  0.47857  0.31567     C
O      0.28087  0.91363  0.98343     O
H      0.28487  0.40393  0.88033     H
O      0.28563  0.95697  0.20957     O
H      0.28893  0.42197  0.29927     H
O       0.2903    0.338   0.4571     O
C      0.29213  0.13267  0.22637     C
O      0.29297  0.35153  0.81483     O
O       0.2948   0.3708   0.2264     O
O      0.29587  0.25733  0.55973     O
H      0.29613  0.77607  0.07657     H
H      0.29667  0.12943  0.91713     H
C      0.29703  0.17787  0.19777     C
H       0.2975   0.7654   0.4424     H
H      0.29863  0.44047  0.45237     H
O      0.29943  0.05247  0.31677     O
H      0.29967  0.20263  0.87163     H
C      0.30063  0.80957  0.07567     C
H       0.3026   0.8689   0.5007     H
C       0.3047   0.1027   0.5556     C
O      0.30473  0.91627  0.32977     O
C       0.3062   0.0568   0.5868     C
C       0.3092   0.1927    0.507     C
C       0.3129   0.2412   0.4879     C
H      0.31447  0.54233  0.84713     H
O      0.31513  0.27477  0.14817     O
H      0.31603  0.82647  0.14527     H
H       0.3162   0.8421   0.3485     H
O       0.3176   0.8536    0.517     O
C      0.32217  0.15233  0.86953     C
C      0.32427  0.19593  0.84383     C
C      0.32503  0.07467  0.23377     C
H      0.32507  0.55003  0.97483     H
Tb     0.32664   0.3271  0.96628    Tb
Tb      0.3271  0.00045  0.03372    Tb
H      0.32723  0.81047  0.92797     H
O      0.32843  0.45807  0.43367     O
C      0.32863  0.12107  0.19597     C
O      0.32867  0.28563  0.79043     O
O      0.33077  0.06753  0.93233     O
C       0.3311   0.7905    0.427     C
C      0.33137  0.49203  0.91833     C
Tb     0.33288  0.99331  0.70039    Tb
C      0.33293  0.49497  0.35367     C
C      0.33373  0.83837  0.97967     C
Tb     0.33379  0.34002  0.63294    Tb
C       0.3353   0.8413    0.415     C
C      0.33557  0.54283  0.90633     C
O       0.3359   0.2658    0.401     O
O        0.338   0.0477   0.5429     O
C      0.33803  0.21227  0.13737     C
O      0.33823  0.87527  0.89967     O
H      0.33943  0.52287  0.40537     H
Tb     0.33957  0.33288  0.29961    Tb
Tb     0.34002  0.00624  0.36706    Tb
H       0.3416   0.7833   0.3585     H
C      0.34163  0.25867  0.09957     C
C       0.3424   0.1374   0.4895     C
C       0.3445    0.181   0.4638     C
O      0.34907  0.47973  0.81633     O
H      0.35047  0.49123  0.98483     H
H      0.35063  0.50687  0.18807     H
O      0.35153  0.05857  0.18517     O
H       0.3522    0.791   0.4862     H
C      0.35377  0.09213  0.84543     C
C      0.35747  0.14063  0.82633     C
C      0.36047  0.27653  0.74653     C
O      0.36193  0.41707  0.00357     O
C      0.36197  0.23063  0.77773     C
H      0.36407  0.46443  0.83263     H
C      0.36603  0.52377  0.25767     C
H        0.367   0.1307   0.4617     H
O      0.36723  0.28087  0.01657     O
H      0.36803  0.89287  0.88097     H
H      0.36917  0.56793  0.89093     H
C      0.36963  0.15547  0.13557     C
H         0.37   0.2039   0.4162     H
H      0.37053  0.55727  0.25677     H
O       0.3708    0.076   0.7736     O
O      0.37187  0.96253  0.10693     O
O       0.3737   0.9818   0.5185     O
C      0.37453  0.20067  0.10697     C
O      0.37637  0.99533  0.87623     O
H      0.37773  0.91137  0.03407     H
O      0.38103  0.37637  0.12377     O
H       0.3818   0.9294    0.453     H
O       0.3858   0.4197   0.3499     O
C      0.38843  0.85477  0.01767     C
O      0.38847  0.30473  0.67023     O
C      0.39013  0.41727  0.07987     C
C       0.3918   0.8779      0.4     C
O       0.3919   0.3737   0.4815     O
H      0.39443  0.14787  0.11397     H
C      0.39517  0.17523  0.75833     C
C      0.39687  0.22073  0.73283     C
H      0.39843  0.52597  0.26607     H
N      0.40013  0.90247  0.04567     N
O      0.40087  0.40343  0.73433     O
H      0.40283  0.22397  0.06637     H
O      0.40343  0.00257  0.26567     O
H      0.40393  0.11907  0.11967     H
C      0.40503  0.97957  0.17877     C
N       0.4065   0.9238    0.441     N
C        0.408   0.4163   0.4329     C
O      0.40933  0.37187  0.89307     O
N      0.40953  0.14937  0.10767     N
C       0.4163   0.0083   0.5671     C
O      0.41693  0.85357  0.94567     O
O      0.41707  0.05513  0.99643     O
C      0.41727  0.02713  0.92013     C
O       0.4197   0.0339   0.6501     O
O       0.4201    0.864    0.366     O
H       0.4201   0.9389   0.4473     H
H      0.42197  0.13303  0.70073     H
H      0.42197  0.24423  0.68533     H
H      0.42243  0.51107  0.01867     H
C      0.42547  0.40503  0.82123     C
H      0.43037  0.96633  0.79503     H
N      0.43087  0.16433  0.71233     N
H      0.43207  0.80123  0.89093     H
H       0.4337   0.3026   0.4993     H
C      0.43603  0.46467  0.11107     C
O      0.43663  0.58307  0.94567     O
H       0.4388   0.6478   0.4862     H
H      0.44047  0.14183  0.54763     H
H       0.4417   0.6584   0.3585     H
H       0.4427   0.5122   0.3997     H
H      0.44273  0.81327  0.25677     H
O       0.4439   0.5799    0.366     O
C      0.44593  0.50947  0.06617     C
C      0.44673  0.93817  0.09167     C
C      0.44983  0.97587  0.15967     C
H      0.44997  0.77503  0.97483     H
H       0.4524   0.3818    0.547     H
C       0.4525   0.9637   0.4689     C
C       0.4544   0.4591   0.4707     C
C      0.45543  0.18057  0.06667     C
C      0.45717  0.79273  0.90633     C
H      0.45767  0.77213  0.84713     H
O      0.45807  0.12963  0.56633     O
C       0.4591   0.0047   0.5293     C
C       0.4594   0.6689    0.427     C
H      0.46087  0.26823  0.93273     H
C      0.46167  0.99093  0.82283     C
H      0.46277  0.49943  0.74953     H
O      0.46297  0.33823  0.10033     O
O        0.464   0.3176    0.483     O
H      0.46403  0.43037  0.20497     H
H      0.46443  0.10037  0.16737     H
C      0.46467  0.02863  0.88893     C
C        0.466   0.5072   0.4403     C
C      0.46633  0.61157  0.01767     C
H      0.46637  0.37773  0.96593     H
H       0.4679   0.7025   0.4424     H
O      0.46933  0.22277  0.03267     O
C      0.47073  0.46167  0.17717     C
C      0.47397  0.44983  0.84033     C
H      0.47403  0.87247  0.26607     H
H       0.4741   0.3162   0.6515     H
H      0.47517  0.36803  0.11903     H
C      0.47623  0.84227  0.25767     C
H      0.47713  0.81657  0.40537     H
C      0.47857  0.20033  0.68433     C
O      0.47973  0.13067  0.18367     O
O      0.47977  0.23003  0.61233     O
H      0.47993  0.70387  0.07657     H
H       0.4812   0.4201   0.5527     H
N       0.4827   0.4065    0.559     N
H      0.48323  0.67277  0.92797     H
C      0.48567  0.49683  0.79713     C
C       0.4861   0.6082      0.4     C
H       0.4878   0.9305   0.3997     H
C       0.4888   0.4525   0.5311     C
H      0.48893  0.91137  0.01867     H
H      0.48957  0.31603  0.85473     H
C      0.49053  0.93647  0.06617     C
C      0.49107  0.30063  0.92433     C
H      0.49123  0.14077  0.01517     H
C      0.49143  0.55327  0.09167     C
C      0.49203  0.16067  0.08167     C
C       0.4928   0.9588   0.4403     C
H      0.49313  0.84377  0.18807     H
C        0.494   0.3353    0.585     C
C      0.49497  0.16203  0.64633     C
C      0.49537  0.33373  0.02033     C
C      0.49683  0.01117  0.20287     C
N      0.49767  0.40013  0.95433     N
H      0.49943  0.03667  0.25047     H
H      0.50057  0.96333  0.74953     H
N      0.50233  0.59987  0.04567     N
C      0.50317  0.98883  0.79713     C
C      0.50463  0.66627  0.97967     C
C      0.50503  0.83797  0.35367     C
C        0.506   0.6647    0.415     C
H      0.50687  0.15623  0.81193     H
C       0.5072   0.0412   0.5597     C
C      0.50797  0.83933  0.91833     C
C      0.50857  0.44673  0.90833     C
H      0.50877  0.85923  0.98483     H
C      0.50893  0.69937  0.07567     C
C      0.50947  0.06353  0.93383     C
H      0.51043  0.68397  0.14527     H
H      0.51107  0.08863  0.98133     H
C       0.5112   0.5475   0.4689     C
H       0.5122   0.0695   0.6003     H
C       0.5139   0.3918      0.6     C
C      0.51433  0.50317  0.20287     C
H      0.51677  0.32723  0.07203     H
N       0.5173   0.5935    0.441     N
H       0.5188   0.5799   0.4473     H
H      0.52007  0.29613  0.92343     H
O      0.52023  0.76997  0.38767     O
O      0.52027  0.86933  0.81633     O
C      0.52143  0.79967  0.31567     C
H      0.52287  0.18343  0.59463     H
C      0.52377  0.15773  0.74233     C
H      0.52483  0.63197  0.88097     H
H       0.5259   0.6838   0.3485     H
H      0.52597  0.12753  0.73393     H
C      0.52603  0.55017  0.15967     C
C      0.52927  0.53833  0.82283     C
O      0.53067  0.77723  0.96733     O
H       0.5321   0.2975   0.5576     H
H      0.53363  0.62227  0.03407     H
C      0.53367  0.38843  0.98233     C
C        0.534   0.4928   0.5597     C
C      0.53533  0.97137  0.11107     C
H      0.53557  0.89963  0.83263     H
H      0.53597  0.56963  0.79503     H
O        0.536   0.6824    0.517     O
O      0.53703  0.66177  0.89967     O
H      0.53723  0.50057  0.25047     H
C      0.53833  0.00907  0.17717     C
H      0.53913  0.73177  0.06727     H
C       0.5406   0.3311    0.573     C
C       0.5409   0.9953   0.4707     C
O      0.54193  0.87037  0.43367     O
H      0.54233  0.22787  0.15287     H
C      0.54283  0.20727  0.09367     C
C      0.54457  0.81943  0.93333     C
C       0.5456   0.5409   0.5293     C
C       0.5475   0.0363   0.5311     C
H       0.5476   0.6182    0.453     H
H      0.55003  0.22497  0.02517     H
C      0.55017  0.02413  0.84033     C
C      0.55327  0.06183  0.90833     C
C      0.55407  0.49053  0.93383     C
O       0.5561   0.4201    0.634     O
H      0.55727  0.18673  0.74323     H
H       0.5573   0.4878   0.6003     H
H       0.5583   0.3416   0.6415     H
H      0.55953  0.85817  0.45237     H
H       0.5612   0.3522   0.5138     H
O      0.56337  0.41693  0.05433     O
C      0.56397  0.53533  0.88893     C
H       0.5663   0.6974   0.5007     H
H      0.56793  0.19877  0.10907     H
N      0.56913  0.83567  0.28767     N
H      0.56963  0.03367  0.20497     H
C      0.57453  0.59497  0.17877     C
H      0.57757  0.48893  0.98133     H
H      0.57803  0.75577  0.31467     H
H      0.57803  0.86697  0.29927     H
H       0.5799   0.0611   0.5527     H
O       0.5799    0.136    0.634     O
O       0.5803   0.9661   0.3499     O
C      0.58273  0.97287  0.07987     C
O      0.58293  0.94487  0.00357     O
O      0.58307  0.14643  0.05433     O
C       0.5837   0.9917   0.4329     C
N      0.59047  0.85063  0.89233     N
O      0.59067  0.62813  0.10693     O
C        0.592   0.5837   0.5671     C
N       0.5935   0.0762    0.559     N
C      0.59497  0.02043  0.82123     C
H      0.59607  0.88093  0.88033     H
O      0.59657  0.99743  0.73433     O
H      0.59717  0.77603  0.93363     H
O      0.59913  0.59657  0.26567     O
N      0.59987  0.09753  0.95433     N
H      0.60157  0.47403  0.73393     H
C      0.60313  0.77927  0.26717     C
C      0.60483  0.82477  0.24167     C
H      0.60557  0.85213  0.88603     H
O       0.6081   0.6263   0.5185     O
C       0.6082   0.1221      0.6     C
C      0.60987  0.58273  0.92013     C
O      0.61153  0.69527  0.32977     O
C      0.61157  0.14523  0.98233     C
O       0.6142   0.5803   0.6501     O
H       0.6182   0.0706    0.547     H
O      0.61897  0.62363  0.87623     O
H      0.62227  0.08863  0.96593     H
O      0.62363  0.00467  0.12377     O
C      0.62547  0.79933  0.89303     C
O       0.6263   0.0182   0.4815     O
O      0.62813  0.03747  0.89307     O
O       0.6292    0.924   0.2264     O
H      0.62947  0.44273  0.74323     H
H         0.63   0.7961   0.5838     H
C      0.63037  0.84453  0.86443     C
H      0.63083  0.43207  0.10907     H
H      0.63197  0.10713  0.11903     H
O      0.63277  0.71913  0.98343     O
H        0.633   0.8693   0.5383     H
C      0.63397  0.47623  0.74233     C
H      0.63593  0.53557  0.16737     H
C      0.63803  0.76937  0.22227     C
O      0.63807  0.58293  0.99643     O
C      0.63953  0.72347  0.25347     C
C      0.64253  0.85937  0.17367     C
C      0.64623  0.90787  0.15457     C
H       0.6478    0.209   0.5138     H
O      0.64847  0.94143  0.81483     O
H      0.64937  0.49313  0.81193     H
H      0.64953  0.50877  0.01517     H
O      0.65093  0.52027  0.18367     O
C       0.6555    0.819   0.5362     C
C       0.6576   0.8626   0.5105     C
C      0.65837  0.74133  0.90043     C
H       0.6584   0.2167   0.6415     H
Tb     0.65998  0.99376  0.63294    Tb
Tb     0.66043  0.66712  0.70039    Tb
H      0.66057  0.47713  0.59463     H
O      0.66177  0.12473  0.10033     O
C      0.66197  0.78773  0.86263     C
O        0.662   0.9523   0.4571     O
O       0.6641   0.7342    0.599     O
C      0.66443  0.45717  0.09367     C
C       0.6647   0.1587    0.585     C
Tb     0.66621  0.65998  0.36706    Tb
C      0.66627  0.16163  0.02033     C
C      0.66707  0.50503  0.64633     C
Tb     0.66712  0.00669  0.29961    Tb
C      0.66863  0.50797  0.08167     C
C       0.6689   0.2095    0.573     C
O      0.66923  0.93247  0.06767     O
O      0.67133  0.71437  0.20957     O
C      0.67137  0.87893  0.80403     C
O      0.67157  0.54193  0.56633     O
H      0.67277  0.18953  0.07203     H
Tb      0.6729  0.99955  0.96628    Tb
Tb     0.67336   0.6729  0.03372    Tb
H      0.67493  0.44997  0.02517     H
C      0.67497  0.92533  0.76623     C
C      0.67573  0.80407  0.15617     C
C      0.67783  0.84767  0.13047     C
O       0.6824   0.1464    0.483     O
H       0.6838   0.1579   0.6515     H
H      0.68397  0.17353  0.85473     H
O      0.68487  0.72523  0.85183     O
H      0.68553  0.45767  0.15287     H
C       0.6871   0.7588   0.5121     C
C       0.6908   0.8073    0.493     C
C       0.6938   0.9432   0.4132     C
O      0.69527  0.08373  0.67023     O
C       0.6953   0.8973   0.4444     C
H       0.6974   0.1311   0.4993     H
C      0.69937  0.19043  0.92433     C
H      0.70033  0.79737  0.12837     H
O      0.70057  0.94753  0.68323     O
H      0.70137  0.55953  0.54763     H
H       0.7025   0.2346   0.5576     H
C      0.70297  0.82213  0.80223     C
H      0.70333  0.87057  0.08287     H
H      0.70387  0.22393  0.92343     H
O      0.70413  0.74267  0.44027     O
O       0.7052   0.6292   0.7736     O
O      0.70703  0.64847  0.18517     O
C      0.70787  0.86733  0.77363     C
O       0.7097    0.662   0.5429     O
H      0.71107  0.57803  0.70073     H
O      0.71437  0.04303  0.79043     O
H      0.71513  0.59607  0.11967     H
O      0.71913  0.08637  0.01657     O
C      0.72177  0.52143  0.68433     C
O       0.7218   0.9714   0.3369     O
C      0.72347  0.08393  0.74653     C
C      0.72513  0.54457  0.06667     C
O      0.72523  0.04037  0.14817     O
H      0.72777  0.81453  0.78063     H
C       0.7285   0.8419    0.425     C
C       0.7302   0.8874   0.3995     C
H      0.73177  0.19263  0.93273     H
N      0.73347  0.56913  0.71233     N
O       0.7342   0.0701    0.401     O
H      0.73617  0.89063  0.73303     H
O      0.73677  0.66923  0.93233     O
H      0.73727  0.78573  0.78633     H
C      0.73837  0.64623  0.84543     C
N      0.73983  0.59047  0.10767     N
C      0.74133  0.08297  0.09957     C
O      0.74267  0.03853  0.55973     O
N      0.74287  0.81603  0.77433     N
C      0.74963  0.67497  0.23377     C
O      0.75027  0.52023  0.61233     O
O       0.7504   0.7218   0.6631     O
C       0.7506   0.6938   0.5868     C
O      0.75303  0.70057  0.31677     O
O      0.75343  0.53067  0.03267     O
H      0.75343  0.60557  0.11397     H
H       0.7553   0.7997   0.3674     H
H       0.7553   0.9109    0.352     H
H      0.75577  0.17773  0.68533     H
C       0.7588   0.0717   0.4879     C
H       0.7637    0.633   0.4617     H
N       0.7642    0.831    0.379     N
H       0.7654   0.4679   0.5576     H
H      0.76703  0.96927  0.16597     H
C      0.76937  0.13133  0.77773     C
O      0.76997  0.24973  0.61233     O
H      0.77213  0.31447  0.15287     H
H       0.7738   0.8085   0.2143     H
H      0.77503  0.32507  0.02517     H
H      0.77603  0.17887  0.06637     H
H      0.77607  0.47993  0.92343     H
O      0.77723  0.24657  0.03267     O
C      0.77927  0.17613  0.73283     C
C      0.78007  0.60483  0.75833     C
C      0.78317  0.64253  0.82633     C
H       0.7833   0.4417   0.6415     H
H      0.78573  0.04847  0.21367     H
C      0.78583  0.63037  0.13557     C
C      0.78773  0.12577  0.13737     C
C      0.78877  0.84723  0.73333     C
C       0.7905   0.4594    0.573     C
H        0.791   0.4388   0.5138     H
O       0.7914   0.7963    0.233     O
C      0.79243  0.67137  0.19597     C
C      0.79273  0.33557  0.09367     C
H       0.7942   0.9349   0.5994     H
C        0.795   0.6576   0.4895     C
H       0.7961   0.1661   0.4162     H
O       0.7963   0.0049    0.767     O
O      0.79733  0.98427  0.14967     O
H      0.79737  0.09703  0.87163     H
H      0.79777  0.76703  0.83403     H
C        0.798   0.6953   0.5556     C
C      0.79933  0.17387  0.10697     C
C      0.79967  0.27823  0.68433     C
H       0.7997   0.0444   0.6326     H
H      0.80123  0.36917  0.10907     H
O      0.80267  0.88943  0.69933     O
C      0.80407  0.12833  0.84383     C
C       0.8073   0.1165    0.507     C
H      0.80737  0.53913  0.93273     H
H      0.80743  0.98287  0.31817     H
H       0.8085   0.0347   0.7857     H
C      0.80957  0.50893  0.92433     C
H      0.81047  0.48323  0.07203     H
C       0.8119    0.867    0.351     C
O      0.81307  0.79733  0.85033     O
O       0.8131   0.8967    0.279     O
H      0.81327  0.37053  0.74323     H
H      0.81453  0.08677  0.21937     H
N      0.81603  0.07317  0.22567     N
H      0.81657  0.33943  0.59463     H
C        0.819   0.1635   0.4638     C
C      0.81943  0.27487  0.06667     C
H      0.82113  0.59717  0.06637     H
C      0.82213  0.11917  0.19777     C
H      0.82227  0.57803  0.68533     H
H       0.8229   0.9827   0.5214     H
C      0.82387  0.60313  0.73283     C
C       0.8244   0.9673    0.591     C
H      0.82457  0.80743  0.68183     H
C      0.82477  0.21993  0.75833     C
C      0.82537  0.82733  0.74833     C
C      0.82613  0.62547  0.10697     C
H      0.82647  0.51043  0.85473     H
C      0.82733  0.00197  0.25167     C
C       0.8283   0.8287    0.313     C
C       0.8287   0.0004    0.687     C
C      0.83017  0.67783  0.86953     C
N        0.831   0.0668    0.621     N
H      0.83277  0.70333  0.91713     H
H       0.8339     0.63   0.4162     H
N      0.83567  0.26653  0.71233     N
C       0.8365   0.6555   0.4638     C
C      0.83797  0.33293  0.64633     C
C      0.83837  0.50463  0.02033     C
C      0.83933  0.33137  0.08167     C
H       0.8402   0.8229   0.4786     H
C      0.84053  0.70787  0.22637     C
C       0.8413    0.506    0.585     C
C       0.8419   0.1134    0.575     C
H       0.8421   0.5259   0.6515     H
C      0.84227  0.36603  0.74233     C
C       0.8428   0.7302   0.6005     C
H      0.84377  0.35063  0.81193     H
H       0.8444   0.7553    0.648     H
C      0.84453  0.21417  0.13557     C
H      0.84553  0.73617  0.26697     H
C      0.84723  0.05847  0.26667     C
C      0.84767  0.16983  0.86953     C
H       0.8501   0.9939   0.7387     H
N      0.85063  0.26017  0.10767     N
H      0.85213  0.24657  0.11397     H
H       0.8534   0.9628   0.5901     H
O      0.85357  0.43663  0.05433     O
O       0.8536    0.536    0.483     O
C      0.85477  0.46633  0.98233     C
H       0.8562   0.8501   0.2613     H
C       0.8571   0.8244    0.409     C
H      0.85817  0.29863  0.54763     H
H      0.85923  0.35047  0.01517     H
H       0.8593   0.7942   0.4006     H
C      0.85937  0.21683  0.82633     C
C       0.8626    0.205   0.4895     C
O        0.864   0.4439    0.634     O
H      0.86543  0.96417  0.22427     H
H      0.86697  0.28893  0.70073     H
C        0.867   0.0551    0.649     C
C      0.86733  0.15947  0.22637     C
C      0.86867  0.63803  0.77773     C
H       0.8689   0.5663   0.4993     H
H       0.8693   0.2363   0.4617     H
O      0.86933  0.34907  0.18367     O
O      0.87037  0.32843  0.56633     O
H      0.87057  0.16723  0.91713     H
C      0.87167  0.67573  0.84383     C
H      0.87247  0.39843  0.73393     H
C      0.87393  0.99777  0.23967     C
C      0.87423  0.66197  0.13737     C
O      0.87527  0.53703  0.10033     O
H      0.87567  0.89453  0.81953     H
C      0.87617  0.87393  0.76033     C
C       0.8779   0.4861      0.6     C
C      0.87893  0.20757  0.19597     C
C      0.88083  0.70297  0.19777     C
H      0.88093  0.28487  0.11967     H
H      0.88337  0.89163  0.69183     H
C       0.8835   0.6908    0.507     C
C       0.8866   0.7285    0.575     C
C       0.8874   0.1572   0.6005     C
O      0.88943  0.08677  0.30067     O
H       0.8906   0.8534   0.4099     H
H      0.89063  0.15447  0.26697     H
H      0.89163  0.00827  0.30817     H
H      0.89287  0.52483  0.11903     H
H      0.89453  0.01887  0.18047     H
O       0.8967   0.0836    0.721     O
C       0.8973    0.202   0.5556     C
H      0.89963  0.36407  0.16737     H
H      0.90127  0.86543  0.77573     H
N      0.90247  0.50233  0.95433     N
H      0.90297  0.70033  0.87163     H
C      0.90787  0.26163  0.84543     C
H       0.9109   0.1556    0.648     H
H      0.91137  0.42243  0.98133     H
H      0.91137  0.53363  0.96593     H
H      0.91323  0.72777  0.21937     H
O      0.91323  0.80267  0.30067     O
O      0.91363  0.63277  0.01657     O
C      0.91607  0.63953  0.74653     C
O      0.91627  0.61153  0.67023     O
O       0.9164   0.8131    0.721     O
C      0.91703  0.65837  0.09957     C
N       0.9238   0.5173    0.559     N
O        0.924   0.2948   0.7736     O
C      0.92533  0.25037  0.23377     C
N      0.92683  0.74287  0.22567     N
C       0.9283   0.6871   0.4879     C
H       0.9294   0.5476    0.547     H
O       0.9299   0.6641    0.401     O
H       0.9305   0.4427   0.6003     H
O      0.93247  0.26323  0.93233     O
N       0.9332   0.7642    0.621     N
H       0.9349   0.1407   0.4006     H
C      0.93647  0.44593  0.93383     C
C      0.93817  0.49143  0.90833     C
H       0.9389   0.5188   0.5527     H
O      0.94143  0.29297  0.18517     O
C      0.94153  0.78877  0.26667     C
C       0.9432   0.2494   0.5868     C
O      0.94487  0.36193  0.99643     O
C       0.9449   0.8119    0.649     C
O      0.94753  0.24697  0.31677     O
H      0.95153  0.73727  0.21367     H
O       0.9523   0.2903   0.5429     O
H       0.9556   0.7553   0.6326     H
O      0.95697  0.67133  0.79043     O
C       0.9588    0.466   0.5597     C
O      0.95963  0.68487  0.14817     O
O      0.96147  0.70413  0.55973     O
O      0.96253  0.59067  0.89307     O
H       0.9628   0.1094   0.4099     H
H      0.96333  0.46277  0.25047     H
C       0.9637   0.5112   0.5311     C
H      0.96417  0.09873  0.77573     H
H       0.9653   0.7738   0.7857     H
O       0.9661   0.3858   0.6501     O
H      0.96633  0.53597  0.20497     H
C       0.9673   0.1429    0.409     C
H      0.96927  0.20223  0.83403     H
C      0.97137  0.43603  0.88893     C
O       0.9714   0.2496   0.6631     O
C      0.97287  0.39013  0.92013     C
C      0.97587  0.52603  0.84033     C
C      0.97957  0.57453  0.82123     C
H      0.98113  0.87567  0.18047     H
O       0.9818   0.6081   0.4815     O
H       0.9827   0.1598   0.4786     H
H      0.98287  0.17543  0.68183     H
O      0.98427  0.18693  0.85033     O
C      0.98883  0.48567  0.20287     C
C      0.99093  0.52927  0.17717     C
C       0.9917    0.408   0.5671     C
H      0.99173  0.88337  0.30817     H
Tb     0.99331  0.66043  0.29961    Tb
Tb     0.99376  0.33379  0.36706    Tb
H       0.9939   0.1438   0.2613     H
O       0.9951   0.7914    0.767     O
C       0.9953   0.4544   0.5293     C
O      0.99533  0.61897  0.12377     O
O      0.99743  0.40087  0.26567     O
C      0.99777  0.12383  0.76033     C
C      0.99803  0.82537  0.25167     C
Tb     0.99955  0.32664  0.03372    Tb
C       0.9996   0.8283    0.687     C
