data_I
_chemical_name_common  '/home/zhangsd/repos/MofS-CGCNN/ML/data/WS24/clean_cifs/BIQHEQ'
_cell_length_a 11.49980
_cell_length_b 15.83540
_cell_length_c 17.52040
_cell_angle_alpha 90.00000
_cell_angle_beta  90.00000
_cell_angle_gamma 90.00000
_space_group_name_H-M_alt      'P 1'


loop_
_space_group_symop_operation_xyz
  'x, y, z' 

loop_
_atom_site_label
_atom_site_fract_x
_atom_site_fract_y
_atom_site_fract_z
_atom_site_type_symbol
Zn         0.0      0.0      0.0    Zn
N          0.0   0.0192   0.3231     N
C          0.0   0.0864   0.3479     C
Zn         0.0  0.10795   0.6673    Zn
N          0.0   0.1216   0.9552     N
N          0.0   0.1316   0.5561     N
C          0.0   0.1528   0.4932     C
C          0.0   0.1899   0.9334     C
Fe         0.0  0.19827  0.39143    Fe
N          0.0   0.2041   0.7407     N
C          0.0   0.2457   0.7943     C
C          0.0   0.2543   0.2943     C
N          0.0   0.2959   0.2407     N
Fe         0.0  0.30173  0.89143    Fe
C          0.0   0.3101   0.4334     C
C          0.0   0.3472   0.9932     C
N          0.0   0.3684   0.0561     N
N          0.0   0.3784   0.4552     N
Zn         0.0  0.39205   0.1673    Zn
C          0.0   0.4136   0.8479     C
N          0.0   0.4808   0.8231     N
Zn         0.0      0.5      0.5    Zn
N          0.0   0.5192   0.1769     N
C          0.0   0.5864   0.1521     C
Zn         0.0  0.60795   0.8327    Zn
N          0.0   0.6216   0.5448     N
N          0.0   0.6316   0.9439     N
C          0.0   0.6528   0.0068     C
C          0.0   0.6899   0.5666     C
Fe         0.0  0.69827  0.10857    Fe
N          0.0   0.7041   0.7593     N
C          0.0   0.7457   0.7057     C
C          0.0   0.7543   0.2057     C
N          0.0   0.7959   0.2593     N
Fe         0.0  0.80173  0.60857    Fe
C          0.0   0.8101   0.0666     C
C          0.0   0.8472   0.5068     C
N          0.0   0.8684   0.4439     N
N          0.0   0.8784   0.0448     N
Zn         0.0  0.89205   0.3327    Zn
C          0.0   0.9136   0.6521     C
N          0.0   0.9808   0.6769     N
C         0.17    0.198   0.3936     C
C         0.17    0.302   0.8936     C
C         0.17    0.698   0.1064     C
C         0.17    0.802   0.6064     C
N       0.1903      0.0      0.0     N
N       0.1903      0.5      0.5     N
N       0.1907  0.10127  0.67439     N
N       0.1907  0.39873  0.17439     N
N       0.1907  0.60127  0.82561     N
N       0.1907  0.89873  0.32561     N
H         0.21   0.0316   0.5842     H
H         0.21   0.4684   0.0842     H
H         0.21   0.5316   0.9158     H
H         0.21   0.9684   0.4158     H
H       0.2111   0.0639   0.9061     H
H       0.2111   0.4361   0.4061     H
H       0.2111   0.5639   0.5939     H
H       0.2111   0.9361   0.0939     H
H       0.2136   0.1682   0.7671     H
H       0.2136   0.3318   0.2671     H
H       0.2136   0.6682   0.7329     H
H       0.2136   0.8318   0.2329     H
C       0.2509   0.0588   0.6229     C
C       0.2509   0.4412   0.1229     C
C       0.2509   0.5588   0.8771     C
C       0.2509   0.9412   0.3771     C
C       0.2514    0.037   0.9452     C
C       0.2514    0.463   0.4452     C
C       0.2514    0.537   0.5548     C
C       0.2514    0.963   0.0548     C
C       0.2532   0.1385   0.7294     C
C       0.2532   0.3615   0.2294     C
C       0.2532   0.6385   0.7706     C
C       0.2532   0.8615   0.2706     C
N       0.2705   0.1971   0.3969     N
N       0.2705   0.3029   0.8969     N
N       0.2705   0.6971   0.1031     N
N       0.2705   0.8029   0.6031     N
C       0.3704   0.0524   0.6227     C
C       0.3704   0.4476   0.1227     C
C       0.3704   0.5524   0.8773     C
C       0.3704   0.9476   0.3773     C
C       0.3714   0.0382   0.9428     C
C       0.3714   0.4618   0.4428     C
C       0.3714   0.5382   0.5572     C
C       0.3714   0.9618   0.0572     C
C       0.3732   0.1353   0.7333     C
C       0.3732   0.3647   0.2333     C
C       0.3732   0.6353   0.7667     C
C       0.3732   0.8647   0.2667     C
H       0.4076   0.0209   0.5851     H
H       0.4076   0.4791   0.0851     H
H       0.4076   0.5209   0.9149     H
H       0.4076   0.9791   0.4149     H
H       0.4092   0.0648   0.9026     H
H       0.4092   0.4352   0.4026     H
H       0.4092   0.5648   0.5974     H
H       0.4092   0.9352   0.0974     H
H       0.4122    0.162    0.773     H
H       0.4122    0.338    0.273     H
H       0.4122    0.662    0.727     H
H       0.4122    0.838    0.227     H
C       0.4348   0.0924   0.6783     C
C       0.4348   0.4076   0.1783     C
C       0.4348   0.5924   0.8217     C
C       0.4348   0.9076   0.3217     C
C       0.4357      0.0      0.0     C
C       0.4357      0.5      0.5     C
C       0.5643      0.0      0.0     C
C       0.5643      0.5      0.5     C
C       0.5652   0.0924   0.6783     C
C       0.5652   0.4076   0.1783     C
C       0.5652   0.5924   0.8217     C
C       0.5652   0.9076   0.3217     C
H       0.5878    0.162    0.773     H
H       0.5878    0.338    0.273     H
H       0.5878    0.662    0.727     H
H       0.5878    0.838    0.227     H
H       0.5908   0.0648   0.9026     H
H       0.5908   0.4352   0.4026     H
H       0.5908   0.5648   0.5974     H
H       0.5908   0.9352   0.0974     H
H       0.5924   0.0209   0.5851     H
H       0.5924   0.4791   0.0851     H
H       0.5924   0.5209   0.9149     H
H       0.5924   0.9791   0.4149     H
C       0.6268   0.1353   0.7333     C
C       0.6268   0.3647   0.2333     C
C       0.6268   0.6353   0.7667     C
C       0.6268   0.8647   0.2667     C
C       0.6286   0.0382   0.9428     C
C       0.6286   0.4618   0.4428     C
C       0.6286   0.5382   0.5572     C
C       0.6286   0.9618   0.0572     C
C       0.6296   0.0524   0.6227     C
C       0.6296   0.4476   0.1227     C
C       0.6296   0.5524   0.8773     C
C       0.6296   0.9476   0.3773     C
N       0.7295   0.1971   0.3969     N
N       0.7295   0.3029   0.8969     N
N       0.7295   0.6971   0.1031     N
N       0.7295   0.8029   0.6031     N
C       0.7468   0.1385   0.7294     C
C       0.7468   0.3615   0.2294     C
C       0.7468   0.6385   0.7706     C
C       0.7468   0.8615   0.2706     C
C       0.7486    0.037   0.9452     C
C       0.7486    0.463   0.4452     C
C       0.7486    0.537   0.5548     C
C       0.7486    0.963   0.0548     C
C       0.7491   0.0588   0.6229     C
C       0.7491   0.4412   0.1229     C
C       0.7491   0.5588   0.8771     C
C       0.7491   0.9412   0.3771     C
H       0.7864   0.1682   0.7671     H
H       0.7864   0.3318   0.2671     H
H       0.7864   0.6682   0.7329     H
H       0.7864   0.8318   0.2329     H
H       0.7889   0.0639   0.9061     H
H       0.7889   0.4361   0.4061     H
H       0.7889   0.5639   0.5939     H
H       0.7889   0.9361   0.0939     H
H         0.79   0.0316   0.5842     H
H         0.79   0.4684   0.0842     H
H         0.79   0.5316   0.9158     H
H         0.79   0.9684   0.4158     H
N       0.8093  0.10127  0.67439     N
N       0.8093  0.39873  0.17439     N
N       0.8093  0.60127  0.82561     N
N       0.8093  0.89873  0.32561     N
N       0.8097      0.0      0.0     N
N       0.8097      0.5      0.5     N
C         0.83    0.198   0.3936     C
C         0.83    0.302   0.8936     C
C         0.83    0.698   0.1064     C
C         0.83    0.802   0.6064     C
