data_I
_chemical_name_common  '/home/zhangsd/repos/MofS-CGCNN/ML/data/WS24/clean_cifs/BUCVIG'
_cell_length_a 40.57500
_cell_length_b 14.37470
_cell_length_c 20.15600
_cell_angle_alpha 90.00000
_cell_angle_beta  108.05800
_cell_angle_gamma 90.00000
_space_group_name_H-M_alt      'P 1'


loop_
_space_group_symop_operation_xyz
  'x, y, z' 

loop_
_atom_site_label
_atom_site_fract_x
_atom_site_fract_y
_atom_site_fract_z
_atom_site_type_symbol
H       0.0037    0.368   0.6094     H
H       0.0037    0.632   0.1094     H
C      0.00894   0.2379  0.86977     C
C      0.00894   0.7621  0.36977     C
C      0.01247   0.3333  0.87708     C
C      0.01247   0.6667  0.37708     C
N      0.01856   0.1921  0.61229     N
N      0.01856   0.8079  0.11229     N
H       0.0268    0.075   0.6693     H
H       0.0268    0.925   0.1693     H
H       0.0289   0.4512   0.1579     H
H       0.0289   0.5488   0.6579     H
H       0.0295   0.1224   0.8426     H
H       0.0295   0.8776   0.3426     H
H       0.0305   0.2784   0.5404     H
H       0.0305   0.7216   0.0404     H
C      0.03226   0.1865  0.84815     C
C      0.03226   0.8135  0.34815     C
C      0.03252   0.1098  0.63552     C
C      0.03252   0.8902  0.13552     C
C       0.0345   0.2226  0.56491     C
C       0.0345   0.7774  0.06491     C
H       0.0398   0.4275   0.7378     H
H       0.0398   0.5725   0.2378     H
C      0.04026   0.3766  0.86419     C
C      0.04026   0.6234  0.36419     C
H       0.0429   0.4407   0.8699     H
H       0.0429   0.5593   0.3699     H
C      0.05015    0.455  0.19278     C
C      0.05015    0.545  0.69278     C
H       0.0514    0.208   0.0098     H
H       0.0514    0.792   0.5098     H
H       0.0528   0.3693   0.0503     H
H       0.0528   0.6307   0.5503     H
N      0.05525  0.08368  0.60509     N
N      0.05525  0.91632  0.10509     N
C      0.05671    0.156   0.5613     C
C      0.05671    0.844   0.0613     C
C      0.05691   0.4719   0.7408     C
C      0.05691   0.5281   0.2408     C
C      0.05782   0.2269  0.05616     C
C      0.05782   0.7731  0.55616     C
C      0.05835   0.3163  0.07793     C
C      0.05835   0.6837  0.57793     C
C         0.06   0.2308  0.83458     C
C         0.06   0.7692  0.33458     C
C      0.06451    0.326  0.84269     C
C      0.06451    0.674  0.34269     C
O      0.06775  0.03168  0.98492     O
O      0.06775  0.96832  0.48492     O
N      0.06826  0.16867  0.11268     N
N      0.06826  0.83133  0.61268     N
N      0.06875  0.31193  0.14961     N
N      0.06875  0.68807  0.64961     N
O      0.06909  0.03646  0.24114     O
O      0.06909  0.96354  0.74114     O
H       0.0711    0.158   0.5333     H
H       0.0711    0.842   0.0333     H
C      0.07477   0.2239  0.16747     C
C      0.07477   0.7761  0.66747     C
C      0.07511   0.3889  0.19766     C
C      0.07511   0.6111  0.69766     C
H       0.0757   0.1959   0.8198     H
H       0.0757   0.8041   0.3198     H
H       0.0786   0.0079   0.3696     H
H       0.0786   0.9921   0.8696     H
H       0.0827   0.2031   0.2134     H
H       0.0827   0.7969   0.7134     H
H       0.0834   0.2813   0.7206     H
H       0.0834   0.7187   0.2206     H
Co     0.08352  0.03469   0.1209    Co
Co     0.08352  0.96531   0.6209    Co
C      0.08821  0.46406  0.79238     C
C      0.08821  0.53594  0.29238     C
C      0.09736  0.37776  0.83989     C
C      0.09736  0.62224  0.33989     C
C      0.09974   0.0326  0.00356     C
C      0.09974   0.9674  0.50356     C
C      0.10009   0.0163  0.25868     C
C      0.10009   0.9837  0.75868     C
C      0.10185   0.0093  0.88244     C
C      0.10185   0.9907  0.38244     C
C      0.10682   0.3952  0.24854     C
C      0.10682   0.6048  0.74854     C
C      0.10718   0.2782  0.74295     C
C      0.10718   0.7218  0.24295     C
H       0.1078   0.4625   0.4184     H
H       0.1078   0.5375   0.9184     H
C      0.11346    0.469  0.29527     C
C      0.11346    0.531  0.79527     C
C      0.11565   0.3999  0.91763     C
C      0.11565   0.6001  0.41763     C
C      0.11695   0.4869    0.947     C
C      0.11695   0.5131    0.447     C
O      0.11745   0.0165  0.21551     O
O      0.11745   0.9835  0.71551     O
O      0.11787  0.03207  0.06824     O
O      0.11787  0.96793  0.56824     O
H       0.1184   0.2057   0.6672     H
H       0.1184   0.7943   0.1672     H
C      0.11903  0.03404  0.95094     C
C      0.11903  0.96596  0.45094     C
C      0.11928   0.0102  0.83287     C
C      0.11928   0.9898  0.33287     C
C      0.12089   0.3198  0.80813     C
C      0.12089   0.6802  0.30813     C
H       0.1237   0.3502   0.2516     H
H       0.1237   0.6498   0.7516     H
C        0.128   0.2326  0.71086     C
C        0.128   0.7674  0.21086     C
H       0.1282    0.267   0.9447     H
H       0.1282    0.733   0.4447     H
C      0.12922   0.3268  0.96287     C
C      0.12922   0.6732  0.46287     C
C      0.13167   0.4991  0.51849     C
C      0.13167   0.5009  0.01849     C
H       0.1319   0.4399   0.5373     H
H       0.1319   0.5601   0.0373     H
H       0.1351   0.4739    0.329     H
H       0.1351   0.5261    0.829     H
C      0.14419   0.3393  0.03342     C
C      0.14419   0.6607  0.53342     C
C      0.14569    0.428  0.06084     C
C      0.14569    0.572  0.56084     C
H       0.1532   0.2889   0.0623     H
H       0.1532   0.7111   0.5623     H
C      0.15339     0.06  0.96963     C
C      0.15339     0.94  0.46963     C
C      0.15358   0.0365  0.85192     C
C      0.15358   0.9635  0.35192     C
C       0.1565   0.3152  0.83934     C
C       0.1565   0.6848  0.33934     C
H       0.1572    0.064   0.6628     H
H       0.1572    0.936   0.1628     H
N      0.16241  0.44224  0.13429     N
N      0.16241  0.55776  0.63429     N
H        0.163    0.415    0.649     H
H        0.163    0.585    0.149     H
C      0.16307  0.22718  0.74395     C
C      0.16307  0.77282  0.24395     C
H        0.165   0.0761   0.0157     H
H        0.165   0.9239   0.5157     H
H       0.1653    0.037   0.8189     H
H       0.1653    0.963   0.3189     H
H       0.1664   0.3441   0.8822     H
H       0.1664   0.6559   0.3822     H
C      0.16931   0.4736  0.66832     C
C      0.16931   0.5264  0.16832     C
C      0.17072   0.0623  0.92045     C
C      0.17072   0.9377  0.42045     C
H       0.1753   0.3126   0.1722     H
H       0.1753   0.6874   0.6722     H
C      0.17619    0.376  0.18182     C
C      0.17619    0.624  0.68182     C
C      0.17755   0.0986  0.67279     C
C      0.17755   0.9014  0.17279     C
C      0.17757   0.2685  0.80816     C
C      0.17757   0.7315  0.30816     C
N        0.185  0.17974  0.71086     N
N        0.185  0.82026  0.21086     N
C      0.18704    0.493  0.73535     C
C      0.18704    0.507  0.23535     C
N      0.19121   0.4126  0.24384     N
N      0.19121   0.5874  0.74384     N
H       0.1938   0.0811   0.9331     H
H       0.1938   0.9189   0.4331     H
H       0.1952   0.4491   0.7705     H
H       0.1952   0.5509   0.2705     H
H       0.2013   0.2649   0.8303     H
H       0.2013   0.7351   0.3303     H
C      0.20549   0.0795  0.65293     C
C      0.20549   0.9205  0.15293     C
H       0.2078   0.0283   0.6264     H
H       0.2078   0.9717   0.1264     H
O      0.21436  0.21193    0.337     O
O      0.21436  0.78807    0.837     O
C      0.21683    0.206  0.71262     C
C      0.21683    0.794  0.21262     C
O      0.21979   0.3755   0.4216     O
O      0.21979   0.6245   0.9216     O
Co     0.22115  0.34562  0.32855    Co
Co     0.22115  0.65438  0.82855    Co
H       0.2239   0.3785   0.0031     H
H       0.2239   0.6215   0.5031     H
O      0.22585   0.1307  0.25371     O
O      0.22585   0.8693  0.75371     O
C      0.22628   0.4606  0.43741     C
C      0.22628   0.5394  0.93741     C
C      0.22675   0.1408   0.3149     C
C      0.22675   0.8592   0.8149     C
O      0.22768   0.4806  0.89463     O
O      0.22768   0.5194  0.39463     O
H        0.228   0.2589   0.7355     H
H        0.228   0.7411   0.2355     H
N      0.23044  0.14757  0.67788     N
N      0.23044  0.85243  0.17788     N
C      0.23184   0.4261   0.0353     C
C      0.23184   0.5739   0.5353     C
C      0.23476   0.4846  0.51303     C
C      0.23476   0.5154  0.01303     C
H       0.2385   0.3479   0.1234     H
H       0.2385   0.6521   0.6234     H
H       0.2408   0.0362   0.7988     H
H       0.2408   0.9638   0.2988     H
C      0.24106   0.4074   0.1077     C
C      0.24106   0.5926   0.6077     C
C      0.24166   0.0658  0.36663     C
C      0.24166   0.9342  0.86663     C
C      0.24642   0.0233  0.84624     C
C      0.24642   0.9767  0.34624     C
C      0.24818   0.4149  0.56257     C
C      0.24818   0.5851  0.06257     C
H       0.2497   0.1454   0.4523     H
H       0.2497   0.8546   0.9523     H
H       0.2503   0.3546   0.5477     H
H       0.2503   0.6454   0.0477     H
C      0.25182   0.0851  0.43743     C
C      0.25182   0.9149  0.93743     C
C      0.25358   0.4767  0.15376     C
C      0.25358   0.5233  0.65376     C
C      0.25834   0.4342  0.63337     C
C      0.25834   0.5658  0.13337     C
C      0.25894   0.0926   0.8923     C
C      0.25894   0.9074   0.3923     C
H       0.2592   0.4638   0.2012     H
H       0.2592   0.5362   0.7012     H
H       0.2615   0.1521   0.8766     H
H       0.2615   0.8479   0.3766     H
C      0.26524   0.0154  0.48697     C
C      0.26524   0.9846  0.98697     C
C      0.26816   0.0739   0.9647     C
C      0.26816   0.9261   0.4647     C
N      0.26956  0.35243  0.32212     N
N      0.26956  0.64757  0.82212     N
H        0.272   0.2411   0.2645     H
H        0.272   0.7589   0.7645     H
O      0.27232   0.0194  0.10537     O
O      0.27232   0.9806  0.60537     O
C      0.27325   0.3592   0.6851     C
C      0.27325   0.6408   0.1851     C
C      0.27372   0.0394  0.56259     C
C      0.27372   0.9606  0.06259     C
O      0.27415   0.3693  0.74629     O
O      0.27415   0.6307  0.24629     O
H       0.2761   0.1215   0.9969     H
H       0.2761   0.8785   0.4969     H
Co     0.27885  0.15438  0.67145    Co
Co     0.27885  0.84562  0.17145    Co
O      0.28021   0.1245   0.5784     O
O      0.28021   0.8755   0.0784     O
C      0.28317    0.294  0.28738     C
C      0.28317    0.706  0.78738     C
O      0.28564  0.28807    0.663     O
O      0.28564  0.71193    0.163     O
H       0.2922   0.4717   0.3736     H
H       0.2922   0.5283   0.8736     H
C      0.29451   0.4205  0.34707     C
C      0.29451   0.5795  0.84707     C
H       0.2987   0.2351   0.1697     H
H       0.2987   0.7649   0.6697     H
H       0.3048   0.0509   0.2295     H
H       0.3048   0.9491   0.7295     H
H       0.3062   0.4189   0.0669     H
H       0.3062   0.5811   0.5669     H
N      0.30879   0.0874  0.75616     N
N      0.30879   0.9126  0.25616     N
C      0.31296    0.007  0.26465     C
C      0.31296    0.993  0.76465     C
N        0.315  0.32026  0.28914     N
N        0.315  0.67974  0.78914     N
C      0.32243   0.2315  0.19184     C
C      0.32243   0.7685  0.69184     C
C      0.32245   0.4014  0.32721     C
C      0.32245   0.5986  0.82721     C
C      0.32381    0.124  0.81818     C
C      0.32381    0.876  0.31818     C
H       0.3247   0.1874   0.8278     H
H       0.3247   0.8126   0.3278     H
C      0.32928   0.4377  0.07955     C
C      0.32928   0.5623  0.57955     C
C      0.33069   0.0264  0.33168     C
C      0.33069   0.9736  0.83168     C
H       0.3336   0.1559   0.1178     H
H       0.3336   0.8441   0.6178     H
H       0.3347    0.463   0.1811     H
H       0.3347    0.537   0.6811     H
H        0.335   0.4239   0.9843     H
H        0.335   0.5761   0.4843     H
C      0.33693  0.27282  0.25605     C
C      0.33693  0.72718  0.75605     C
H        0.337    0.085    0.351     H
H        0.337    0.915    0.851     H
N      0.33759  0.05776  0.86571     N
N      0.33759  0.94224  0.36571     N
H       0.3428    0.436   0.3372     H
H       0.3428    0.564   0.8372     H
C       0.3435   0.1848  0.16066     C
C       0.3435   0.8152  0.66066     C
C      0.34642   0.4635  0.14808     C
C      0.34642   0.5365  0.64808     C
C      0.34661     0.44  0.03037     C
C      0.34661     0.56  0.53037     C
H       0.3468   0.2111   0.9377     H
H       0.3468   0.7889   0.4377     H
C      0.35431    0.072  0.93916     C
C      0.35431    0.928  0.43916     C
C      0.35581   0.1607  0.96658     C
C      0.35581   0.8393  0.46658     C
H       0.3649   0.0261    0.671     H
H       0.3649   0.9739    0.171     H
H       0.3681   0.0601   0.4627     H
H       0.3681   0.9399   0.9627     H
C      0.36833   0.0009  0.48151     C
C      0.36833   0.9991  0.98151     C
C      0.37078   0.1732  0.03713     C
C      0.37078   0.8268  0.53713     C
H       0.3718    0.233   0.0553     H
H       0.3718    0.767   0.5553     H
C        0.372   0.2674  0.28914     C
C        0.372   0.7326  0.78914     C
H       0.3763   0.1498   0.7484     H
H       0.3763   0.8502   0.2484     H
C      0.37911   0.1802  0.19187     C
C      0.37911   0.8198  0.69187     C
C      0.38072   0.4898  0.16713     C
C      0.38072   0.5102  0.66713     C
C      0.38097  0.46596  0.04906     C
C      0.38097  0.53404  0.54906     C
H       0.3816   0.2943   0.3328     H
H       0.3816   0.7057   0.8328     H
O      0.38213  0.46793  0.93176     O
O      0.38213  0.53207  0.43176     O
O      0.38255   0.4835  0.78449     O
O      0.38255   0.5165  0.28449     O
C      0.38305   0.0131    0.053     C
C      0.38305   0.9869    0.553     C
C      0.38435   0.1001  0.08237     C
C      0.38435   0.8999  0.58237     C
C      0.38654    0.031  0.70473     C
C      0.38654    0.969  0.20473     C
H       0.3922   0.0375   0.5816     H
H       0.3922   0.9625   0.0816     H
C      0.39282   0.2218  0.25705     C
C      0.39282   0.7782  0.75705     C
C      0.39318   0.1048  0.75146     C
C      0.39318   0.8952  0.25146     C
C      0.39815   0.4907  0.11756     C
C      0.39815   0.5093  0.61756     C
C      0.39991   0.4837  0.74132     C
C      0.39991   0.5163  0.24132     C
C      0.40026   0.4674  0.99644     C
C      0.40026   0.5326  0.49644     C
C      0.40264  0.12224  0.16011     C
C      0.40264  0.87776  0.66011     C
C      0.41179  0.03594  0.20762     C
C      0.41179  0.96406  0.70762     C
Co     0.41648  0.46531   0.8791    Co
Co     0.41648  0.53469   0.3791    Co
H       0.4166   0.2187   0.2794     H
H       0.4166   0.7813   0.7794     H
H       0.4173   0.2969   0.7866     H
H       0.4173   0.7031   0.2866     H
H       0.4214   0.4921   0.6304     H
H       0.4214   0.5079   0.1304     H
H       0.4243   0.3041   0.1802     H
H       0.4243   0.6959   0.6802     H
C      0.42489   0.1111  0.80234     C
C      0.42489   0.8889  0.30234     C
C      0.42523   0.2761  0.83253     C
C      0.42523   0.7239  0.33253     C
H       0.4289    0.342   0.4667     H
H       0.4289    0.658   0.9667     H
O      0.43091  0.46354  0.75886     O
O      0.43091  0.53646  0.25886     O
N      0.43125  0.18807  0.85039     N
N      0.43125  0.81193  0.35039     N
N      0.43174  0.33133  0.88732     N
N      0.43174  0.66867  0.38732     N
O      0.43225  0.46832  0.01508     O
O      0.43225  0.53168  0.51508     O
C      0.43549    0.174  0.15731     C
C      0.43549    0.826  0.65731     C
C         0.44   0.2692  0.16542     C
C         0.44   0.7308  0.66542     C
C      0.44165   0.1837  0.92207     C
C      0.44165   0.8163  0.42207     C
C      0.44218   0.2731  0.94384     C
C      0.44218   0.7269  0.44384     C
C      0.44309   0.0281   0.2592     C
C      0.44309   0.9719   0.7592     C
C      0.44329    0.344   0.4387     C
C      0.44329    0.656   0.9387     C
N      0.44475  0.41632  0.39491     N
N      0.44475  0.58368  0.89491     N
H       0.4472   0.1307   0.9497     H
H       0.4472   0.8693   0.4497     H
H       0.4486    0.292   0.9902     H
H       0.4486    0.708   0.4902     H
C      0.44985    0.045  0.80722     C
C      0.44985    0.955  0.30722     C
H       0.4571   0.0593   0.1301     H
H       0.4571   0.9407   0.6301     H
C      0.45974   0.1234  0.13581     C
C      0.45974   0.8766  0.63581     C
H       0.4602   0.0725   0.2622     H
H       0.4602   0.9275   0.7622     H
C       0.4655   0.2774  0.43509     C
C       0.4655   0.7226  0.93509     C
C      0.46748   0.3902  0.36448     C
C      0.46748   0.6098  0.86448     C
C      0.46774   0.3135  0.15185     C
C      0.46774   0.6865  0.65185     C
H       0.4695   0.2216   0.4596     H
H       0.4695   0.7784   0.9596     H
H       0.4705   0.3776   0.1574     H
H       0.4705   0.6224   0.6574     H
H       0.4711   0.0488   0.8421     H
H       0.4711   0.9512   0.3421     H
H       0.4732    0.425   0.3307     H
H       0.4732    0.575   0.8307     H
N      0.48144   0.3079  0.38771     N
N      0.48144   0.6921  0.88771     N
C      0.48753   0.1667  0.12292     C
C      0.48753   0.8333  0.62292     C
C      0.49106   0.2621  0.13023     C
C      0.49106   0.7379  0.63023     C
H       0.4963    0.132   0.3906     H
H       0.4963    0.868   0.8906     H
H       0.5037    0.132   0.1094     H
H       0.5037    0.868   0.6094     H
C      0.50894   0.2621  0.36977     C
C      0.50894   0.7379  0.86977     C
C      0.51247   0.1667  0.37708     C
C      0.51247   0.8333  0.87708     C
N      0.51856   0.3079  0.11229     N
N      0.51856   0.6921  0.61229     N
H       0.5268    0.425   0.1693     H
H       0.5268    0.575   0.6693     H
H       0.5289   0.0488   0.6579     H
H       0.5289   0.9512   0.1579     H
H       0.5295   0.3776   0.3426     H
H       0.5295   0.6224   0.8426     H
H       0.5305   0.2216   0.0404     H
H       0.5305   0.7784   0.5404     H
C      0.53226   0.3135  0.34815     C
C      0.53226   0.6865  0.84815     C
C      0.53252   0.3902  0.13552     C
C      0.53252   0.6098  0.63552     C
C       0.5345   0.2774  0.06491     C
C       0.5345   0.7226  0.56491     C
H       0.5398   0.0725   0.2378     H
H       0.5398   0.9275   0.7378     H
C      0.54026   0.1234  0.36419     C
C      0.54026   0.8766  0.86419     C
H       0.5429   0.0593   0.3699     H
H       0.5429   0.9407   0.8699     H
C      0.55015    0.045  0.69278     C
C      0.55015    0.955  0.19278     C
H       0.5514    0.292   0.5098     H
H       0.5514    0.708   0.0098     H
H       0.5528   0.1307   0.5503     H
H       0.5528   0.8693   0.0503     H
N      0.55525  0.41632  0.10509     N
N      0.55525  0.58368  0.60509     N
C      0.55671    0.344   0.0613     C
C      0.55671    0.656   0.5613     C
C      0.55691   0.0281   0.2408     C
C      0.55691   0.9719   0.7408     C
C      0.55782   0.2731  0.55616     C
C      0.55782   0.7269  0.05616     C
C      0.55835   0.1837  0.57793     C
C      0.55835   0.8163  0.07793     C
C         0.56   0.2692  0.33458     C
C         0.56   0.7308  0.83458     C
C      0.56451    0.174  0.34269     C
C      0.56451    0.826  0.84269     C
O      0.56775  0.46832  0.48492     O
O      0.56775  0.53168  0.98492     O
N      0.56826  0.33133  0.61268     N
N      0.56826  0.66867  0.11268     N
N      0.56875  0.18807  0.64961     N
N      0.56875  0.81193  0.14961     N
O      0.56909  0.46354  0.74114     O
O      0.56909  0.53646  0.24114     O
H       0.5711    0.342   0.0333     H
H       0.5711    0.658   0.5333     H
C      0.57477   0.2761  0.66747     C
C      0.57477   0.7239  0.16747     C
C      0.57511   0.1111  0.69766     C
C      0.57511   0.8889  0.19766     C
H       0.5757   0.3041   0.3198     H
H       0.5757   0.6959   0.8198     H
H       0.5786   0.4921   0.8696     H
H       0.5786   0.5079   0.3696     H
H       0.5827   0.2969   0.7134     H
H       0.5827   0.7031   0.2134     H
H       0.5834   0.2187   0.2206     H
H       0.5834   0.7813   0.7206     H
Co     0.58352  0.46531   0.6209    Co
Co     0.58352  0.53469   0.1209    Co
C      0.58821  0.03594  0.29238     C
C      0.58821  0.96406  0.79238     C
C      0.59736  0.12224  0.33989     C
C      0.59736  0.87776  0.83989     C
C      0.59974   0.4674  0.50356     C
C      0.59974   0.5326  0.00356     C
C      0.60009   0.4837  0.75868     C
C      0.60009   0.5163  0.25868     C
C      0.60185   0.4907  0.38244     C
C      0.60185   0.5093  0.88244     C
C      0.60682   0.1048  0.74854     C
C      0.60682   0.8952  0.24854     C
C      0.60718   0.2218  0.24295     C
C      0.60718   0.7782  0.74295     C
H       0.6078   0.0375   0.9184     H
H       0.6078   0.9625   0.4184     H
C      0.61346    0.031  0.79527     C
C      0.61346    0.969  0.29527     C
C      0.61565   0.1001  0.41763     C
C      0.61565   0.8999  0.91763     C
C      0.61695   0.0131    0.447     C
C      0.61695   0.9869    0.947     C
O      0.61745   0.4835  0.71551     O
O      0.61745   0.5165  0.21551     O
O      0.61787  0.46793  0.56824     O
O      0.61787  0.53207  0.06824     O
H       0.6184   0.2943   0.1672     H
H       0.6184   0.7057   0.6672     H
C      0.61903  0.46596  0.45094     C
C      0.61903  0.53404  0.95094     C
C      0.61928   0.4898  0.33287     C
C      0.61928   0.5102  0.83287     C
C      0.62089   0.1802  0.30813     C
C      0.62089   0.8198  0.80813     C
H       0.6237   0.1498   0.7516     H
H       0.6237   0.8502   0.2516     H
C        0.628   0.2674  0.21086     C
C        0.628   0.7326  0.71086     C
H       0.6282    0.233   0.4447     H
H       0.6282    0.767   0.9447     H
C      0.62922   0.1732  0.46287     C
C      0.62922   0.8268  0.96287     C
C      0.63167   0.0009  0.01849     C
C      0.63167   0.9991  0.51849     C
H       0.6319   0.0601   0.0373     H
H       0.6319   0.9399   0.5373     H
H       0.6351   0.0261    0.829     H
H       0.6351   0.9739    0.329     H
C      0.64419   0.1607  0.53342     C
C      0.64419   0.8393  0.03342     C
C      0.64569    0.072  0.56084     C
C      0.64569    0.928  0.06084     C
H       0.6532   0.2111   0.5623     H
H       0.6532   0.7889   0.0623     H
C      0.65339     0.44  0.46963     C
C      0.65339     0.56  0.96963     C
C      0.65358   0.4635  0.35192     C
C      0.65358   0.5365  0.85192     C
C       0.6565   0.1848  0.33934     C
C       0.6565   0.8152  0.83934     C
H       0.6572    0.436   0.1628     H
H       0.6572    0.564   0.6628     H
N      0.66241  0.05776  0.63429     N
N      0.66241  0.94224  0.13429     N
H        0.663    0.085    0.149     H
H        0.663    0.915    0.649     H
C      0.66307  0.27282  0.24395     C
C      0.66307  0.72718  0.74395     C
H        0.665   0.4239   0.5157     H
H        0.665   0.5761   0.0157     H
H       0.6653    0.463   0.3189     H
H       0.6653    0.537   0.8189     H
H       0.6664   0.1559   0.3822     H
H       0.6664   0.8441   0.8822     H
C      0.66931   0.0264  0.16832     C
C      0.66931   0.9736  0.66832     C
C      0.67072   0.4377  0.42045     C
C      0.67072   0.5623  0.92045     C
H       0.6753   0.1874   0.6722     H
H       0.6753   0.8126   0.1722     H
C      0.67619    0.124  0.68182     C
C      0.67619    0.876  0.18182     C
C      0.67755   0.4014  0.17279     C
C      0.67755   0.5986  0.67279     C
C      0.67757   0.2315  0.30816     C
C      0.67757   0.7685  0.80816     C
N        0.685  0.32026  0.21086     N
N        0.685  0.67974  0.71086     N
C      0.68704    0.007  0.23535     C
C      0.68704    0.993  0.73535     C
N      0.69121   0.0874  0.74384     N
N      0.69121   0.9126  0.24384     N
H       0.6938   0.4189   0.4331     H
H       0.6938   0.5811   0.9331     H
H       0.6952   0.0509   0.2705     H
H       0.6952   0.9491   0.7705     H
H       0.7013   0.2351   0.3303     H
H       0.7013   0.7649   0.8303     H
C      0.70549   0.4205  0.15293     C
C      0.70549   0.5795  0.65293     C
H       0.7078   0.4717   0.1264     H
H       0.7078   0.5283   0.6264     H
O      0.71436  0.28807    0.837     O
O      0.71436  0.71193    0.337     O
C      0.71683    0.294  0.21262     C
C      0.71683    0.706  0.71262     C
O      0.71979   0.1245   0.9216     O
O      0.71979   0.8755   0.4216     O
Co     0.72115  0.15438  0.82855    Co
Co     0.72115  0.84562  0.32855    Co
H       0.7239   0.1215   0.5031     H
H       0.7239   0.8785   0.0031     H
O      0.72585   0.3693  0.75371     O
O      0.72585   0.6307  0.25371     O
C      0.72628   0.0394  0.93741     C
C      0.72628   0.9606  0.43741     C
C      0.72675   0.3592   0.8149     C
C      0.72675   0.6408   0.3149     C
O      0.72768   0.0194  0.39463     O
O      0.72768   0.9806  0.89463     O
H        0.728   0.2411   0.2355     H
H        0.728   0.7589   0.7355     H
N      0.73044  0.35243  0.17788     N
N      0.73044  0.64757  0.67788     N
C      0.73184   0.0739   0.5353     C
C      0.73184   0.9261   0.0353     C
C      0.73476   0.0154  0.01303     C
C      0.73476   0.9846  0.51303     C
H       0.7385   0.1521   0.6234     H
H       0.7385   0.8479   0.1234     H
H       0.7408   0.4638   0.2988     H
H       0.7408   0.5362   0.7988     H
C      0.74106   0.0926   0.6077     C
C      0.74106   0.9074   0.1077     C
C      0.74166   0.4342  0.86663     C
C      0.74166   0.5658  0.36663     C
C      0.74642   0.4767  0.34624     C
C      0.74642   0.5233  0.84624     C
C      0.74818   0.0851  0.06257     C
C      0.74818   0.9149  0.56257     C
H       0.7497   0.3546   0.9523     H
H       0.7497   0.6454   0.4523     H
H       0.7503   0.1454   0.0477     H
H       0.7503   0.8546   0.5477     H
C      0.75182   0.4149  0.93743     C
C      0.75182   0.5851  0.43743     C
C      0.75358   0.0233  0.65376     C
C      0.75358   0.9767  0.15376     C
C      0.75834   0.0658  0.13337     C
C      0.75834   0.9342  0.63337     C
C      0.75894   0.4074   0.3923     C
C      0.75894   0.5926   0.8923     C
H       0.7592   0.0362   0.7012     H
H       0.7592   0.9638   0.2012     H
H       0.7615   0.3479   0.3766     H
H       0.7615   0.6521   0.8766     H
C      0.76524   0.4846  0.98697     C
C      0.76524   0.5154  0.48697     C
C      0.76816   0.4261   0.4647     C
C      0.76816   0.5739   0.9647     C
N      0.76956  0.14757  0.82212     N
N      0.76956  0.85243  0.32212     N
H        0.772   0.2589   0.7645     H
H        0.772   0.7411   0.2645     H
O      0.77232   0.4806  0.60537     O
O      0.77232   0.5194  0.10537     O
C      0.77325   0.1408   0.1851     C
C      0.77325   0.8592   0.6851     C
C      0.77372   0.4606  0.06259     C
C      0.77372   0.5394  0.56259     C
O      0.77415   0.1307  0.24629     O
O      0.77415   0.8693  0.74629     O
H       0.7761   0.3785   0.4969     H
H       0.7761   0.6215   0.9969     H
Co     0.77885  0.34562  0.17145    Co
Co     0.77885  0.65438  0.67145    Co
O      0.78021   0.3755   0.0784     O
O      0.78021   0.6245   0.5784     O
C      0.78317    0.206  0.78738     C
C      0.78317    0.794  0.28738     C
O      0.78564  0.21193    0.163     O
O      0.78564  0.78807    0.663     O
H       0.7922   0.0283   0.8736     H
H       0.7922   0.9717   0.3736     H
C      0.79451   0.0795  0.84707     C
C      0.79451   0.9205  0.34707     C
H       0.7987   0.2649   0.6697     H
H       0.7987   0.7351   0.1697     H
H       0.8048   0.4491   0.7295     H
H       0.8048   0.5509   0.2295     H
H       0.8062   0.0811   0.5669     H
H       0.8062   0.9189   0.0669     H
N      0.80879   0.4126  0.25616     N
N      0.80879   0.5874  0.75616     N
C      0.81296    0.493  0.76465     C
C      0.81296    0.507  0.26465     C
N        0.815  0.17974  0.78914     N
N        0.815  0.82026  0.28914     N
C      0.82243   0.2685  0.69184     C
C      0.82243   0.7315  0.19184     C
C      0.82245   0.0986  0.82721     C
C      0.82245   0.9014  0.32721     C
C      0.82381    0.376  0.31818     C
C      0.82381    0.624  0.81818     C
H       0.8247   0.3126   0.3278     H
H       0.8247   0.6874   0.8278     H
C      0.82928   0.0623  0.57955     C
C      0.82928   0.9377  0.07955     C
C      0.83069   0.4736  0.83168     C
C      0.83069   0.5264  0.33168     C
H       0.8336   0.3441   0.6178     H
H       0.8336   0.6559   0.1178     H
H       0.8347    0.037   0.6811     H
H       0.8347    0.963   0.1811     H
H        0.835   0.0761   0.4843     H
H        0.835   0.9239   0.9843     H
C      0.83693  0.22718  0.75605     C
C      0.83693  0.77282  0.25605     C
H        0.837    0.415    0.851     H
H        0.837    0.585    0.351     H
N      0.83759  0.44224  0.36571     N
N      0.83759  0.55776  0.86571     N
H       0.8428    0.064   0.8372     H
H       0.8428    0.936   0.3372     H
C       0.8435   0.3152  0.66066     C
C       0.8435   0.6848  0.16066     C
C      0.84642   0.0365  0.64808     C
C      0.84642   0.9635  0.14808     C
C      0.84661     0.06  0.53037     C
C      0.84661     0.94  0.03037     C
H       0.8468   0.2889   0.4377     H
H       0.8468   0.7111   0.9377     H
C      0.85431    0.428  0.43916     C
C      0.85431    0.572  0.93916     C
C      0.85581   0.3393  0.46658     C
C      0.85581   0.6607  0.96658     C
H       0.8649   0.4739    0.171     H
H       0.8649   0.5261    0.671     H
H       0.8681   0.4399   0.9627     H
H       0.8681   0.5601   0.4627     H
C      0.86833   0.4991  0.98151     C
C      0.86833   0.5009  0.48151     C
C      0.87078   0.3268  0.53713     C
C      0.87078   0.6732  0.03713     C
H       0.8718    0.267   0.5553     H
H       0.8718    0.733   0.0553     H
C        0.872   0.2326  0.78914     C
C        0.872   0.7674  0.28914     C
H       0.8763   0.3502   0.2484     H
H       0.8763   0.6498   0.7484     H
C      0.87911   0.3198  0.69187     C
C      0.87911   0.6802  0.19187     C
C      0.88072   0.0102  0.66713     C
C      0.88072   0.9898  0.16713     C
C      0.88097  0.03404  0.54906     C
C      0.88097  0.96596  0.04906     C
H       0.8816   0.2057   0.8328     H
H       0.8816   0.7943   0.3328     H
O      0.88213  0.03207  0.43176     O
O      0.88213  0.96793  0.93176     O
O      0.88255   0.0165  0.28449     O
O      0.88255   0.9835  0.78449     O
C      0.88305   0.4869    0.553     C
C      0.88305   0.5131    0.053     C
C      0.88435   0.3999  0.58237     C
C      0.88435   0.6001  0.08237     C
C      0.88654    0.469  0.20473     C
C      0.88654    0.531  0.70473     C
H       0.8922   0.4625   0.0816     H
H       0.8922   0.5375   0.5816     H
C      0.89282   0.2782  0.75705     C
C      0.89282   0.7218  0.25705     C
C      0.89318   0.3952  0.25146     C
C      0.89318   0.6048  0.75146     C
C      0.89815   0.0093  0.61756     C
C      0.89815   0.9907  0.11756     C
C      0.89991   0.0163  0.24132     C
C      0.89991   0.9837  0.74132     C
C      0.90026   0.0326  0.49644     C
C      0.90026   0.9674  0.99644     C
C      0.90264  0.37776  0.66011     C
C      0.90264  0.62224  0.16011     C
C      0.91179  0.46406  0.70762     C
C      0.91179  0.53594  0.20762     C
Co     0.91648  0.03469   0.3791    Co
Co     0.91648  0.96531   0.8791    Co
H       0.9166   0.2813   0.7794     H
H       0.9166   0.7187   0.2794     H
H       0.9173   0.2031   0.2866     H
H       0.9173   0.7969   0.7866     H
H       0.9214   0.0079   0.1304     H
H       0.9214   0.9921   0.6304     H
H       0.9243   0.1959   0.6802     H
H       0.9243   0.8041   0.1802     H
C      0.92489   0.3889  0.30234     C
C      0.92489   0.6111  0.80234     C
C      0.92523   0.2239  0.33253     C
C      0.92523   0.7761  0.83253     C
H       0.9289    0.158   0.9667     H
H       0.9289    0.842   0.4667     H
O      0.93091  0.03646  0.25886     O
O      0.93091  0.96354  0.75886     O
N      0.93125  0.31193  0.35039     N
N      0.93125  0.68807  0.85039     N
N      0.93174  0.16867  0.38732     N
N      0.93174  0.83133  0.88732     N
O      0.93225  0.03168  0.51508     O
O      0.93225  0.96832  0.01508     O
C      0.93549    0.326  0.65731     C
C      0.93549    0.674  0.15731     C
C         0.94   0.2308  0.66542     C
C         0.94   0.7692  0.16542     C
C      0.94165   0.3163  0.42207     C
C      0.94165   0.6837  0.92207     C
C      0.94218   0.2269  0.44384     C
C      0.94218   0.7731  0.94384     C
C      0.94309   0.4719   0.7592     C
C      0.94309   0.5281   0.2592     C
C      0.94329    0.156   0.9387     C
C      0.94329    0.844   0.4387     C
N      0.94475  0.08368  0.89491     N
N      0.94475  0.91632  0.39491     N
H       0.9472   0.3693   0.4497     H
H       0.9472   0.6307   0.9497     H
H       0.9486    0.208   0.4902     H
H       0.9486    0.792   0.9902     H
C      0.94985    0.455  0.30722     C
C      0.94985    0.545  0.80722     C
H       0.9571   0.4407   0.6301     H
H       0.9571   0.5593   0.1301     H
C      0.95974   0.3766  0.63581     C
C      0.95974   0.6234  0.13581     C
H       0.9602   0.4275   0.7622     H
H       0.9602   0.5725   0.2622     H
C       0.9655   0.2226  0.93509     C
C       0.9655   0.7774  0.43509     C
C      0.96748   0.1098  0.86448     C
C      0.96748   0.8902  0.36448     C
C      0.96774   0.1865  0.65185     C
C      0.96774   0.8135  0.15185     C
H       0.9695   0.2784   0.9596     H
H       0.9695   0.7216   0.4596     H
H       0.9705   0.1224   0.6574     H
H       0.9705   0.8776   0.1574     H
H       0.9711   0.4512   0.3421     H
H       0.9711   0.5488   0.8421     H
H       0.9732    0.075   0.8307     H
H       0.9732    0.925   0.3307     H
N      0.98144   0.1921  0.88771     N
N      0.98144   0.8079  0.38771     N
C      0.98753   0.3333  0.62292     C
C      0.98753   0.6667  0.12292     C
C      0.99106   0.2379  0.63023     C
C      0.99106   0.7621  0.13023     C
H       0.9963    0.368   0.8906     H
H       0.9963    0.632   0.3906     H
