data_I
_chemical_name_common  '/home/zhangsd/repos/MofS-CGCNN/ML/data/WS24/clean_cifs/BUCVEC'
_cell_length_a 41.02100
_cell_length_b 14.36500
_cell_length_c 20.25900
_cell_angle_alpha 90.00000
_cell_angle_beta  108.59000
_cell_angle_gamma 90.00000
_space_group_name_H-M_alt      'P 1'


loop_
_space_group_symop_operation_xyz
  'x, y, z' 

loop_
_atom_site_label
_atom_site_fract_x
_atom_site_fract_y
_atom_site_fract_z
_atom_site_type_symbol
H       0.0027   0.1342   0.1106     H
H       0.0027   0.8658   0.6106     H
C      0.01039   0.2642   0.3694     C
C      0.01039   0.7358   0.8694     C
C      0.01353   0.1693   0.3762     C
C      0.01353   0.8307   0.8762     C
N      0.01687   0.3111  0.11307     N
N      0.01687   0.6889  0.61307     N
H       0.0246   0.4306   0.1683     H
H       0.0246   0.5694   0.6683     H
H       0.0282   0.2239   0.0415     H
H       0.0282   0.7761   0.5415     H
H       0.0295   0.0486   0.6587     H
H       0.0295   0.9514   0.1587     H
C      0.03044   0.3946    0.135     C
C      0.03044   0.6054    0.635     C
H        0.031   0.3805    0.344     H
H        0.031   0.6195    0.844     H
C      0.03223   0.2806    0.066     C
C      0.03223   0.7194    0.566     C
C      0.03346   0.3156   0.3488     C
C      0.03346   0.6844   0.8488     C
H       0.0407   0.0724   0.2382     H
H       0.0407   0.9276   0.7382     H
C      0.04094   0.1264   0.3633     C
C      0.04094   0.8736   0.8633     C
H       0.0434   0.0615   0.3687     H
H       0.0434   0.9385   0.8687     H
C      0.05087   0.0446   0.6939     C
C      0.05087   0.9554   0.1939     C
N      0.05283   0.4204   0.1048     N
N      0.05283   0.5796   0.6048     N
H       0.0535   0.2925   0.5126     H
H       0.0535   0.7075   0.0126     H
C       0.0543   0.3486   0.0618     C
C       0.0543   0.6514   0.5618     C
H       0.0545   0.1306   0.5521     H
H       0.0545   0.8694   0.0521     H
C      0.05786   0.0278   0.2415     C
C      0.05786   0.9722   0.7415     C
C      0.05912   0.2733   0.5593     C
C      0.05912   0.7267   0.0593     C
C      0.05972    0.184   0.5804     C
C      0.05972    0.816   0.0804     C
C      0.06072   0.2708   0.3349     C
C      0.06072   0.7292   0.8349     C
C      0.06495   0.1761   0.3425     C
C      0.06495   0.8239   0.8425     C
O      0.06647   0.4705  0.48373     O
O      0.06647   0.5295  0.98373     O
O      0.06775   0.4611  0.74531     O
O      0.06775   0.5389  0.24531     O
N      0.06786   0.3314   0.6151     N
N      0.06786   0.6686   0.1151     N
H       0.0685   0.3467   0.0335     H
H       0.0685   0.6533   0.5335     H
N      0.06951   0.1874   0.6511     N
N      0.06951   0.8126   0.1511     N
C      0.07431   0.2763   0.6693     C
C      0.07431   0.7237   0.1693     C
C      0.07577   0.1103   0.6992     C
C      0.07577   0.8897   0.1992     C
H       0.0764   0.3059     0.32     H
H       0.0764   0.6941     0.82     H
H       0.0781   0.4885   0.8719     H
H       0.0781   0.5115   0.3719     H
H       0.0815   0.2973   0.7157     H
H       0.0815   0.7027   0.2157     H
Zn     0.08216  0.46559  0.62187    Zn
Zn     0.08216  0.53441  0.12187    Zn
H       0.0829   0.2215   0.2209     H
H       0.0829   0.7785   0.7209     H
C      0.08881    0.037   0.2932     C
C      0.08881    0.963   0.7932     C
C      0.09801   0.1242   0.3406     C
C      0.09801   0.8758   0.8406     C
C      0.09825   0.4697    0.505     C
C      0.09825   0.5303    0.005     C
C      0.09864   0.4834   0.7615     C
C      0.09864   0.5166   0.2615     C
C      0.10127   0.4929    0.385     C
C      0.10127   0.5071    0.885     C
C      0.10685    0.224   0.2431     C
C      0.10685    0.776   0.7431     C
C      0.10738   0.1035   0.7496     C
C      0.10738   0.8965   0.2496     C
H       0.1083    0.035   0.9192     H
H       0.1083    0.965   0.4192     H
C      0.11376   0.0294   0.7958     C
C      0.11376   0.9706   0.2958     C
O      0.11503   0.4859  0.71731     O
O      0.11503   0.5141  0.21731     O
O      0.11575   0.4698  0.56945     O
O      0.11575   0.5302  0.06945     O
C      0.11648   0.1024   0.4178     C
C      0.11648   0.8976   0.9178     C
H       0.1174    0.296   0.1666     H
H       0.1174    0.704   0.6666     H
C      0.11762   0.4682    0.453     C
C      0.11762   0.5318    0.953     C
C      0.11784   0.0163   0.4477     C
C      0.11784   0.9837   0.9477     C
C      0.11786   0.4913   0.3351     C
C      0.11786   0.5087   0.8351     C
C      0.12097   0.1821   0.3081     C
C      0.12097   0.8179   0.8081     C
H       0.1244   0.1485   0.7528     H
H       0.1244   0.8515   0.2528     H
C      0.12731   0.2691   0.2108     C
C      0.12731   0.7309   0.7108     C
H       0.1291   0.2361   0.4445     H
H       0.1291   0.7639   0.9445     H
C      0.13021   0.1757   0.4629     C
C      0.13021   0.8243   0.9629     C
C      0.13302   0.0026   0.5194     C
C      0.13302   0.9974   0.0194     C
H       0.1333   0.0572   0.0385     H
H       0.1333   0.9428   0.5385     H
H       0.1355   0.0239   0.8297     H
H       0.1355   0.9761   0.3297     H
C      0.14537   0.1635   0.5332     C
C      0.14537   0.8365   0.0332     C
C      0.14738   0.0758   0.5618     C
C      0.14738   0.9242   0.0618     C
C      0.15187   0.4413   0.4725     C
C      0.15187   0.5587   0.9725     C
C       0.1519   0.4637    0.355     C
C       0.1519   0.5363    0.855     C
H       0.1544   0.2149   0.5619     H
H       0.1544   0.7851   0.0619     H
H       0.1559   0.4358   0.1613     H
H       0.1559   0.5642   0.6613     H
C      0.15632   0.1856   0.3383     C
C      0.15632   0.8144   0.8383     C
H       0.1622   0.0808   0.1493     H
H       0.1622   0.9192   0.6493     H
C      0.16246   0.2746   0.2436     C
C      0.16246   0.7254   0.7436     C
H       0.1634   0.4617   0.3217     H
H       0.1634   0.5383   0.8217     H
H       0.1635   0.4246   0.5189     H
H       0.1635   0.5754   0.0189     H
N      0.16384   0.0612  0.63433     N
N      0.16384   0.9388  0.13433     N
H       0.1665   0.1552   0.3811     H
H       0.1665   0.8448   0.8811     H
C      0.16907   0.4391   0.4227     C
C      0.16907   0.5609   0.9227     C
C       0.1694   0.0218   0.1685     C
C       0.1694   0.9782   0.6685     C
C      0.17632   0.4011   0.1719     C
C      0.17632   0.5989   0.6719     C
C      0.17715   0.2325   0.3075     C
C      0.17715   0.7675   0.8075     C
H       0.1783    0.191   0.6714     H
H       0.1783    0.809   0.1714     H
C      0.17841   0.1271   0.6817     C
C      0.17841   0.8729   0.1817     C
N      0.18384   0.3212   0.2103     N
N      0.18384   0.6788   0.7103     N
C      0.18727   0.0027   0.2357     C
C      0.18727   0.9973   0.7357     C
H       0.1923   0.4209   0.4356     H
H       0.1923   0.5791   0.9356     H
N      0.19282   0.0918  0.74437     N
N      0.19282   0.9082  0.24437     N
H       0.1948   0.0474   0.2712     H
H       0.1948   0.9526   0.7712     H
H        0.201   0.2357   0.3298     H
H        0.201   0.7643   0.8298     H
C      0.20426   0.4203   0.1518     C
C      0.20426   0.5797   0.6518     C
H       0.2065   0.4717   0.1249     H
H       0.2065   0.5283   0.6249     H
C      0.21588   0.2947   0.2123     C
C      0.21588   0.7053   0.7123     C
O       0.2162   0.2848   0.8441     O
O       0.2162   0.7152   0.3441     O
O      0.22315   0.1128  0.91918     O
O      0.22315   0.8872  0.41918     O
Zn     0.22332  0.15442  0.82918    Zn
Zn     0.22332  0.84558  0.32918    Zn
H       0.2248   0.1273    0.507     H
H       0.2248   0.8727    0.007     H
O      0.22529   0.3625   0.7575     O
O      0.22529   0.6375   0.2575     O
O      0.22549   0.0371   0.3965     O
O      0.22549   0.9629   0.8965     O
C      0.22594   0.3554   0.8187     C
C      0.22594   0.6446   0.3187     C
H       0.2273   0.2417   0.2358     H
H       0.2273   0.7583   0.7358     H
C      0.22762   0.0275   0.9375     C
C      0.22762   0.9725   0.4375     C
N      0.22865   0.3523  0.17741     N
N      0.22865   0.6477  0.67741     N
C      0.23346   0.0782   0.5383     C
C      0.23346   0.9218   0.0383     C
C      0.23681   0.0096   0.0134     C
C      0.23681   0.9904   0.5134     C
H        0.238   0.4659   0.2964     H
H        0.238   0.5341   0.7964     H
H       0.2405   0.1538   0.6266     H
H       0.2405   0.8462   0.1266     H
C      0.24059   0.4337   0.8685     C
C      0.24059   0.5663   0.3685     C
C      0.24289   0.0941   0.6098     C
C      0.24289   0.9059   0.1098     C
C      0.24432   0.4771   0.3445     C
C      0.24432   0.5229   0.8445     C
H       0.2486   0.3584   0.9567     H
H       0.2486   0.6416   0.4567     H
C       0.2495   0.0815   0.0602     C
C       0.2495   0.9185   0.5602     C
C       0.2505   0.4185   0.9398     C
C       0.2505   0.5815   0.4398     C
H       0.2514   0.1416   0.0433     H
H       0.2514   0.8584   0.5433     H
C      0.25568   0.0229   0.6555     C
C      0.25568   0.9771   0.1555     C
C      0.25711   0.4059   0.3902     C
C      0.25711   0.5941   0.8902     C
C      0.25941   0.0663   0.1315     C
C      0.25941   0.9337   0.6315     C
H       0.2595   0.3462   0.3734     H
H       0.2595   0.6538   0.8734     H
H        0.262   0.0341   0.7036     H
H        0.262   0.9659   0.2036     H
C      0.26319   0.4904   0.9866     C
C      0.26319   0.5096   0.4866     C
C      0.26654   0.4218   0.4617     C
C      0.26654   0.5782   0.9617     C
N      0.27135   0.1477  0.82259     N
N      0.27135   0.8523  0.32259     N
C      0.27238   0.4725   0.0625     C
C      0.27238   0.5275   0.5625     C
H       0.2727   0.2583   0.7642     H
H       0.2727   0.7417   0.2642     H
C      0.27406   0.1446   0.1813     C
C      0.27406   0.8554   0.6813     C
O      0.27451   0.4629   0.6035     O
O      0.27451   0.5371   0.1035     O
O      0.27471   0.1375   0.2425     O
O      0.27471   0.8625   0.7425     O
H       0.2752   0.3727    0.493     H
H       0.2752   0.6273    0.993     H
Zn     0.27668  0.34558  0.17082    Zn
Zn     0.27668  0.65442  0.67082    Zn
O      0.27685   0.3872  0.08082     O
O      0.27685   0.6128  0.58082     O
O       0.2838   0.2152   0.1559     O
O       0.2838   0.7848   0.6559     O
C      0.28412   0.2053   0.7877     C
C      0.28412   0.7947   0.2877     C
H       0.2935   0.0283   0.8751     H
H       0.2935   0.9717   0.3751     H
C      0.29574   0.0797   0.8482     C
C      0.29574   0.9203   0.3482     C
H        0.299   0.2643   0.6702     H
H        0.299   0.7357   0.1702     H
H       0.3052   0.4526   0.7288     H
H       0.3052   0.5474   0.2288     H
N      0.30718   0.4082  0.25563     N
N      0.30718   0.5918  0.75563     N
H       0.3077   0.0791   0.5644     H
H       0.3077   0.9209   0.0644     H
C      0.31273   0.4973   0.7643     C
C      0.31273   0.5027   0.2643     C
N      0.31616   0.1788   0.7897     N
N      0.31616   0.8212   0.2897     N
C      0.32159   0.3729   0.3183     C
C      0.32159   0.6271   0.8183     C
H       0.3217    0.309   0.3286     H
H       0.3217    0.691   0.8286     H
C      0.32285   0.2675   0.6925     C
C      0.32285   0.7325   0.1925     C
C      0.32368   0.0989   0.8281     C
C      0.32368   0.9011   0.3281     C
C       0.3306   0.4782   0.8315     C
C       0.3306   0.5218   0.3315     C
C      0.33093   0.0609   0.5773     C
C      0.33093   0.9391   0.0773     C
H       0.3335   0.3448   0.6189     H
H       0.3335   0.6552   0.1189     H
N      0.33616   0.4388  0.36567     N
N      0.33616   0.5612  0.86567     N
H       0.3365   0.0754   0.4811     H
H       0.3365   0.9246   0.9811     H
H       0.3366   0.0383   0.6783     H
H       0.3366   0.9617   0.1783     H
C      0.33754   0.2254   0.7564     C
C      0.33754   0.7746   0.2564     C
H       0.3378   0.4192   0.8507     H
H       0.3378   0.5808   0.3507     H
C      0.34368   0.3144   0.6617     C
C      0.34368   0.6856   0.1617     C
H       0.3441   0.0642   0.8387     H
H       0.3441   0.9358   0.3387     H
H       0.3456   0.2851   0.4381     H
H       0.3456   0.7149   0.9381     H
C       0.3481   0.0363    0.645     C
C       0.3481   0.9637    0.145     C
C      0.34813   0.0587   0.5275     C
C      0.34813   0.9413   0.0275     C
C      0.35262   0.4242   0.4382     C
C      0.35262   0.5758   0.9382     C
C      0.35463   0.3365   0.4668     C
C      0.35463   0.6635   0.9668     C
H       0.3645   0.4761   0.1703     H
H       0.3645   0.5239   0.6703     H
H       0.3667   0.4428   0.9615     H
H       0.3667   0.5572   0.4615     H
C      0.36698   0.4974   0.4806     C
C      0.36698   0.5026   0.9806     C
C      0.36979   0.3243   0.5371     C
C      0.36979   0.6757   0.0371     C
H       0.3709   0.2639   0.5555     H
H       0.3709   0.7361   0.0555     H
C      0.37269   0.2309   0.7892     C
C      0.37269   0.7691   0.2892     C
H       0.3756   0.3515   0.2472     H
H       0.3756   0.6485   0.7472     H
C      0.37903   0.3179   0.6919     C
C      0.37903   0.6821   0.1919     C
C      0.38214   0.0087   0.6649     C
C      0.38214   0.9913   0.1649     C
C      0.38216   0.4837   0.5523     C
C      0.38216   0.5163   0.0523     C
C      0.38238   0.0318    0.547     C
C      0.38238   0.9682    0.047     C
H       0.3826    0.204   0.8334     H
H       0.3826    0.796   0.3334     H
C      0.38352   0.3976   0.5822     C
C      0.38352   0.6024   0.0822     C
O      0.38425   0.0302  0.43055     O
O      0.38425   0.9698  0.93055     O
O      0.38497   0.0141  0.28269     O
O      0.38497   0.9859  0.78269     O
C      0.38624   0.4706   0.2042     C
C      0.38624   0.5294   0.7042     C
H       0.3917    0.465   0.0808     H
H       0.3917    0.535   0.5808     H
C      0.39262   0.3965   0.2504     C
C      0.39262   0.6035   0.7504     C
C      0.39315    0.276   0.7569     C
C      0.39315    0.724   0.2569     C
C      0.39873   0.0071    0.615     C
C      0.39873   0.9929    0.115     C
C      0.40136   0.0166   0.2385     C
C      0.40136   0.9834   0.7385     C
C      0.40175   0.0303    0.495     C
C      0.40175   0.9697    0.995     C
C      0.40199   0.3758   0.6594     C
C      0.40199   0.6242   0.1594     C
C      0.41119    0.463   0.7068     C
C      0.41119    0.537   0.2068     C
H       0.4171   0.2785   0.7791     H
H       0.4171   0.7215   0.2791     H
Zn     0.41784  0.03441  0.37813    Zn
Zn     0.41784  0.96559  0.87813    Zn
H       0.4185   0.2027   0.2843     H
H       0.4185   0.7973   0.7843     H
H       0.4219   0.0115   0.1281     H
H       0.4219   0.9885   0.6281     H
H       0.4236   0.1941     0.68     H
H       0.4236   0.8059     0.18     H
C      0.42423   0.3897   0.3008     C
C      0.42423   0.6103   0.8008     C
C      0.42569   0.2237   0.3307     C
C      0.42569   0.7763   0.8307     C
N      0.43049   0.3126   0.3489     N
N      0.43049   0.6874   0.8489     N
H       0.4315   0.1533   0.9665     H
H       0.4315   0.8467   0.4665     H
N      0.43214   0.1686   0.3849     N
N      0.43214   0.8314   0.8849     N
O      0.43225   0.0389  0.25469     O
O      0.43225   0.9611  0.75469     O
O      0.43353   0.0295  0.51627     O
O      0.43353   0.9705  0.01627     O
C      0.43505   0.3239   0.6575     C
C      0.43505   0.6761   0.1575     C
C      0.43928   0.2292   0.6651     C
C      0.43928   0.7708   0.1651     C
C      0.44028    0.316   0.4196     C
C      0.44028    0.684   0.9196     C
C      0.44088   0.2267   0.4407     C
C      0.44088   0.7733   0.9407     C
C      0.44214   0.4722   0.7585     C
C      0.44214   0.5278   0.2585     C
H       0.4455   0.3694   0.4479     H
H       0.4455   0.6306   0.9479     H
C       0.4457   0.1514   0.9382     C
C       0.4457   0.8486   0.4382     C
H       0.4465   0.2075   0.4874     H
H       0.4465   0.7925   0.9874     H
N      0.44717   0.0796   0.8952     N
N      0.44717   0.9204   0.3952     N
C      0.44913   0.4554   0.3061     C
C      0.44913   0.5446   0.8061     C
H       0.4566   0.4385   0.6313     H
H       0.4566   0.5615   0.1313     H
C      0.45906   0.3736   0.6367     C
C      0.45906   0.6264   0.1367     C
H       0.4593   0.4276   0.7618     H
H       0.4593   0.5724   0.2618     H
C      0.46654   0.1844   0.6512     C
C      0.46654   0.8156   0.1512     C
C      0.46777   0.2194    0.934     C
C      0.46777   0.7806    0.434     C
H        0.469   0.1195    0.656     H
H        0.469   0.8805    0.156     H
C      0.46956   0.1054    0.865     C
C      0.46956   0.8946    0.365     C
H       0.4705   0.4514   0.3413     H
H       0.4705   0.5486   0.8413     H
H       0.4718   0.2761   0.9585     H
H       0.4718   0.7239   0.4585     H
H       0.4754   0.0694   0.8317     H
H       0.4754   0.9306   0.3317     H
N      0.48313   0.1889  0.88693     N
N      0.48313   0.8111  0.38693     N
C      0.48647   0.3307   0.6238     C
C      0.48647   0.6693   0.1238     C
C      0.48961   0.2358   0.6306     C
C      0.48961   0.7642   0.1306     C
H       0.4973   0.3658   0.8894     H
H       0.4973   0.6342   0.3894     H
H       0.5027   0.3658   0.6106     H
H       0.5027   0.6342   0.1106     H
C      0.51039   0.2358   0.8694     C
C      0.51039   0.7642   0.3694     C
C      0.51353   0.3307   0.8762     C
C      0.51353   0.6693   0.3762     C
N      0.51687   0.1889  0.61307     N
N      0.51687   0.8111  0.11307     N
H       0.5246   0.0694   0.6683     H
H       0.5246   0.9306   0.1683     H
H       0.5282   0.2761   0.5415     H
H       0.5282   0.7239   0.0415     H
H       0.5295   0.4514   0.1587     H
H       0.5295   0.5486   0.6587     H
C      0.53044   0.1054    0.635     C
C      0.53044   0.8946    0.135     C
H        0.531   0.1195    0.844     H
H        0.531   0.8805    0.344     H
C      0.53223   0.2194    0.566     C
C      0.53223   0.7806    0.066     C
C      0.53346   0.1844   0.8488     C
C      0.53346   0.8156   0.3488     C
H       0.5407   0.4276   0.7382     H
H       0.5407   0.5724   0.2382     H
C      0.54094   0.3736   0.8633     C
C      0.54094   0.6264   0.3633     C
H       0.5434   0.4385   0.8687     H
H       0.5434   0.5615   0.3687     H
C      0.55087   0.4554   0.1939     C
C      0.55087   0.5446   0.6939     C
N      0.55283   0.0796   0.6048     N
N      0.55283   0.9204   0.1048     N
H       0.5535   0.2075   0.0126     H
H       0.5535   0.7925   0.5126     H
C       0.5543   0.1514   0.5618     C
C       0.5543   0.8486   0.0618     C
H       0.5545   0.3694   0.0521     H
H       0.5545   0.6306   0.5521     H
C      0.55786   0.4722   0.7415     C
C      0.55786   0.5278   0.2415     C
C      0.55912   0.2267   0.0593     C
C      0.55912   0.7733   0.5593     C
C      0.55972    0.316   0.0804     C
C      0.55972    0.684   0.5804     C
C      0.56072   0.2292   0.8349     C
C      0.56072   0.7708   0.3349     C
C      0.56495   0.3239   0.8425     C
C      0.56495   0.6761   0.3425     C
O      0.56647   0.0295  0.98373     O
O      0.56647   0.9705  0.48373     O
O      0.56775   0.0389  0.24531     O
O      0.56775   0.9611  0.74531     O
N      0.56786   0.1686   0.1151     N
N      0.56786   0.8314   0.6151     N
H       0.5685   0.1533   0.5335     H
H       0.5685   0.8467   0.0335     H
N      0.56951   0.3126   0.1511     N
N      0.56951   0.6874   0.6511     N
C      0.57431   0.2237   0.1693     C
C      0.57431   0.7763   0.6693     C
C      0.57577   0.3897   0.1992     C
C      0.57577   0.6103   0.6992     C
H       0.5764   0.1941     0.82     H
H       0.5764   0.8059     0.32     H
H       0.5781   0.0115   0.3719     H
H       0.5781   0.9885   0.8719     H
H       0.5815   0.2027   0.2157     H
H       0.5815   0.7973   0.7157     H
Zn     0.58216  0.03441  0.12187    Zn
Zn     0.58216  0.96559  0.62187    Zn
H       0.5829   0.2785   0.7209     H
H       0.5829   0.7215   0.2209     H
C      0.58881    0.463   0.7932     C
C      0.58881    0.537   0.2932     C
C      0.59801   0.3758   0.8406     C
C      0.59801   0.6242   0.3406     C
C      0.59825   0.0303    0.005     C
C      0.59825   0.9697    0.505     C
C      0.59864   0.0166   0.2615     C
C      0.59864   0.9834   0.7615     C
C      0.60127   0.0071    0.885     C
C      0.60127   0.9929    0.385     C
C      0.60685    0.276   0.7431     C
C      0.60685    0.724   0.2431     C
C      0.60738   0.3965   0.2496     C
C      0.60738   0.6035   0.7496     C
H       0.6083    0.465   0.4192     H
H       0.6083    0.535   0.9192     H
C      0.61376   0.4706   0.2958     C
C      0.61376   0.5294   0.7958     C
O      0.61503   0.0141  0.21731     O
O      0.61503   0.9859  0.71731     O
O      0.61575   0.0302  0.06945     O
O      0.61575   0.9698  0.56945     O
C      0.61648   0.3976   0.9178     C
C      0.61648   0.6024   0.4178     C
H       0.6174    0.204   0.6666     H
H       0.6174    0.796   0.1666     H
C      0.61762   0.0318    0.953     C
C      0.61762   0.9682    0.453     C
C      0.61784   0.4837   0.9477     C
C      0.61784   0.5163   0.4477     C
C      0.61786   0.0087   0.8351     C
C      0.61786   0.9913   0.3351     C
C      0.62097   0.3179   0.8081     C
C      0.62097   0.6821   0.3081     C
H       0.6244   0.3515   0.2528     H
H       0.6244   0.6485   0.7528     H
C      0.62731   0.2309   0.7108     C
C      0.62731   0.7691   0.2108     C
H       0.6291   0.2639   0.9445     H
H       0.6291   0.7361   0.4445     H
C      0.63021   0.3243   0.9629     C
C      0.63021   0.6757   0.4629     C
C      0.63302   0.4974   0.0194     C
C      0.63302   0.5026   0.5194     C
H       0.6333   0.4428   0.5385     H
H       0.6333   0.5572   0.0385     H
H       0.6355   0.4761   0.3297     H
H       0.6355   0.5239   0.8297     H
C      0.64537   0.3365   0.0332     C
C      0.64537   0.6635   0.5332     C
C      0.64738   0.4242   0.0618     C
C      0.64738   0.5758   0.5618     C
C      0.65187   0.0587   0.9725     C
C      0.65187   0.9413   0.4725     C
C       0.6519   0.0363    0.855     C
C       0.6519   0.9637    0.355     C
H       0.6544   0.2851   0.0619     H
H       0.6544   0.7149   0.5619     H
H       0.6559   0.0642   0.6613     H
H       0.6559   0.9358   0.1613     H
C      0.65632   0.3144   0.8383     C
C      0.65632   0.6856   0.3383     C
H       0.6622   0.4192   0.6493     H
H       0.6622   0.5808   0.1493     H
C      0.66246   0.2254   0.7436     C
C      0.66246   0.7746   0.2436     C
H       0.6634   0.0383   0.8217     H
H       0.6634   0.9617   0.3217     H
H       0.6635   0.0754   0.0189     H
H       0.6635   0.9246   0.5189     H
N      0.66384   0.4388  0.13433     N
N      0.66384   0.5612  0.63433     N
H       0.6665   0.3448   0.8811     H
H       0.6665   0.6552   0.3811     H
C      0.66907   0.0609   0.9227     C
C      0.66907   0.9391   0.4227     C
C       0.6694   0.4782   0.6685     C
C       0.6694   0.5218   0.1685     C
C      0.67632   0.0989   0.6719     C
C      0.67632   0.9011   0.1719     C
C      0.67715   0.2675   0.8075     C
C      0.67715   0.7325   0.3075     C
H       0.6783    0.309   0.1714     H
H       0.6783    0.691   0.6714     H
C      0.67841   0.3729   0.1817     C
C      0.67841   0.6271   0.6817     C
N      0.68384   0.1788   0.7103     N
N      0.68384   0.8212   0.2103     N
C      0.68727   0.4973   0.7357     C
C      0.68727   0.5027   0.2357     C
H       0.6923   0.0791   0.9356     H
H       0.6923   0.9209   0.4356     H
N      0.69282   0.4082  0.24437     N
N      0.69282   0.5918  0.74437     N
H       0.6948   0.4526   0.7712     H
H       0.6948   0.5474   0.2712     H
H        0.701   0.2643   0.8298     H
H        0.701   0.7357   0.3298     H
C      0.70426   0.0797   0.6518     C
C      0.70426   0.9203   0.1518     C
H       0.7065   0.0283   0.6249     H
H       0.7065   0.9717   0.1249     H
C      0.71588   0.2053   0.7123     C
C      0.71588   0.7947   0.2123     C
O       0.7162   0.2152   0.3441     O
O       0.7162   0.7848   0.8441     O
O      0.72315   0.3872  0.41918     O
O      0.72315   0.6128  0.91918     O
Zn     0.72332  0.34558  0.32918    Zn
Zn     0.72332  0.65442  0.82918    Zn
H       0.7248   0.3727    0.007     H
H       0.7248   0.6273    0.507     H
O      0.72529   0.1375   0.2575     O
O      0.72529   0.8625   0.7575     O
O      0.72549   0.4629   0.8965     O
O      0.72549   0.5371   0.3965     O
C      0.72594   0.1446   0.3187     C
C      0.72594   0.8554   0.8187     C
H       0.7273   0.2583   0.7358     H
H       0.7273   0.7417   0.2358     H
C      0.72762   0.4725   0.4375     C
C      0.72762   0.5275   0.9375     C
N      0.72865   0.1477  0.67741     N
N      0.72865   0.8523  0.17741     N
C      0.73346   0.4218   0.0383     C
C      0.73346   0.5782   0.5383     C
C      0.73681   0.4904   0.5134     C
C      0.73681   0.5096   0.0134     C
H        0.738   0.0341   0.7964     H
H        0.738   0.9659   0.2964     H
H       0.7405   0.3462   0.1266     H
H       0.7405   0.6538   0.6266     H
C      0.74059   0.0663   0.3685     C
C      0.74059   0.9337   0.8685     C
C      0.74289   0.4059   0.1098     C
C      0.74289   0.5941   0.6098     C
C      0.74432   0.0229   0.8445     C
C      0.74432   0.9771   0.3445     C
H       0.7486   0.1416   0.4567     H
H       0.7486   0.8584   0.9567     H
C       0.7495   0.4185   0.5602     C
C       0.7495   0.5815   0.0602     C
C       0.7505   0.0815   0.4398     C
C       0.7505   0.9185   0.9398     C
H       0.7514   0.3584   0.5433     H
H       0.7514   0.6416   0.0433     H
C      0.75568   0.4771   0.1555     C
C      0.75568   0.5229   0.6555     C
C      0.75711   0.0941   0.8902     C
C      0.75711   0.9059   0.3902     C
C      0.75941   0.4337   0.6315     C
C      0.75941   0.5663   0.1315     C
H       0.7595   0.1538   0.8734     H
H       0.7595   0.8462   0.3734     H
H        0.762   0.4659   0.2036     H
H        0.762   0.5341   0.7036     H
C      0.76319   0.0096   0.4866     C
C      0.76319   0.9904   0.9866     C
C      0.76654   0.0782   0.9617     C
C      0.76654   0.9218   0.4617     C
N      0.77135   0.3523  0.32259     N
N      0.77135   0.6477  0.82259     N
C      0.77238   0.0275   0.5625     C
C      0.77238   0.9725   0.0625     C
H       0.7727   0.2417   0.2642     H
H       0.7727   0.7583   0.7642     H
C      0.77406   0.3554   0.6813     C
C      0.77406   0.6446   0.1813     C
O      0.77451   0.0371   0.1035     O
O      0.77451   0.9629   0.6035     O
O      0.77471   0.3625   0.7425     O
O      0.77471   0.6375   0.2425     O
H       0.7752   0.1273    0.993     H
H       0.7752   0.8727    0.493     H
Zn     0.77668  0.15442  0.67082    Zn
Zn     0.77668  0.84558  0.17082    Zn
O      0.77685   0.1128  0.58082     O
O      0.77685   0.8872  0.08082     O
O       0.7838   0.2848   0.6559     O
O       0.7838   0.7152   0.1559     O
C      0.78412   0.2947   0.2877     C
C      0.78412   0.7053   0.7877     C
H       0.7935   0.4717   0.3751     H
H       0.7935   0.5283   0.8751     H
C      0.79574   0.4203   0.3482     C
C      0.79574   0.5797   0.8482     C
H        0.799   0.2357   0.1702     H
H        0.799   0.7643   0.6702     H
H       0.8052   0.0474   0.2288     H
H       0.8052   0.9526   0.7288     H
N      0.80718   0.0918  0.75563     N
N      0.80718   0.9082  0.25563     N
H       0.8077   0.4209   0.0644     H
H       0.8077   0.5791   0.5644     H
C      0.81273   0.0027   0.2643     C
C      0.81273   0.9973   0.7643     C
N      0.81616   0.3212   0.2897     N
N      0.81616   0.6788   0.7897     N
C      0.82159   0.1271   0.8183     C
C      0.82159   0.8729   0.3183     C
H       0.8217    0.191   0.8286     H
H       0.8217    0.809   0.3286     H
C      0.82285   0.2325   0.1925     C
C      0.82285   0.7675   0.6925     C
C      0.82368   0.4011   0.3281     C
C      0.82368   0.5989   0.8281     C
C       0.8306   0.0218   0.3315     C
C       0.8306   0.9782   0.8315     C
C      0.83093   0.4391   0.0773     C
C      0.83093   0.5609   0.5773     C
H       0.8335   0.1552   0.1189     H
H       0.8335   0.8448   0.6189     H
N      0.83616   0.0612  0.86567     N
N      0.83616   0.9388  0.36567     N
H       0.8365   0.4246   0.9811     H
H       0.8365   0.5754   0.4811     H
H       0.8366   0.4617   0.1783     H
H       0.8366   0.5383   0.6783     H
C      0.83754   0.2746   0.2564     C
C      0.83754   0.7254   0.7564     C
H       0.8378   0.0808   0.3507     H
H       0.8378   0.9192   0.8507     H
C      0.84368   0.1856   0.1617     C
C      0.84368   0.8144   0.6617     C
H       0.8441   0.4358   0.3387     H
H       0.8441   0.5642   0.8387     H
H       0.8456   0.2149   0.9381     H
H       0.8456   0.7851   0.4381     H
C       0.8481   0.4637    0.145     C
C       0.8481   0.5363    0.645     C
C      0.84813   0.4413   0.0275     C
C      0.84813   0.5587   0.5275     C
C      0.85262   0.0758   0.9382     C
C      0.85262   0.9242   0.4382     C
C      0.85463   0.1635   0.9668     C
C      0.85463   0.8365   0.4668     C
H       0.8645   0.0239   0.6703     H
H       0.8645   0.9761   0.1703     H
H       0.8667   0.0572   0.4615     H
H       0.8667   0.9428   0.9615     H
C      0.86698   0.0026   0.9806     C
C      0.86698   0.9974   0.4806     C
C      0.86979   0.1757   0.0371     C
C      0.86979   0.8243   0.5371     C
H       0.8709   0.2361   0.0555     H
H       0.8709   0.7639   0.5555     H
C      0.87269   0.2691   0.2892     C
C      0.87269   0.7309   0.7892     C
H       0.8756   0.1485   0.7472     H
H       0.8756   0.8515   0.2472     H
C      0.87903   0.1821   0.1919     C
C      0.87903   0.8179   0.6919     C
C      0.88214   0.4913   0.1649     C
C      0.88214   0.5087   0.6649     C
C      0.88216   0.0163   0.0523     C
C      0.88216   0.9837   0.5523     C
C      0.88238   0.4682    0.047     C
C      0.88238   0.5318    0.547     C
H       0.8826    0.296   0.3334     H
H       0.8826    0.704   0.8334     H
C      0.88352   0.1024   0.0822     C
C      0.88352   0.8976   0.5822     C
O      0.88425   0.4698  0.93055     O
O      0.88425   0.5302  0.43055     O
O      0.88497   0.4859  0.78269     O
O      0.88497   0.5141  0.28269     O
C      0.88624   0.0294   0.7042     C
C      0.88624   0.9706   0.2042     C
H       0.8917    0.035   0.5808     H
H       0.8917    0.965   0.0808     H
C      0.89262   0.1035   0.7504     C
C      0.89262   0.8965   0.2504     C
C      0.89315    0.224   0.2569     C
C      0.89315    0.776   0.7569     C
C      0.89873   0.4929    0.115     C
C      0.89873   0.5071    0.615     C
C      0.90136   0.4834   0.7385     C
C      0.90136   0.5166   0.2385     C
C      0.90175   0.4697    0.995     C
C      0.90175   0.5303    0.495     C
C      0.90199   0.1242   0.1594     C
C      0.90199   0.8758   0.6594     C
C      0.91119    0.037   0.2068     C
C      0.91119    0.963   0.7068     C
H       0.9171   0.2215   0.2791     H
H       0.9171   0.7785   0.7791     H
Zn     0.91784  0.46559  0.87813    Zn
Zn     0.91784  0.53441  0.37813    Zn
H       0.9185   0.2973   0.7843     H
H       0.9185   0.7027   0.2843     H
H       0.9219   0.4885   0.6281     H
H       0.9219   0.5115   0.1281     H
H       0.9236   0.3059     0.18     H
H       0.9236   0.6941     0.68     H
C      0.92423   0.1103   0.8008     C
C      0.92423   0.8897   0.3008     C
C      0.92569   0.2763   0.8307     C
C      0.92569   0.7237   0.3307     C
N      0.93049   0.1874   0.8489     N
N      0.93049   0.8126   0.3489     N
H       0.9315   0.3467   0.4665     H
H       0.9315   0.6533   0.9665     H
N      0.93214   0.3314   0.8849     N
N      0.93214   0.6686   0.3849     N
O      0.93225   0.4611  0.75469     O
O      0.93225   0.5389  0.25469     O
O      0.93353   0.4705  0.01627     O
O      0.93353   0.5295  0.51627     O
C      0.93505   0.1761   0.1575     C
C      0.93505   0.8239   0.6575     C
C      0.93928   0.2708   0.1651     C
C      0.93928   0.7292   0.6651     C
C      0.94028    0.184   0.9196     C
C      0.94028    0.816   0.4196     C
C      0.94088   0.2733   0.9407     C
C      0.94088   0.7267   0.4407     C
C      0.94214   0.0278   0.2585     C
C      0.94214   0.9722   0.7585     C
H       0.9455   0.1306   0.9479     H
H       0.9455   0.8694   0.4479     H
C       0.9457   0.3486   0.4382     C
C       0.9457   0.6514   0.9382     C
H       0.9465   0.2925   0.9874     H
H       0.9465   0.7075   0.4874     H
N      0.94717   0.4204   0.3952     N
N      0.94717   0.5796   0.8952     N
C      0.94913   0.0446   0.8061     C
C      0.94913   0.9554   0.3061     C
H       0.9566   0.0615   0.1313     H
H       0.9566   0.9385   0.6313     H
C      0.95906   0.1264   0.1367     C
C      0.95906   0.8736   0.6367     C
H       0.9593   0.0724   0.2618     H
H       0.9593   0.9276   0.7618     H
C      0.96654   0.3156   0.1512     C
C      0.96654   0.6844   0.6512     C
C      0.96777   0.2806    0.434     C
C      0.96777   0.7194    0.934     C
H        0.969   0.3805    0.156     H
H        0.969   0.6195    0.656     H
C      0.96956   0.3946    0.365     C
C      0.96956   0.6054    0.865     C
H       0.9705   0.0486   0.8413     H
H       0.9705   0.9514   0.3413     H
H       0.9718   0.2239   0.4585     H
H       0.9718   0.7761   0.9585     H
H       0.9754   0.4306   0.3317     H
H       0.9754   0.5694   0.8317     H
N      0.98313   0.3111  0.38693     N
N      0.98313   0.6889  0.88693     N
C      0.98647   0.1693   0.1238     C
C      0.98647   0.8307   0.6238     C
C      0.98961   0.2642   0.1306     C
C      0.98961   0.7358   0.6306     C
H       0.9973   0.1342   0.3894     H
H       0.9973   0.8658   0.8894     H
