data_I
_chemical_name_common  '/home/zhangsd/repos/MofS-CGCNN/ML/data/WS24/clean_cifs/BUVHEH'
_cell_length_a  9.28500
_cell_length_b 10.36980
_cell_length_c 11.73500
_cell_angle_alpha 96.80900
_cell_angle_beta  93.26200
_cell_angle_gamma 111.42700
_space_group_name_H-M_alt      'P 1'


loop_
_space_group_symop_operation_xyz
  'x, y, z' 

loop_
_atom_site_label
_atom_site_fract_x
_atom_site_fract_y
_atom_site_fract_z
_atom_site_type_symbol
Ce     0.02912  0.54966  0.18168    Ce
C       0.0384   0.9246   0.0787     C
C       0.0417    0.145   0.0282     C
O        0.049   0.3674   0.9906     O
H       0.0645   0.8747   0.1318     H
C        0.077   0.2966   0.0642     C
C       0.0794   0.0677   0.1063     C
O       0.1272   0.3509   0.1667     O
H        0.133   0.1131    0.178     H
O       0.1539   0.7917   0.2991     O
O       0.2214   0.6471   0.8934     O
O       0.2596   0.6691    0.087     O
C       0.2612    0.768   0.3516     C
O         0.27   0.6497   0.3397     O
C       0.2839   0.7147   0.9925     C
H       0.3267   0.0408   0.3739     H
C       0.3864   0.8891   0.4283     C
H       0.3928    0.924   0.1641     H
C        0.396   0.0239   0.4248     C
C       0.3971    0.861   0.9962     C
C       0.4356    0.954   0.0976     C
H       0.4382   0.8473   0.8289     H
C       0.4628   0.9085   0.8981     C
H       0.4862   0.7745   0.5053     H
C       0.4913   0.8654   0.5032     C
C       0.5087   0.1346   0.4968     C
H       0.5138   0.2255   0.4947     H
C       0.5372   0.0915   0.1019     C
H       0.5618   0.1527   0.1711     H
C       0.5644    0.046   0.9024     C
C       0.6029    0.139   0.0038     C
C        0.604   0.9761   0.5752     C
H       0.6072    0.076   0.8359     H
C       0.6136   0.1109   0.5717     C
H       0.6733   0.9592   0.6261     H
C       0.7161   0.2853   0.0075     C
O         0.73   0.3503   0.6603     O
C       0.7388    0.232   0.6484     C
O       0.7404   0.3309    0.913     O
O       0.7786   0.3529   0.1066     O
O       0.8461   0.2083   0.7009     O
H        0.867   0.8869    0.822     H
O       0.8728   0.6491   0.8333     O
C       0.9206   0.9323   0.8937     C
C        0.923   0.7034   0.9358     C
H       0.9355   0.1253   0.8682     H
O        0.951   0.6326   0.0094     O
C       0.9583    0.855   0.9718     C
C       0.9616   0.0754   0.9213     C
Ce     0.97088  0.45034  0.81832    Ce
