data_I
_chemical_name_common  '/home/zhangsd/repos/MofS-CGCNN/ML/data/WS24/clean_cifs/CEHKUW'
_cell_length_a 10.35030
_cell_length_b 10.35030
_cell_length_c 52.55700
_cell_angle_alpha 90.00000
_cell_angle_beta  90.00000
_cell_angle_gamma 90.00000
_space_group_name_H-M_alt      'P 1'


loop_
_space_group_symop_operation_xyz
  'x, y, z' 

loop_
_atom_site_label
_atom_site_fract_x
_atom_site_fract_y
_atom_site_fract_z
_atom_site_type_symbol
O       0.0037   0.3595  0.26767     O
O       0.0037   0.6405  0.23233     O
C       0.0125    0.092  0.94301     C
C       0.0125    0.908  0.55699     C
C       0.0233   0.1185  0.91704     C
C       0.0233   0.8815  0.58296     C
H        0.044    0.287   0.5157     H
H        0.044    0.713   0.9843     H
C       0.0507   0.3682  0.28949     C
C       0.0507   0.6318  0.21051     C
O        0.051   0.2077  0.43983     O
O        0.051   0.7923  0.06017     O
H       0.0511   0.1271   0.0927     H
H       0.0511   0.8729   0.4073     H
O       0.0516   0.1824  0.86602     O
O       0.0516   0.8176  0.63398     O
H       0.0545   0.1173   0.2751     H
H       0.0545   0.8827   0.2249     H
Cd     0.05972  0.35845 0.226388    Cd
Cd     0.05972  0.64155 0.273612    Cd
O       0.0648   0.2149  0.18981     O
O       0.0648   0.7851  0.31019     O
C        0.067    0.212   0.5554     C
C        0.067    0.788   0.9446     C
O       0.0718   0.4714  0.30044     O
O       0.0718   0.5286  0.19956     O
C       0.0725   0.1238  0.29242     C
C       0.0725   0.8762  0.20758     C
C       0.0802   0.2449  0.30405     C
C       0.0802   0.7551  0.19595     C
C       0.0805   0.1179  0.20441     C
C       0.0805   0.8821  0.29559     C
H       0.0836   0.1408   0.5163     H
H       0.0836   0.8592   0.9837     H
O        0.085   0.4509  0.84069     O
O        0.085   0.5491  0.65931     O
O       0.0874   0.1318  0.22835     O
O       0.0874   0.8682  0.27165     O
C        0.092   0.0125  0.30699     C
C        0.092   0.9875  0.19301     C
H        0.103   0.1669    0.569     H
H        0.103   0.8331    0.931     H
C       0.1117   0.2548  0.32941     C
C       0.1117   0.7452  0.17059     C
C        0.115    0.228   0.5173     C
C        0.115    0.772   0.9827     C
H       0.1173   0.0545   0.9749     H
H       0.1173   0.9455   0.5251     H
C       0.1179   0.0805  0.04559     C
C       0.1179   0.9195  0.45441     C
C       0.1185   0.0233  0.33296     C
C       0.1185   0.9767  0.16704     C
H       0.1199   0.3359   0.3369     H
H       0.1199   0.6641   0.1631     H
C       0.1238   0.0725  0.95758     C
C       0.1238   0.9275  0.54242     C
H       0.1271   0.0511   0.1573     H
H       0.1271   0.9489   0.3427     H
O       0.1318   0.0874  0.02165     O
O       0.1318   0.9126  0.47835     O
C        0.132   0.1423  0.34429     C
C        0.132   0.8577  0.15571     C
H       0.1408   0.0836   0.7337     H
H       0.1408   0.9164   0.7663     H
C       0.1423    0.132  0.90571     C
C       0.1423    0.868  0.59429     C
Cd     0.14533  0.24293 0.828828    Cd
Cd     0.14533  0.75707 0.671172    Cd
O       0.1515   0.3418  0.78678     O
O       0.1515   0.6582  0.71322     O
C       0.1521   0.1666  0.87792     C
C       0.1521   0.8334  0.62208     C
C       0.1666   0.1521  0.37208     C
C       0.1666   0.8479  0.12792     C
H       0.1669    0.103    0.681     H
H       0.1669    0.897    0.819     H
H       0.1757   0.2428   0.5038     H
H       0.1757   0.7572   0.9962     H
N        0.176    0.247   0.5408     N
N        0.176    0.753   0.9592     N
O       0.1824   0.0516  0.38398     O
O       0.1824   0.9484  0.11602     O
O       0.1836    0.258   0.3821     O
O       0.1836    0.742   0.1179     O
H       0.1841      0.5     0.75     H
H       0.2072   0.2554   0.5772     H
H       0.2072   0.7446   0.9228     H
O       0.2077    0.051  0.81017     O
O       0.2077    0.949  0.68983     O
H       0.2108   0.3277   0.6886     H
H       0.2108   0.6723   0.8114     H
C        0.212    0.067   0.6946     C
C        0.212    0.933   0.8054     C
O       0.2149   0.0648  0.06019     O
O       0.2149   0.9352  0.43981     O
C        0.228    0.115   0.7327     C
C        0.228    0.885   0.7673     C
H       0.2428   0.1757   0.7462     H
H       0.2428   0.8243   0.7538     H
Cd     0.24293  0.14533 0.421172    Cd
Cd     0.24293  0.85467 0.078828    Cd
C       0.2449   0.0802  0.94595     C
C       0.2449   0.9198  0.55405     C
N        0.247    0.176   0.7092     N
N        0.247    0.824   0.7908     N
C       0.2548   0.1117  0.92059     C
C       0.2548   0.8883  0.57941     C
H       0.2554   0.2072   0.6728     H
H       0.2554   0.7928   0.8272     H
C        0.256    0.269   0.5619     C
C        0.256    0.731   0.9381     C
O       0.2579   0.4088   0.2385     O
O       0.2579   0.5912   0.2615     O
O        0.258   0.1836   0.8679     O
O        0.258   0.8164   0.6321     O
C        0.269    0.256   0.6881     C
C        0.269    0.744   0.8119     C
C       0.2703   0.3659  0.78987     C
C       0.2703   0.6341  0.71013     C
C        0.274      0.5     0.75     C
H       0.2867   0.3566   0.5615     H
H       0.2867   0.6434   0.9385     H
H        0.287    0.044   0.7343     H
H        0.287    0.956   0.7657     H
C        0.311      0.5     0.25     C
H       0.3277   0.2108   0.5614     H
H       0.3277   0.7892   0.9386     H
O       0.3291   0.3315  0.80928     O
O       0.3291   0.6685  0.69072     O
O       0.3315   0.3291  0.44072     O
O       0.3315   0.6709  0.05928     O
H       0.3359   0.1199   0.9131     H
H       0.3359   0.8801   0.5869     H
O       0.3418   0.1515  0.46322     O
O       0.3418   0.8485  0.03678     O
C       0.3422   0.4336  0.76885     C
C       0.3422   0.5664  0.73115     C
H       0.3566   0.2867   0.6885     H
H       0.3566   0.7133   0.8115     H
Cd     0.35845  0.05972 0.023612    Cd
Cd     0.35845  0.94028 0.476388    Cd
O       0.3595   0.0037  0.98233     O
O       0.3595   0.9963  0.51767     O
C       0.3659   0.2703  0.46013     C
C       0.3659   0.7297  0.03987     C
C       0.3682   0.0507  0.96051     C
C       0.3682   0.9493  0.53949     C
H       0.3931   0.4791   0.0316     H
H       0.3931   0.5209   0.4684     H
O       0.4088   0.2579   0.0115     O
O       0.4088   0.7421   0.4885     O
C       0.4336   0.3422  0.48115     C
C       0.4336   0.6578  0.01885     C
C       0.4356   0.4755  0.48121     C
C       0.4356   0.5245  0.01879     C
O       0.4509    0.085  0.40931     O
O       0.4509    0.915  0.09069     O
C       0.4584      0.5     0.25     C
O       0.4714   0.0718  0.94956     O
O       0.4714   0.9282  0.55044     O
C       0.4755   0.4356  0.76879     C
C       0.4755   0.5644  0.73121     C
H       0.4791   0.3931   0.2184     H
H       0.4791   0.6069   0.2816     H
H          0.5   0.1841      0.5     H
C          0.5    0.274      0.5     C
C          0.5    0.311      0.0     C
C          0.5   0.4584      0.0     C
C          0.5   0.5416      0.5     C
C          0.5    0.689      0.5     C
C          0.5    0.726      0.0     C
H          0.5   0.8159      0.0     H
H       0.5209   0.3931   0.7816     H
H       0.5209   0.6069   0.7184     H
C       0.5245   0.4356  0.23121     C
C       0.5245   0.5644  0.26879     C
O       0.5286   0.0718  0.05044     O
O       0.5286   0.9282  0.44956     O
C       0.5416      0.5     0.75     C
O       0.5491    0.085  0.59069     O
O       0.5491    0.915  0.90931     O
C       0.5644   0.4755  0.51879     C
C       0.5644   0.5245  0.98121     C
C       0.5664   0.3422  0.51885     C
C       0.5664   0.6578  0.98115     C
O       0.5912   0.2579   0.9885     O
O       0.5912   0.7421   0.5115     O
H       0.6069   0.4791   0.9684     H
H       0.6069   0.5209   0.5316     H
C       0.6318   0.0507  0.03949     C
C       0.6318   0.9493  0.46051     C
C       0.6341   0.2703  0.53987     C
C       0.6341   0.7297  0.96013     C
O       0.6405   0.0037  0.01767     O
O       0.6405   0.9963  0.48233     O
Cd     0.64155  0.05972 0.976388    Cd
Cd     0.64155  0.94028 0.523612    Cd
H       0.6434   0.2867   0.3115     H
H       0.6434   0.7133   0.1885     H
C       0.6578   0.4336  0.23115     C
C       0.6578   0.5664  0.26885     C
O       0.6582   0.1515  0.53678     O
O       0.6582   0.8485  0.96322     O
H       0.6641   0.1199   0.0869     H
H       0.6641   0.8801   0.4131     H
O       0.6685   0.3291  0.55928     O
O       0.6685   0.6709  0.94072     O
O       0.6709   0.3315  0.19072     O
O       0.6709   0.6685  0.30928     O
H       0.6723   0.2108   0.4386     H
H       0.6723   0.7892   0.0614     H
C        0.689      0.5     0.75     C
H        0.713    0.044   0.2657     H
H        0.713    0.956   0.2343     H
H       0.7133   0.3566   0.4385     H
H       0.7133   0.6434   0.0615     H
C        0.726      0.5     0.25     C
C       0.7297   0.3659  0.21013     C
C       0.7297   0.6341  0.28987     C
C        0.731    0.256   0.3119     C
C        0.731    0.744   0.1881     C
O        0.742   0.1836   0.1321     O
O        0.742   0.8164   0.3679     O
O       0.7421   0.4088   0.7615     O
O       0.7421   0.5912   0.7385     O
C        0.744    0.269   0.4381     C
C        0.744    0.731   0.0619     C
H       0.7446   0.2072   0.3272     H
H       0.7446   0.7928   0.1728     H
C       0.7452   0.1117  0.07941     C
C       0.7452   0.8883  0.42059     C
N        0.753    0.176   0.2908     N
N        0.753    0.824   0.2092     N
C       0.7551   0.0802  0.05405     C
C       0.7551   0.9198  0.44595     C
Cd     0.75707  0.14533 0.578828    Cd
Cd     0.75707  0.85467 0.921172    Cd
H       0.7572   0.1757   0.2538     H
H       0.7572   0.8243   0.2462     H
C        0.772    0.115   0.2673     C
C        0.772    0.885   0.2327     C
O       0.7851   0.0648  0.93981     O
O       0.7851   0.9352  0.56019     O
C        0.788    0.067   0.3054     C
C        0.788    0.933   0.1946     C
H       0.7892   0.3277   0.3114     H
H       0.7892   0.6723   0.1886     H
O       0.7923    0.051  0.18983     O
O       0.7923    0.949  0.31017     O
H       0.7928   0.2554   0.4228     H
H       0.7928   0.7446   0.0772     H
H       0.8159      0.5     0.25     H
O       0.8164    0.258   0.6179     O
O       0.8164    0.742   0.8821     O
O       0.8176   0.0516  0.61602     O
O       0.8176   0.9484  0.88398     O
N        0.824    0.247   0.4592     N
N        0.824    0.753   0.0408     N
H       0.8243   0.2428   0.4962     H
H       0.8243   0.7572   0.0038     H
H       0.8331    0.103    0.319     H
H       0.8331    0.897    0.181     H
C       0.8334   0.1521  0.62792     C
C       0.8334   0.8479  0.87208     C
C       0.8479   0.1666  0.12208     C
C       0.8479   0.8334  0.37792     C
O       0.8485   0.3418  0.21322     O
O       0.8485   0.6582  0.28678     O
Cd     0.85467  0.24293 0.171172    Cd
Cd     0.85467  0.75707 0.328828    Cd
C       0.8577    0.132  0.09429     C
C       0.8577    0.868  0.40571     C
H       0.8592   0.0836   0.2663     H
H       0.8592   0.9164   0.2337     H
C        0.868   0.1423  0.65571     C
C        0.868   0.8577  0.84429     C
O       0.8682   0.0874  0.97835     O
O       0.8682   0.9126  0.52165     O
H       0.8729   0.0511   0.8427     H
H       0.8729   0.9489   0.6573     H
C       0.8762   0.0725  0.04242     C
C       0.8762   0.9275  0.45758     C
H       0.8801   0.3359   0.6631     H
H       0.8801   0.6641   0.8369     H
C       0.8815   0.0233  0.66704     C
C       0.8815   0.9767  0.83296     C
C       0.8821   0.0805  0.95441     C
C       0.8821   0.9195  0.54559     C
H       0.8827   0.0545   0.0251     H
H       0.8827   0.9455   0.4749     H
C        0.885    0.228   0.4827     C
C        0.885    0.772   0.0173     C
C       0.8883   0.2548  0.67059     C
C       0.8883   0.7452  0.82941     C
H        0.897   0.1669    0.431     H
H        0.897   0.8331    0.069     H
C        0.908   0.0125  0.69301     C
C        0.908   0.9875  0.80699     C
O       0.9126   0.1318  0.77165     O
O       0.9126   0.8682  0.72835     O
O        0.915   0.4509  0.15931     O
O        0.915   0.5491  0.34069     O
H       0.9164   0.1408   0.4837     H
H       0.9164   0.8592   0.0163     H
C       0.9195   0.1179  0.79559     C
C       0.9195   0.8821  0.70441     C
C       0.9198   0.2449  0.69595     C
C       0.9198   0.7551  0.80405     C
C       0.9275   0.1238  0.70758     C
C       0.9275   0.8762  0.79242     C
O       0.9282   0.4714  0.69956     O
O       0.9282   0.5286  0.80044     O
C        0.933    0.212   0.4446     C
C        0.933    0.788   0.0554     C
O       0.9352   0.2149  0.81019     O
O       0.9352   0.7851  0.68981     O
Cd     0.94028  0.35845 0.773612    Cd
Cd     0.94028  0.64155 0.726388    Cd
H       0.9455   0.1173   0.7249     H
H       0.9455   0.8827   0.7751     H
O       0.9484   0.1824  0.13398     O
O       0.9484   0.8176  0.36602     O
H       0.9489   0.1271   0.9073     H
H       0.9489   0.8729   0.5927     H
O        0.949   0.2077  0.56017     O
O        0.949   0.7923  0.93983     O
C       0.9493   0.3682  0.71051     C
C       0.9493   0.6318  0.78949     C
H        0.956    0.287   0.4843     H
H        0.956    0.713   0.0157     H
C       0.9767   0.1185  0.08296     C
C       0.9767   0.8815  0.41704     C
C       0.9875    0.092  0.05699     C
C       0.9875    0.908  0.44301     C
O       0.9963   0.3595  0.73233     O
O       0.9963   0.6405  0.76767     O
