data_I
_chemical_name_common  '/home/zhangsd/repos/MofS-CGCNN/ML/data/WS24/clean_cifs/COMDOY'
_cell_length_a  6.73400
_cell_length_b 11.06200
_cell_length_c 11.18090
_cell_angle_alpha 119.64900
_cell_angle_beta  107.52600
_cell_angle_gamma 90.00000
_space_group_name_H-M_alt      'P 1'


loop_
_space_group_symop_operation_xyz
  'x, y, z' 

loop_
_atom_site_label
_atom_site_fract_x
_atom_site_fract_y
_atom_site_fract_z
_atom_site_type_symbol
Ga         0.0      0.5     -0.0    Ga
O       0.0102   0.3095    0.842     O
C       0.0687   0.1239   0.6374     C
C       0.1362   0.9377   0.4306     C
C       0.1442   0.2603   0.7884     C
H       0.1515   0.4878   0.3852     H
O       0.1682   0.4675    0.158     O
C       0.2056   0.0623   0.5694     C
H       0.2337   0.8974   0.3852     H
O         0.25   0.5792     -0.0     O
H         0.25    0.653     -0.0     H
H       0.2663   0.5122   0.6148     H
C       0.2944   0.4929   0.4306     C
O       0.3318   0.3095    0.842     O
H       0.3485   0.1026   0.6148     H
C       0.3558   0.4719   0.2116     C
C       0.3638   0.5071   0.5694     C
C       0.4313   0.4865   0.3626     C
O       0.4898   0.4675    0.158     O
Ga         0.5      0.5     -0.0    Ga
O       0.5102   0.5325    0.842     O
C       0.5687   0.5135   0.6374     C
C       0.6362   0.4929   0.4306     C
C       0.6442   0.5281   0.7884     C
H       0.6515   0.8974   0.3852     H
O       0.6682   0.6905    0.158     O
C       0.7056   0.5071   0.5694     C
H       0.7337   0.4878   0.3852     H
H         0.75    0.347     -0.0     H
O         0.75   0.4208     -0.0     O
H       0.7663   0.1026   0.6148     H
C       0.7944   0.9377   0.4306     C
O       0.8318   0.5325    0.842     O
H       0.8485   0.5122   0.6148     H
C       0.8558   0.7397   0.2116     C
C       0.8638   0.0623   0.5694     C
C       0.9313   0.8761   0.3626     C
O       0.9898   0.6905    0.158     O
