data_I
_chemical_name_common  '/home/zhangsd/repos/MofS-CGCNN/ML/data/WS24/clean_cifs/COWXOC'
_cell_length_a 15.86350
_cell_length_b 15.86350
_cell_length_c 20.06000
_cell_angle_alpha 84.22630
_cell_angle_beta  84.22630
_cell_angle_gamma 71.39960
_space_group_name_H-M_alt      'P 1'


loop_
_space_group_symop_operation_xyz
  'x, y, z' 

loop_
_atom_site_label
_atom_site_fract_x
_atom_site_fract_y
_atom_site_fract_z
_atom_site_type_symbol
C      0.00139  0.18899   0.3848     C
C      0.00204  0.22424    0.081     C
C      0.00485  0.79485   0.9906     C
O      0.00632  0.79806  0.12517     O
C      0.00877  0.53237   0.3039     C
H       0.0099   0.4145   0.1117     H
H       0.0128   0.6598   0.2761     H
C      0.01371  0.62111   0.9126     C
H       0.0151   0.6619   0.0408     H
H        0.021    0.767   0.7689     H
H       0.0254   0.3652   0.3781     H
N      0.02642  0.19976  0.31775     N
C      0.02783  0.27803  0.96152     C
C      0.03083  0.41883  0.39405     C
H       0.0312   0.5904   0.9552     H
H       0.0316    0.601   0.2147     H
H       0.0325   0.3897   0.6143     H
H       0.0329   0.1453   0.0004     H
H       0.0334   0.1698   0.1065     H
C      0.03381  0.51061   0.7454     C
C      0.03688  0.77408  0.72331     C
C      0.04296  0.60156   0.2607     C
H       0.0448   0.1714   0.4157     H
C      0.05032  0.23412   0.8965     C
C      0.05487  0.29307  0.07647     C
C      0.05671  0.42631   0.6386     C
H       0.0569   0.7513    0.897     H
C      0.06136  0.51516   0.5922     C
H       0.0614   0.4024   0.4352     H
H       0.0646   0.6312   0.8871     H
H       0.0658   0.7896   0.9979     H
H       0.0727   0.5035    0.545     H
C      0.08677  0.79637  0.59273     C
C      0.08784  0.46344  0.33805     C
H       0.0966   0.5744   0.3773     H
C      0.09865  0.26345   0.0083     C
H       0.1017   0.8073   0.5474     H
H       0.1059   0.5875   0.2642     H
H       0.1075   0.5369   0.6053     H
H       0.1139   0.3861   0.9804     H
O      0.11624   0.2172   0.1692     O
C      0.11795  0.28095   0.1297     C
O      0.11925  0.23947  0.86299     O
C      0.12901  0.75561  0.70272     C
C      0.13517  0.51457   0.3724     C
H       0.1366    0.177   0.4835     H
H        0.145   0.1646   0.5613     H
H       0.1453   0.0329   0.5004     H
C      0.14977  0.37337   0.6595     C
C      0.15035  0.39755   0.2967     C
H       0.1504   0.4856   0.4159     H
C      0.15173  0.32533   0.9799     C
C      0.15231  0.76591  0.63625     C
O      0.15855  0.31431  0.70739     O
O      0.16115  0.31919  0.29859     O
H       0.1646    0.145   0.0613     H
O      0.16541  0.33307  0.13119     O
H       0.1698   0.0334   0.6065     H
H       0.1714   0.0448   0.9157     H
H        0.172    0.737   0.7339     H
Cd     0.17242  0.17648  0.26882    Cd
H       0.1738   0.3122   0.9346     H
C       0.1744    0.175   0.5185     C
C        0.175   0.1744   0.0185     C
Cd     0.17648  0.17242  0.76882    Cd
H        0.177   0.1366   0.9835     H
H       0.1863   0.2309   0.5171     H
H       0.1885   0.5159   0.3457     H
C      0.18899  0.00139   0.8848     C
H       0.1927   0.8983   0.9526     H
H       0.1928   0.6366   0.0657     H
O      0.19794  0.43278   0.2534     O
N      0.19976  0.02642  0.81775     N
H       0.2009   0.3169   0.0068     H
H       0.2016   0.5254   0.1493     H
O      0.20194  0.99368  0.37483     O
C      0.20363  0.91323  0.90727     C
C      0.20515  0.99515   0.5094     C
H       0.2104   0.9342   0.5021     H
O      0.21334   0.3852  0.62537     O
O       0.2172  0.11624   0.6692     O
C      0.22424  0.00204    0.581     C
C      0.22592  0.96312  0.77669     C
H       0.2309   0.1863   0.0171     H
C      0.23283  0.57983  0.06045     C
H        0.233    0.979   0.7311     H
C      0.23409  0.84769  0.86375     C
C      0.23412  0.05032   0.3965     C
O      0.23947  0.11925  0.36299     O
C      0.24117  0.51397   0.1113     C
C      0.24439  0.87099  0.79728     C
H       0.2459   0.4507   0.9083     H
C       0.2486   0.7484   0.6173     C
H       0.2487   0.9431    0.603     H
C       0.2516   0.7514   0.8827     C
H       0.2522   0.7368   0.9852     H
N      0.25799  0.71109  0.94848     N
N      0.26068  0.69316  0.83918     N
H        0.263    0.828   0.7661     H
H       0.2632   0.7478   0.5148     H
C      0.26345  0.09865   0.5083     C
C      0.26638  0.45718   0.8636     C
H       0.2743   0.3371   0.8409     H
C        0.275    0.624   0.9417     C
C      0.27752  0.61372  0.87299     C
C      0.27803  0.02783  0.46152     C
Cd     0.27915  0.32163  0.18836    Cd
C      0.28008  0.39108   0.8217     C
C      0.28095  0.11795   0.6297     C
C      0.28472  0.53832   0.8362     C
C      0.28627  0.55967  0.99988     C
N      0.28891  0.74201  0.55152     N
C      0.29307  0.05487  0.57647     C
N       0.3008  0.39624  0.75667     N
N      0.30418  0.43292  0.10918     N
N      0.30684  0.73932  0.66082     N
C      0.30689  0.54329   0.7695     C
H       0.3122   0.1738   0.4346     H
H       0.3125   0.5965   0.7486     H
O      0.31431  0.15855  0.20739     O
H       0.3169   0.2009   0.5068     H
O      0.31919  0.16115  0.79859     O
Cd     0.32163  0.27915  0.68836    Cd
C      0.32232  0.46792   0.7297     C
C      0.32533  0.15173   0.4799     C
O      0.33307  0.16541  0.63119     O
H       0.3371   0.2743   0.3409     H
H       0.3381   0.9849   0.4592     H
H       0.3402   0.9872   0.2239     H
H       0.3471   0.4693   0.6857     H
C      0.35203  0.47503   0.0002     C
C      0.35419  0.41399   0.0529     C
H       0.3563   0.3927   0.5491     H
H       0.3634   0.8072   0.4343     H
H       0.3652   0.0254   0.8781     H
H       0.3688   0.9354   0.6129     H
C      0.37337  0.14977   0.1595     C
C        0.376    0.725   0.5583     C
C      0.37889  0.98629   0.5874     C
O       0.3852  0.21334  0.12537     O
H       0.3861   0.1139   0.4804     H
C      0.38628  0.72248  0.62701     C
H       0.3897   0.0325   0.1143     H
C      0.39108  0.28008   0.3217     C
H       0.3927   0.3563   0.0491     H
H       0.3942   0.4612    0.964     H
N      0.39624   0.3008  0.25667     N
C      0.39755  0.15035   0.7967     C
C      0.39844  0.95704   0.2393     C
H        0.399   0.9684   0.2853     H
H       0.4024   0.0614   0.9352     H
H       0.4035   0.6875   0.7514     H
H       0.4096   0.9688   0.5448     H
H       0.4125   0.8941   0.2358     H
C      0.41399  0.35419   0.5529     C
H       0.4145   0.0099   0.6117     H
C      0.41883  0.03083  0.89405     C
C      0.42017  0.76717  0.43955     C
H       0.4256   0.9034   0.1227     H
C      0.42631  0.05671   0.1386     C
O      0.43278  0.19794   0.7534     O
N      0.43292  0.30418  0.60918     N
C      0.44033  0.71373  0.50012     C
H       0.4507   0.2459   0.4083     H
C      0.45671  0.69311   0.7305     C
C      0.45718  0.26638   0.3636     C
H       0.4612   0.3942    0.464     H
C      0.46168  0.71528   0.6638     C
H       0.4631   0.8925   0.8947     H
C      0.46344  0.08784  0.83805     C
C      0.46763  0.99123   0.1961     C
C      0.46792  0.32232   0.2297     C
H       0.4693   0.3471   0.1857     H
H       0.4746   0.7984   0.3507     H
C      0.47503  0.35203   0.5002     C
H       0.4841   0.8115   0.1543     H
C      0.48484  0.93864   0.9078     C
C      0.48543  0.86483   0.1276     C
H       0.4856   0.1504   0.9159     H
C      0.48603  0.75883   0.3887     C
C      0.48939  0.96619   0.7546     C
H       0.4965   0.9273    0.955     H
H       0.5035   0.0727    0.045     H
C      0.51061  0.03381   0.2454     C
C      0.51397  0.24117   0.6113     C
H       0.5144   0.8496   0.0841     H
C      0.51457  0.13517   0.8724     C
C      0.51516  0.06136   0.0922     C
H       0.5159   0.1885   0.8457     H
C      0.52497  0.64797   0.4998     C
H       0.5254   0.2016   0.6493     H
H       0.5307   0.6529   0.8143     H
C      0.53208  0.67768   0.7703     C
C      0.53237  0.00877   0.8039     C
C      0.53656  0.91216  0.16195     C
H       0.5369   0.1075   0.1053     H
C      0.53832  0.28472   0.3362     C
H       0.5388   0.6058    0.536     H
C      0.54282  0.73362   0.6364     C
C      0.54329  0.30689   0.2695     C
H       0.5493   0.7541   0.5917     H
C      0.55967  0.28627  0.49988     C
N      0.56708  0.69582  0.39082     N
O      0.56722  0.80206   0.2466     O
C      0.57369  0.94329   0.8614     C
H       0.5744   0.0966   0.8773     H
C      0.57983  0.23283  0.56045     C
C      0.58117  0.96917  0.10595     C
H       0.5855   0.9901   0.3883     H
C      0.58601  0.64581   0.4471     C
H       0.5875   0.1059   0.7642     H
H       0.5904   0.0312   0.4552     H
H       0.5965   0.3125   0.2486     H
H       0.5976   0.9386   0.0648     H
H        0.601   0.0316   0.7147     H
C      0.60156  0.04296   0.7607     C
C      0.60245  0.84965   0.2033     C
N      0.60376   0.6992  0.74333     N
H       0.6058   0.5388    0.036     H
H       0.6073   0.6437   0.9509     H
C      0.60892  0.71992   0.6783     C
H       0.6103   0.9675   0.8857     H
C      0.61372  0.27752  0.37299     C
H       0.6139   0.8861   0.5196     H
O       0.6148  0.78666  0.87463     O
C      0.62111  0.01371   0.4126     C
C        0.624    0.275   0.4417     C
C      0.62663  0.85023   0.8405     C
H       0.6312   0.0646   0.3871     H
H       0.6348   0.9746   0.1219     H
H       0.6366   0.1928   0.5657     H
H       0.6437   0.6073   0.4509     H
C      0.64581  0.58601   0.9471     C
C      0.64797  0.52497   0.9998     C
H       0.6529   0.5307   0.3143     H
H       0.6598   0.0128   0.7761     H
H       0.6619   0.0151   0.5408     H
H       0.6629   0.7257   0.6591     H
O      0.66693  0.83459  0.36881     O
C      0.67467  0.84827   0.5201     C
C      0.67768  0.53208   0.2703     C
Cd     0.67837  0.72085  0.31164    Cd
O      0.68081  0.83885  0.20141     O
H       0.6831   0.7991   0.4932     H
O      0.68569  0.84145  0.79261     O
H       0.6875   0.4035   0.2514     H
H       0.6878   0.8262   0.5654     H
C      0.69311  0.45671   0.2305     C
N      0.69316  0.26068  0.33918     N
N      0.69582  0.56708  0.89082     N
N       0.6992  0.60376  0.24333     N
C      0.70693  0.94513  0.42353     C
N      0.71109  0.25799  0.44848     N
C      0.71373  0.44033  0.00012     C
C      0.71528  0.46168   0.1638     C
C      0.71905  0.88205   0.3703     C
C      0.71992  0.60892   0.1783     C
Cd     0.72085  0.67837  0.81164    Cd
C      0.72197  0.97217  0.53848     C
C      0.72248  0.38628  0.12701     C
C        0.725    0.376   0.0583     C
H       0.7257   0.6629   0.1591     H
C      0.73362  0.54282   0.1364     C
C      0.73655  0.90135   0.4917     C
H       0.7368   0.2522   0.4852     H
H        0.737    0.172   0.2339     H
N      0.73932  0.30684  0.16082     N
N      0.74201  0.28891  0.05152     N
H       0.7478   0.2632   0.0148     H
C       0.7484   0.2486   0.1173     C
H       0.7513   0.0569    0.397     H
C       0.7514   0.2516   0.3827     C
H       0.7541   0.5493   0.0917     H
C      0.75561  0.12901  0.20272     C
C      0.75883  0.48603   0.8887     C
O      0.76053  0.88075  0.63701     O
C      0.76588  0.94968   0.6035     C
C      0.76591  0.15231  0.13625     C
H        0.767    0.021   0.2689     H
C      0.76717  0.42017  0.93955     C
H       0.7691   0.8137   0.9829     H
C      0.77408  0.03688  0.22331     C
C      0.77576  0.99796    0.419     C
O       0.7828  0.88376   0.3308     O
O      0.78666   0.6148  0.37463     O
H       0.7896   0.0658   0.4979     H
C      0.79485  0.00485   0.4906     C
C      0.79637  0.08677  0.09273     C
O      0.79806  0.00632  0.62517     O
H       0.7984   0.4746   0.8507     H
H       0.7991   0.6831   0.9932     H
N      0.80024  0.97358  0.18225     N
O      0.80206  0.56722   0.7466     O
H       0.8072   0.3634   0.9343     H
H       0.8073   0.1017   0.0474     H
C      0.81101  0.99861   0.1152     C
H       0.8115   0.4841   0.6543     H
H       0.8137   0.7691   0.4829     H
H        0.823   0.8634   0.0165     H
Cd     0.82352  0.82758  0.23118    Cd
C        0.825   0.8256   0.9815     C
C       0.8256    0.825   0.4815     C
H       0.8262   0.6878   0.0654     H
Cd     0.82758  0.82352  0.73118    Cd
H        0.828    0.263   0.2661     H
H       0.8286   0.9552   0.0843     H
H       0.8302   0.9666   0.3935     H
O      0.83459  0.66693  0.86881     O
H       0.8354    0.855   0.9387     H
O      0.83885  0.68081  0.70141     O
O      0.84145  0.68569  0.29261     O
C      0.84769  0.23409  0.36375     C
C      0.84827  0.67467   0.0201     C
H       0.8496   0.5144   0.5841     H
C      0.84965  0.60245   0.7033     C
C      0.85023  0.62663   0.3405     C
H       0.8547   0.9671   0.4996     H
H        0.855   0.8354   0.4387     H
H       0.8634    0.823   0.5165     H
C      0.86483  0.48543   0.6276     C
C      0.87099  0.24439  0.29728     C
O      0.88075  0.76053  0.13701     O
C      0.88205  0.71905   0.8703     C
O      0.88376   0.7828   0.8308     O
H       0.8861   0.6139   0.0196     H
H       0.8925   0.4631   0.3947     H
H       0.8941   0.4125   0.7358     H
H       0.8983   0.1927   0.4526     H
C      0.90135  0.73655   0.9917     C
H       0.9034   0.4256   0.6227     H
C      0.91216  0.53656  0.66195     C
C      0.91323  0.20363  0.40727     C
H       0.9273   0.4965    0.455     H
H       0.9342   0.2104   0.0021     H
H       0.9354   0.3688   0.1129     H
H       0.9386   0.5976   0.5648     H
C      0.93864  0.48484   0.4078     C
H       0.9431   0.2487    0.103     H
C      0.94329  0.57369   0.3614     C
C      0.94513  0.70693  0.92353     C
C      0.94968  0.76588   0.1035     C
H       0.9552   0.8286   0.5843     H
C      0.95704  0.39844   0.7393     C
C      0.96312  0.22592  0.27669     C
C      0.96619  0.48939   0.2546     C
H       0.9666   0.8302   0.8935     H
H       0.9671   0.8547   0.9996     H
H       0.9675   0.6103   0.3857     H
H       0.9684    0.399   0.7853     H
H       0.9688   0.4096   0.0448     H
C      0.96917  0.58117  0.60595     C
C      0.97217  0.72197  0.03848     C
N      0.97358  0.80024  0.68225     N
H       0.9746   0.6348   0.6219     H
H        0.979    0.233   0.2311     H
H       0.9849   0.3381   0.9592     H
C      0.98629  0.37889   0.0874     C
H       0.9872   0.3402   0.7239     H
H       0.9901   0.5855   0.8883     H
C      0.99123  0.46763   0.6961     C
O      0.99368  0.20194  0.87483     O
C      0.99515  0.20515   0.0094     C
C      0.99796  0.77576    0.919     C
C      0.99861  0.81101   0.6152     C
