data_I
_chemical_name_common  '/home/zhangsd/repos/MofS-CGCNN/ML/data/WS24/clean_cifs/COYCID'
_cell_length_a 17.10420
_cell_length_b 18.30520
_cell_length_c 20.23600
_cell_angle_alpha 75.30500
_cell_angle_beta  86.88200
_cell_angle_gamma 67.40900
_space_group_name_H-M_alt      'P 1'


loop_
_space_group_symop_operation_xyz
  'x, y, z' 

loop_
_atom_site_label
_atom_site_fract_x
_atom_site_fract_y
_atom_site_fract_z
_atom_site_type_symbol
C        0.004   0.0198   0.5314     C
C        0.004   0.8668    0.436     C
Cu     0.01278  0.30128  0.77457    Cu
C        0.023   0.8966    0.487     C
H       0.0246   0.5698    0.151     H
H       0.0293   0.8091    0.443     H
H        0.032   0.1505   0.8901     H
Mo     0.03572  0.31375  0.64154    Mo
S       0.0372   0.7556    0.292     S
N       0.0423   0.0951   0.6167     N
C       0.0435   0.9773   0.5942     C
H       0.0508   0.8632   0.5299     H
H       0.0583   0.9199   0.6049     H
C        0.065   0.0073    0.646     C
H       0.0732   0.0091   0.7874     H
C       0.0738   0.5823   0.1432     C
S       0.0778   0.3774   0.7072     S
Cu      0.0786  0.15204  0.67788    Cu
N       0.0813    0.638   0.1719     N
C       0.0865    0.152   0.8933     C
H       0.0895   0.9766   0.6899     H
N       0.1007   0.2146   0.8494     N
S       0.1181   0.8876   0.0991     S
H        0.126   0.5043   0.0831     H
C       0.1287    0.006   0.7957     C
H         0.13   0.0473   0.9697     H
C       0.1345   0.5427   0.1029     C
H       0.1352   0.4081   0.5343     H
C       0.1435   0.0906   0.9418     C
C       0.1514   0.6533   0.1601     C
S        0.153   0.2195   0.6112     S
N       0.1546     0.06   0.7609     N
H       0.1574   0.6937   0.1786     H
H       0.1624   0.9057   0.8771     H
H        0.163   0.4974   0.4469     H
C       0.1774   0.2168   0.8569     C
H       0.1836    0.606   0.3884     H
C       0.1837   0.9417   0.8466     C
C        0.188    0.414   0.5366     C
H       0.1898   0.2602   0.8277     H
H       0.1917   0.5228    0.974     H
Cu     0.19708  0.29156   0.6686    Cu
C       0.2042    0.465   0.4833     C
C        0.206    0.817   0.1438     C
C       0.2072   0.5583   0.0913     C
H       0.2113   0.0131   0.0745     H
C       0.2156   0.6137   0.1226     C
H       0.2237   0.6857   0.3022     H
C       0.2245    0.095   0.9484     C
C       0.2345   0.0545   0.7664     C
N        0.237   0.3712    0.592     N
C       0.2396   0.1585   0.9055     C
C       0.2421   0.5932   0.3805     C
H       0.2441    0.853   0.9829     H
C       0.2497   0.5015   0.9889     C
H       0.2508   0.0956   0.7377     H
N       0.2633   0.7706   0.1742     N
H       0.2659   0.6245   0.1182     H
C       0.2665   0.9298   0.8532     C
C       0.2669   0.6374   0.3277     C
C       0.2691   0.9957   0.0633     C
C       0.2727    0.515     0.05     C
C       0.2819   0.4707   0.4823     C
C       0.2901   0.0308   0.0008     C
C       0.2922   0.9923   0.8113     C
H       0.2923   0.4533   0.9103     H
H       0.2927   0.1629   0.9087     H
N       0.3008   0.2234   0.7264     N
C       0.3019   0.8333   0.9717     C
C        0.303   0.5286   0.4231     C
C       0.3075   0.3793   0.5904     C
C       0.3096   0.4586   0.9521     C
H       0.3107   0.9175   0.1534     H
C       0.3236   0.8677   0.9053     C
C       0.3279   0.9371   0.1093     C
C       0.3362   0.4244   0.5432     C
H       0.3397   0.7576   0.0623     H
N       0.3443   0.6225   0.3065     N
H       0.3448   0.3478   0.6294     H
H       0.3483   0.9897   0.8154     H
C       0.3575   0.7759   0.0181     C
C       0.3601   0.1683   0.7586     C
C        0.361   0.4823   0.0666     C
C       0.3727    0.001   0.9849     C
Cu     0.37374  0.69543  0.21973    Cu
H       0.3814     0.49    0.106     H
C       0.3873    0.508    0.407     C
H         0.39   0.0242   0.9421     H
H         0.39   0.4268   0.5485     H
N       0.3936   0.4224   0.9715     N
S       0.4012   0.2823   0.8778     S
C        0.402   0.5632     0.35     C
C       0.4118   0.8311   0.8939     C
N       0.4126   0.9041   0.0953     N
C       0.4142   0.4413   0.0274     C
H       0.4317    0.461   0.4322     H
C       0.4327   0.9352   0.0325     C
H       0.4329   0.8484   0.8509     H
S       0.4412   0.0979   0.8028     S
N       0.4412   0.7418   0.0037     N
S       0.4524   0.7522   0.2591     S
Mo     0.45771  0.34444  0.78839    Mo
H       0.4594    0.557   0.3432     H
S       0.4648   0.5995    0.169     S
C       0.4649   0.7722   0.9437     C
H       0.4729   0.4231   0.0391     H
Cu       0.474  0.34405  0.91875    Cu
H       0.4765   0.2488    0.065     H
H       0.4894   0.9122   0.0193     H
Cu      0.4986  0.18258  0.83481    Cu
Cu      0.5014  0.81742  0.16519    Cu
H       0.5106   0.0878   0.9807     H
H       0.5235   0.7512    0.935     H
Cu       0.526  0.65595  0.08125    Cu
H       0.5271   0.5769   0.9609     H
C       0.5351   0.2278   0.0563     C
S       0.5352   0.4005    0.831     S
H       0.5406    0.443   0.6568     H
Mo     0.54229  0.65556  0.21161    Mo
S       0.5476   0.2478   0.7409     S
N       0.5588   0.2582   0.9963     N
S       0.5588   0.9021   0.1972     S
H       0.5671   0.1516   0.1491     H
C       0.5673   0.0648   0.9675     C
H       0.5683    0.539   0.5678     H
C       0.5858   0.5587   0.9726     C
N       0.5874   0.0959   0.9047     N
C       0.5882   0.1689   0.1061     C
C        0.598   0.4368     0.65     C
S       0.5988   0.7177   0.1222     S
N       0.6064   0.5776   0.0285     N
H         0.61   0.5732   0.4515     H
H         0.61   0.9758   0.0579     H
C       0.6127    0.492    0.593     C
H       0.6186     0.51    0.894     H
Cu     0.62626  0.30457  0.78027    Cu
C       0.6273    0.999   0.0151     C
C        0.639   0.5177   0.9334     C
C       0.6399   0.8317   0.2414     C
C       0.6425   0.2241   0.9819     C
H       0.6517   0.0103   0.1846     H
H       0.6552   0.6522   0.3706     H
N       0.6557   0.3775   0.6935     N
H       0.6603   0.2424   0.9377     H
C       0.6638   0.5756   0.4568     C
C       0.6721   0.0629   0.8907     C
C       0.6764   0.1323   0.0947     C
H       0.6893   0.0825   0.8466     H
C       0.6904   0.5414   0.0479     C
C       0.6925   0.6207   0.4096     C
C        0.697   0.4714   0.5769     C
C       0.6981   0.1667   0.0283     C
N       0.6992   0.7766   0.2736     N
H       0.7073   0.8371   0.0913     H
H       0.7077   0.5467   0.0897     H
C       0.7078   0.0077   0.1887     C
C       0.7099   0.9692   0.9992     C
C       0.7181   0.5293   0.5177     C
C       0.7273    0.485     0.95     C
C       0.7309   0.0043   0.9367     C
C       0.7331   0.3626   0.6723     C
C       0.7335   0.0702   0.1468     C
H       0.7341   0.3755   0.8818     H
N       0.7367   0.2294   0.8258     N
H       0.7492   0.9044   0.2623     H
C       0.7503   0.4985   0.0111     C
H       0.7559    0.147   0.0171     H
C       0.7579   0.4068   0.6195     C
C       0.7604   0.8415   0.0945     C
N        0.763   0.6288    0.408     N
C       0.7655   0.9455   0.2336     C
C       0.7755    0.905   0.0516     C
H       0.7763   0.3143   0.6978     H
C       0.7844   0.3863   0.8774     C
H       0.7887   0.9869   0.9255     H
C       0.7928   0.4417   0.9087     C
C        0.794    0.183   0.8562     C
C       0.7958    0.535   0.5167     C
Cu     0.80292  0.70844   0.3314    Cu
H       0.8083   0.4772    0.026     H
H       0.8102   0.7398   0.1723     H
C        0.812    0.586   0.4634     C
C       0.8163   0.0583   0.1534     C
H       0.8164    0.394   0.6116     H
C       0.8226   0.7832   0.1431     C
H        0.837   0.5026   0.5531     H
H       0.8376   0.0943   0.1229     H
H       0.8426   0.3063   0.8214     H
N       0.8454     0.94   0.2391     N
S        0.847   0.7805   0.3888     S
C       0.8486   0.3467   0.8399     C
C       0.8565   0.9094   0.0582     C
H       0.8648   0.5919   0.4657     H
C       0.8655   0.4573   0.8971     C
H         0.87   0.9527   0.0303     H
C       0.8713    0.994   0.2043     C
H        0.874   0.4957   0.9169     H
S       0.8819   0.1124   0.9009     S
N       0.8993   0.7854   0.1506     N
H       0.9105   0.0234   0.3101     H
C       0.9135    0.848   0.1067     C
N       0.9187    0.362   0.8281     N
Cu      0.9214  0.84796  0.32212    Cu
S       0.9222   0.6226   0.2928     S
C       0.9262   0.4177   0.8568     C
H       0.9268   0.9909   0.2126     H
C        0.935   0.9927    0.354     C
H       0.9417   0.0801   0.3951     H
H       0.9492   0.1368   0.4701     H
C       0.9565   0.0227   0.4058     C
N       0.9577   0.9049   0.3833     N
S       0.9628   0.2444    0.708     S
Mo     0.96428  0.68625  0.35846    Mo
H        0.968   0.8495   0.1099     H
H       0.9707   0.1909    0.557     H
H       0.9754   0.4302    0.849     H
C        0.977   0.1034    0.513     C
Cu     0.98722  0.69872  0.22543    Cu
C        0.996   0.1332    0.564     C
C        0.996   0.9802   0.4686     C
