data_I
_chemical_name_common  '/home/zhangsd/repos/MofS-CGCNN/ML/data/WS24/clean_cifs/DAFYOB'
_cell_length_a 16.21220
_cell_length_b 16.21220
_cell_length_c 16.06420
_cell_angle_alpha 90.00000
_cell_angle_beta  90.00000
_cell_angle_gamma 120.00000
_space_group_name_H-M_alt      'P 1'


loop_
_space_group_symop_operation_xyz
  'x, y, z' 

loop_
_atom_site_label
_atom_site_fract_x
_atom_site_fract_y
_atom_site_fract_z
_atom_site_type_symbol
C      0.03364  0.44307  0.03188     C
C      0.03364  0.44307  0.46812     C
C      0.03364  0.59057  0.03188     C
C      0.03364  0.59057  0.46812     C
O       0.0633   0.3834   0.0583     O
O       0.0633   0.3834   0.4417     O
O       0.0633   0.6799   0.0583     O
O       0.0633   0.6799   0.4417     O
C       0.0688   0.5344  0.06374     C
C       0.0688   0.5344  0.43626     C
H       0.1068   0.4131   0.0964     H
H       0.1068   0.4131   0.4036     H
H       0.1068   0.6937   0.0964     H
H       0.1068   0.6937   0.4036     H
C        0.142    0.571  0.13133     C
C        0.142    0.571  0.36867     C
O      0.16931   0.5159  0.15827     O
O      0.16931   0.5159  0.34173     O
O      0.16931  0.65341  0.15827     O
O      0.16931  0.65341  0.34173     O
Mg     0.26181  0.52362     0.25    Mg
Mg     0.26181  0.73819     0.25    Mg
H       0.3063   0.4131   0.0964     H
H       0.3063   0.4131   0.4036     H
H       0.3063   0.8932   0.0964     H
H       0.3063   0.8932   0.4036     H
O       0.3201   0.3834   0.0583     O
O       0.3201   0.3834   0.4417     O
O       0.3201   0.9367   0.0583     O
O       0.3201   0.9367   0.4417     O
O      0.33333  0.66667     0.25     O
O      0.34659   0.5159  0.15827     O
O      0.34659   0.5159  0.34173     O
O      0.34659  0.83069  0.15827     O
O      0.34659  0.83069  0.34173     O
O       0.3834   0.0633   0.5583     O
O       0.3834   0.0633   0.9417     O
O       0.3834   0.3201   0.5583     O
O       0.3834   0.3201   0.9417     O
C      0.40943  0.44307  0.03188     C
C      0.40943  0.44307  0.46812     C
C      0.40943  0.96636  0.03188     C
C      0.40943  0.96636  0.46812     C
H       0.4131   0.1068   0.5964     H
H       0.4131   0.1068   0.9036     H
H       0.4131   0.3063   0.5964     H
H       0.4131   0.3063   0.9036     H
C        0.429    0.571  0.13133     C
C        0.429    0.571  0.36867     C
C        0.429    0.858  0.13133     C
C        0.429    0.858  0.36867     C
C      0.44307  0.03364  0.53188     C
C      0.44307  0.03364  0.96812     C
C      0.44307  0.40943  0.53188     C
C      0.44307  0.40943  0.96812     C
C       0.4656   0.5344  0.06374     C
C       0.4656   0.5344  0.43626     C
C       0.4656   0.9312  0.06374     C
C       0.4656   0.9312  0.43626     C
Mg     0.47638  0.73819     0.25    Mg
O       0.4841  0.65341  0.15827     O
O       0.4841  0.65341  0.34173     O
O       0.4841  0.83069  0.15827     O
O       0.4841  0.83069  0.34173     O
O       0.5159  0.16931  0.65827     O
O       0.5159  0.16931  0.84173     O
O       0.5159  0.34659  0.65827     O
O       0.5159  0.34659  0.84173     O
Mg     0.52362  0.26181     0.75    Mg
C       0.5344   0.0688  0.56374     C
C       0.5344   0.0688  0.93626     C
C       0.5344   0.4656  0.56374     C
C       0.5344   0.4656  0.93626     C
C      0.55693  0.59057  0.03188     C
C      0.55693  0.59057  0.46812     C
C      0.55693  0.96636  0.03188     C
C      0.55693  0.96636  0.46812     C
C        0.571    0.142  0.63133     C
C        0.571    0.142  0.86867     C
C        0.571    0.429  0.63133     C
C        0.571    0.429  0.86867     C
H       0.5869   0.6937   0.0964     H
H       0.5869   0.6937   0.4036     H
H       0.5869   0.8932   0.0964     H
H       0.5869   0.8932   0.4036     H
C      0.59057  0.03364  0.53188     C
C      0.59057  0.03364  0.96812     C
C      0.59057  0.55693  0.53188     C
C      0.59057  0.55693  0.96812     C
O       0.6166   0.6799   0.0583     O
O       0.6166   0.6799   0.4417     O
O       0.6166   0.9367   0.0583     O
O       0.6166   0.9367   0.4417     O
O      0.65341  0.16931  0.65827     O
O      0.65341  0.16931  0.84173     O
O      0.65341   0.4841  0.65827     O
O      0.65341   0.4841  0.84173     O
O      0.66667  0.33333     0.75     O
O       0.6799   0.0633   0.5583     O
O       0.6799   0.0633   0.9417     O
O       0.6799   0.6166   0.5583     O
O       0.6799   0.6166   0.9417     O
H       0.6937   0.1068   0.5964     H
H       0.6937   0.1068   0.9036     H
H       0.6937   0.5869   0.5964     H
H       0.6937   0.5869   0.9036     H
Mg     0.73819  0.26181     0.75    Mg
Mg     0.73819  0.47638     0.75    Mg
O      0.83069  0.34659  0.65827     O
O      0.83069  0.34659  0.84173     O
O      0.83069   0.4841  0.65827     O
O      0.83069   0.4841  0.84173     O
C        0.858    0.429  0.63133     C
C        0.858    0.429  0.86867     C
H       0.8932   0.3063   0.5964     H
H       0.8932   0.3063   0.9036     H
H       0.8932   0.5869   0.5964     H
H       0.8932   0.5869   0.9036     H
C       0.9312   0.4656  0.56374     C
C       0.9312   0.4656  0.93626     C
O       0.9367   0.3201   0.5583     O
O       0.9367   0.3201   0.9417     O
O       0.9367   0.6166   0.5583     O
O       0.9367   0.6166   0.9417     O
C      0.96636  0.40943  0.53188     C
C      0.96636  0.40943  0.96812     C
C      0.96636  0.55693  0.53188     C
C      0.96636  0.55693  0.96812     C
