data_I
_chemical_name_common  '/home/zhangsd/repos/MofS-CGCNN/ML/data/WS24/clean_cifs/DULCAQ'
_cell_length_a 12.88600
_cell_length_b 16.47830
_cell_length_c 18.25410
_cell_angle_alpha 80.20200
_cell_angle_beta  86.03900
_cell_angle_gamma 81.67300
_space_group_name_H-M_alt      'P 1'


loop_
_space_group_symop_operation_xyz
  'x, y, z' 

loop_
_atom_site_label
_atom_site_fract_x
_atom_site_fract_y
_atom_site_fract_z
_atom_site_type_symbol
O        0.001    0.591  0.37611     O
H        0.004   0.9725   0.3883     H
H        0.009   0.7974   0.7626     H
C       0.0148   0.5762   0.0169     C
C       0.0171    0.369   0.2905     C
H       0.0203   0.8708   0.4907     H
C       0.0229   0.3204   0.2369     C
H       0.0251   0.6271   0.0285     H
C       0.0329   0.7752   0.3292     C
H       0.0347   0.6359   0.6715     H
O        0.039   0.8434   0.0175     O
C       0.0391   0.8758   0.2381     C
H       0.0442   0.4365   0.4617     H
C       0.0464   0.1046   0.5237     C
C       0.0476   0.4697   0.5003     C
C       0.0504   0.7443    0.758     C
H       0.0514   0.7361   0.3709     H
C       0.0523   0.1531   0.7607     C
C       0.0543   0.9899   0.0052     C
C       0.0562   0.0459   0.5874     C
N       0.0573   0.2168   0.7034     N
H       0.0578   0.2284   0.4132     H
H       0.0611   0.7425   0.1422     H
H       0.0615   0.9194   0.2043     H
H       0.0638   0.6223   0.2417     H
H       0.0649   0.7932   0.8932     H
C       0.0658   0.4117   0.5734     C
H       0.0698   0.0099   0.0497     H
H       0.0807   0.4571   0.3278     H
C       0.0857   0.4476    0.975     C
H       0.0858   0.7498   0.7091     H
C       0.0862   0.4254   0.2898     C
H       0.0913   0.0199   0.9635     H
N       0.0932   0.8297   0.2953     N
H       0.0948   0.9316   0.7017     H
C       0.0977   0.5251   0.9921     C
C       0.0985   0.8975   0.0126     C
C       0.0987   0.3309   0.1803     C
H       0.1031    0.299   0.1425     H
H       0.1049   0.1327   0.7942     H
H       0.1077   0.4996   0.4878     H
H       0.1096    0.158    0.369     H
C       0.1132   0.6968   0.1481     C
C       0.1141   0.6307   0.2031     C
C       0.1198   0.1881   0.4086     C
C        0.122   0.7573   0.8784     C
N       0.1297   0.7259   0.8143     N
C       0.1323   0.1277   0.4809     C
C       0.1509   0.0143   0.6156     C
O       0.1559   0.3647  0.57815     O
H        0.156   0.5216   0.8231     H
H        0.157   0.4785   0.7005     H
C       0.1617   0.9515   0.6871     C
C       0.1624   0.4362   0.2351     C
C       0.1627   0.4673   0.8136     C
C       0.1632   0.4431   0.7459     C
H       0.1639   0.5422   0.9865     H
C       0.1675   0.3868   0.1785     C
Zn     0.16774  0.29143  0.67405    Zn
N       0.1739   0.3965   0.8646     N
N       0.1742   0.3582   0.7555     N
H       0.1748   0.3359   0.9708     H
C       0.1766   0.3928   0.9462     C
C       0.1803   0.3331    0.828     C
H       0.1809   0.9781   0.7267     H
H       0.1882   0.2777   0.8505     H
H       0.1957   0.8353   0.5912     H
O       0.1959   0.8813   0.0131     O
H       0.1989   0.8355   0.3712     H
C       0.2005   0.8386   0.3176     C
N       0.2013    0.686   0.1021     N
N       0.2028   0.5793   0.1908     N
N       0.2065   0.7301   0.9173     N
H       0.2082   0.3103   0.4663     H
N       0.2124   0.2323   0.3888     N
H        0.217   0.8933   0.2953     H
H       0.2181   0.3925   0.1398     H
C       0.2242   0.6751   0.8121     C
C       0.2286   0.1006   0.5136     C
C       0.2379   0.0455   0.5808     C
C       0.2379   0.4974   0.2357     C
N       0.2403   0.8822    0.677     N
H       0.2416     0.41   0.9578     H
C        0.243   0.2903   0.4253     C
Zn     0.24334  0.76305  0.01226    Zn
C       0.2447   0.8318    0.627     C
H       0.2455   0.5046   0.2866     H
H       0.2507   0.6442   0.7751     H
C       0.2528   0.6139   0.1303     C
H       0.2528   0.6848   0.3777     H
C       0.2691   0.6799   0.8741     C
H       0.2832   0.1842    0.301     H
C       0.2851   0.2207   0.3344     C
C       0.2851   0.7755   0.2958     C
H       0.2886   0.1199   0.4899     H
C       0.3003    0.699   0.3386     C
H       0.3029     0.03   0.6019     H
N       0.3054    0.218   0.6679     N
H       0.3062   0.4753   0.2162     H
H       0.3098   0.1436   0.7704     H
H       0.3161   0.5903   0.1103     H
C       0.3302   0.8551   0.7169     C
C       0.3309   0.7751   0.6363     C
C       0.3322   0.3129   0.3914     C
H       0.3353   0.6526    0.887     H
C        0.343   0.1562   0.7239     C
H       0.3442   0.8446   0.2048     H
H       0.3479    0.172   0.0797     H
H       0.3485   0.8795   0.7557     H
H       0.3509   0.7321    0.609     H
C       0.3544    0.793   0.2352     C
N       0.3598   0.2676   0.3341     N
H       0.3693   0.3524   0.4042     H
H       0.3699   0.2485   0.5688     H
C       0.3752   0.2133   0.6144     C
H       0.3793   0.3085   0.0299     H
N       0.3845   0.7924    0.694     N
C       0.3848   0.6431   0.3242     C
H       0.3915   0.5902   0.3525     H
H       0.3917   0.3705   0.7656     H
O       0.3929   0.7756   0.9994     O
H       0.3976   0.8994   0.3841     H
H       0.4014   0.2493   0.9705     H
H       0.4123    0.411   0.6827     H
C       0.4185   0.1867    0.077     C
C       0.4261   0.2615    0.016     C
H       0.4326   0.8282   0.4496     H
C       0.4327   0.1177   0.7017     C
C       0.4376   0.7356   0.2194     C
C       0.4417    0.398   0.7315     C
C       0.4441   0.2024   0.1536     C
O       0.4476   0.1469   0.2071     O
O        0.448   0.6413   0.0134     O
C       0.4551   0.8752   0.4159     C
N       0.4552    0.154   0.6297     N
C       0.4566   0.6609   0.2725     C
N       0.4571   0.4758   0.7563     N
O        0.459   0.2739   0.1598     O
H       0.4606   0.0363   0.3775     H
H       0.4622   0.5633   0.6632     H
C       0.4654   0.7141   0.9999     C
H       0.4665   0.1397    0.064     H
C       0.4679   0.5517   0.7145     C
H       0.4739   0.0738   0.7295     H
C       0.4768   0.0213   0.4273     C
C       0.4771   0.4803   0.8277     C
C       0.4787   0.9391   0.4607     C
H       0.4788   0.4384    0.869     H
H       0.4798   0.7448   0.1761     H
N       0.4861   0.6035   0.7527     N
Zn      0.4866  0.27513  0.26392    Zn
H       0.4914   0.4218   0.1342     H
C       0.4934   0.5565   0.8245     C
H       0.4972   0.1366   0.4424     H
C       0.4984   0.0819   0.4662     C
C       0.5016   0.9181   0.5338     C
H       0.5028   0.8634   0.5576     H
C       0.5066   0.4435   0.1755     C
H       0.5086   0.5782   0.8658     H
Zn      0.5134  0.72487  0.73608    Zn
N       0.5139   0.3965   0.2473     N
H       0.5202   0.2552   0.8239     H
H       0.5212   0.5616    0.131     H
C       0.5213   0.0609   0.5393     C
C       0.5229   0.5197   0.1723     C
C       0.5232   0.9787   0.5727     C
H       0.5261   0.9262   0.2705     H
C       0.5321   0.4483   0.2855     C
H       0.5335   0.8603    0.936     H
C       0.5346   0.2859   0.0001     C
H       0.5378   0.4367   0.3368     H
H       0.5394   0.9637   0.6225     H
O        0.541   0.7261   0.8402     O
N       0.5429   0.5242   0.2437     N
C       0.5434   0.3391   0.7275     C
N       0.5448    0.846   0.3703     N
C       0.5449   0.1248   0.5841     C
O        0.552   0.3587   0.9866     O
O       0.5524   0.8531   0.7929     O
C       0.5559   0.7976   0.8464     C
C       0.5583    0.602   0.2685     C
C       0.5624   0.2644   0.7806     C
C       0.5673   0.8823   0.2983     C
H       0.5674   0.1718   0.5504     H
C       0.5739   0.7385    0.984     C
C       0.5815   0.8133    0.923     C
H       0.5877    0.589   0.3173     H
H       0.5986   0.7507   0.0295     H
H       0.6024   0.1006   0.6159     H
O       0.6071   0.2244   0.0006     O
H       0.6083   0.6295   0.2344     H
H       0.6085   0.4098   0.6475     H
C       0.6152   0.3569   0.6758     C
N       0.6155   0.2076    0.306     N
H       0.6207   0.6915   0.9701     H
C       0.6248   0.7867   0.3856     C
H       0.6301   0.7515   0.4312     H
H       0.6307   0.6476   0.5958     H
N       0.6402   0.7324   0.6659     N
C       0.6456    0.207   0.7648     C
H       0.6491   0.2679    0.391     H
H       0.6515   0.1205   0.2443     H
H       0.6521    0.828   0.9203     H
H       0.6558   0.1554   0.7952     H
C        0.657   0.8438   0.2761     C
H       0.6647   0.3474    0.113     H
C       0.6678   0.6871   0.6086     C
C       0.6691   0.2249   0.3637     C
C       0.6698   0.1449   0.2831     C
H       0.6839   0.4097   0.8897     H
H       0.6902   0.8564   0.2296     H
H       0.6938   0.5247   0.7838     H
N       0.6946    0.782   0.3321     N
H       0.6971     0.97   0.3981     H
C       0.6997    0.301   0.6614     C
H       0.7114   0.8801   0.5101     H
C       0.7149   0.2245   0.7042     C
C       0.7149   0.7793   0.6656     C
H       0.7168   0.8158    0.699     H
C       0.7309   0.3201   0.1259     C
H       0.7472   0.3152   0.6223     H
C       0.7472   0.3861   0.8697     C
H       0.7493   0.3558   0.2249     H
H       0.7545   0.4954   0.7134     H
C       0.7553   0.1682    0.373     C
Zn     0.75666  0.23695  0.98774    Zn
C        0.757   0.7097   0.5747     C
H       0.7584     0.59   0.0422     H
N       0.7597   0.1178    0.323     N
C       0.7621   0.5026   0.7643     C
C       0.7621   0.9545   0.4192     C
C       0.7714   0.8994   0.4864     C
C       0.7758   0.3249   0.1879     C
H       0.7819   0.6075   0.8602     H
H        0.783   0.1067   0.7047     H
N       0.7876   0.7677   0.6112     N
H       0.7918   0.6897   0.5337     H
N       0.7935   0.2699   0.0827     N
N       0.7972   0.4207   0.8092     N
N       0.7987    0.314   0.8979     N
C       0.7995   0.1614   0.6824     C
H       0.8011   0.1645   0.6288     H
O       0.8041   0.1187   0.9869     O
H       0.8043   0.1647   0.4088     H
H       0.8118   0.7223   0.1495     H
H       0.8191   0.0219   0.2733     H
C       0.8197   0.6669    0.172     C
C       0.8234   0.6072   0.0538     C
H       0.8252   0.6641   0.0292     H
N       0.8258   0.6418   0.2445     N
N       0.8261   0.6035   0.1354     N
Zn     0.83226  0.70857  0.32595    Zn
C       0.8325   0.6132   0.8215     C
H       0.8361   0.4578   0.0135     H
C       0.8368   0.5569   0.2541     C
C       0.8373   0.5327   0.1864     C
C       0.8376   0.5638   0.7649     C
C       0.8383   0.0485   0.3129     C
H        0.843   0.5215   0.2995     H
H        0.844   0.4784   0.1769     H
O       0.8441   0.6353  0.42185     O
C       0.8491   0.9857   0.3844     C
C       0.8677   0.8723   0.5191     C
N       0.8703   0.2741   0.1857     N
C        0.878   0.2427   0.1216     C
C       0.8802   0.8119   0.5914     C
C       0.8859   0.3693   0.7969     C
C       0.8868   0.3032   0.8519     C
H       0.8904    0.842    0.631     H
H       0.8923   0.5004   0.5122     H
H       0.8951   0.8673   0.2058     H
H       0.8969    0.701   0.8575     H
C       0.9013   0.6691   0.8197     C
C       0.9015   0.1025   0.9874     C
C       0.9023   0.4749   0.0079     C
H       0.9052   0.0684   0.2983     H
N       0.9068   0.1703   0.7047     N
H       0.9087   0.9801   0.0365     H
C       0.9138   0.5746   0.7102     C
H       0.9142   0.2502   0.2909     H
C       0.9143   0.5524    0.025     C
H       0.9193   0.5429   0.6722     H
H       0.9302   0.9901   0.9503     H
C       0.9342   0.5883   0.4266     C
H       0.9351   0.2068   0.1068     H
H       0.9362   0.3777   0.7583     H
H       0.9385   0.0806   0.7957     H
H       0.9389   0.2575   0.8578     H
H       0.9422   0.7716   0.5868     H
N       0.9427   0.7832   0.2966     N
C       0.9438   0.9541   0.4126     C
C       0.9457   0.0101   0.9948     C
C       0.9477   0.8469   0.2393     C
H       0.9486   0.2639   0.6291     H
C       0.9496   0.2557    0.242     C
C       0.9524   0.5303   0.4997     C
C       0.9536   0.8954   0.4763     C
H       0.9558   0.5635   0.5383     H
C       0.9609   0.1242   0.7619     C
O        0.961   0.1566   0.9825     O
H       0.9653   0.3641   0.3285     H
C       0.9671   0.2248   0.6708     C
H       0.9749   0.3729   0.9715     H
C       0.9771   0.6796   0.7631     C
H       0.9797   0.1292   0.5093     H
C       0.9829    0.631   0.7095     C
C       0.9852   0.4238   0.9831     C
H        0.991   0.2026   0.2374     H
H        0.996   0.0275   0.6117     H
O        0.999    0.409  0.62389     O
