data_I
_chemical_name_common  '/home/zhangsd/repos/MofS-CGCNN/ML/data/WS24/clean_cifs/dut-67-zr'
_cell_length_a 39.12050
_cell_length_b 39.12050
_cell_length_c 39.12050
_cell_angle_alpha 90.00000
_cell_angle_beta  90.00000
_cell_angle_gamma 90.00000
_space_group_name_H-M_alt      'P 1'


loop_
_space_group_symop_operation_xyz
  'x, y, z' 

loop_
_atom_site_label
_atom_site_fract_x
_atom_site_fract_y
_atom_site_fract_z
_atom_site_type_symbol
O          0.0  0.19642 0.2601416     O
O          0.0  0.19642 0.7398616     O
Zr         0.0 0.20544312 0.20544312    Zr
Zr         0.0 0.20544312 0.79455712    Zr
O          0.0 0.2398616  0.30362     O
O          0.0 0.2398616  0.69642     O
O          0.0 0.2601416  0.19642     O
O          0.0 0.2601416  0.80362     O
Zr         0.0 0.29455712 0.29455712    Zr
Zr         0.0 0.29455712 0.70544312    Zr
O          0.0  0.30362 0.2398616     O
O          0.0  0.30362 0.7601416     O
O          0.0  0.69642 0.2398616     O
O          0.0  0.69642 0.7601416     O
Zr         0.0 0.70544312 0.29455712    Zr
Zr         0.0 0.70544312 0.70544312    Zr
O          0.0 0.7398616  0.19642     O
O          0.0 0.7398616  0.80362     O
O          0.0 0.7601416  0.30362     O
O          0.0 0.7601416  0.69642     O
Zr         0.0 0.79455712 0.20544312    Zr
Zr         0.0 0.79455712 0.79455712    Zr
O          0.0  0.80362 0.2601416     O
O          0.0  0.80362 0.7398616     O
O     0.034228 0.160519 0.209009     O
O     0.034228 0.160519 0.791009     O
O     0.034228 0.209009 0.160519     O
O     0.034228 0.209009 0.839499     O
O     0.034228 0.291009 0.339499     O
O     0.034228 0.291009 0.660519     O
O     0.034228 0.339499 0.291009     O
O     0.034228 0.339499 0.709009     O
O     0.034228 0.660519 0.291009     O
O     0.034228 0.660519 0.709009     O
O     0.034228 0.709009 0.339499     O
O     0.034228 0.709009 0.660519     O
O     0.034228 0.791009 0.160519     O
O     0.034228 0.791009 0.839499     O
O     0.034228 0.839499 0.209009     O
O     0.034228 0.839499 0.791009     O
O      0.04344 0.1790312 0.3209712     O
O      0.04344 0.1790312 0.6790312     O
O      0.04344 0.3209712 0.1790312     O
O      0.04344 0.3209712 0.8209712     O
O      0.04344 0.6790312 0.1790312     O
O      0.04344 0.6790312 0.8209712     O
O      0.04344 0.8209712 0.3209712     O
O      0.04344 0.8209712 0.6790312     O
O      0.04482 0.2283314 0.2283314     O
O      0.04482 0.2283314 0.7716714     O
O      0.04482 0.2716714 0.2716714     O
O      0.04482 0.2716714 0.7283314     O
O      0.04482 0.7283314 0.2716714     O
O      0.04482 0.7283314 0.7283314     O
O      0.04482 0.7716714 0.2283314     O
O      0.04482 0.7716714 0.7716714     O
Zr    0.04524814 0.2181381 0.2818621    Zr
Zr    0.04524814 0.2181381 0.7181381    Zr
Zr    0.04524814 0.2818621 0.2181381    Zr
Zr    0.04524814 0.2818621 0.7818621    Zr
Zr    0.04524814 0.7181381 0.2181381    Zr
Zr    0.04524814 0.7181381 0.7818621    Zr
Zr    0.04524814 0.7818621 0.2818621    Zr
Zr    0.04524814 0.7818621 0.7181381    Zr
C     0.0571013 0.1530214 0.2303314     C
C     0.0571013 0.1530214 0.7696714     C
C     0.0571013 0.2303314 0.1530214     C
C     0.0571013 0.2303314 0.8469814     C
C     0.0571013 0.2696714 0.3469814     C
C     0.0571013 0.2696714 0.6530214     C
C     0.0571013 0.3469814 0.2696714     C
C     0.0571013 0.3469814 0.7303314     C
C     0.0571013 0.6530214 0.2696714     C
C     0.0571013 0.6530214 0.7303314     C
C     0.0571013 0.7303314 0.3469814     C
C     0.0571013 0.7303314 0.6530214     C
C     0.0571013 0.7696714 0.1530214     C
C     0.0571013 0.7696714 0.8469814     C
C     0.0571013 0.8469814 0.2303314     C
C     0.0571013 0.8469814 0.7696714     C
H       0.0621    0.106    0.176     H
H       0.0621    0.106    0.824     H
H       0.0621    0.176    0.106     H
H       0.0621    0.176    0.894     H
H       0.0621    0.324    0.394     H
H       0.0621    0.324    0.606     H
H       0.0621    0.394    0.324     H
H       0.0621    0.394    0.676     H
H       0.0621    0.606    0.324     H
H       0.0621    0.606    0.676     H
H       0.0621    0.676    0.394     H
H       0.0621    0.676    0.606     H
H       0.0621    0.824    0.106     H
H       0.0621    0.824    0.894     H
H       0.0621    0.894    0.176     H
H       0.0621    0.894    0.824     H
O     0.0640613 0.1687612 0.2574812     O
O     0.0640613 0.1687612 0.7425212     O
O     0.0640613 0.2425212 0.3312412     O
O     0.0640613 0.2425212 0.6687612     O
O     0.0640613 0.2574812 0.1687612     O
O     0.0640613 0.2574812 0.8312412     O
O     0.0640613 0.3312412 0.2425212     O
O     0.0640613 0.3312412 0.7574812     O
O     0.0640613 0.6687612 0.2425212     O
O     0.0640613 0.6687612 0.7574812     O
O     0.0640613 0.7425212 0.1687612     O
O     0.0640613 0.7425212 0.8312412     O
O     0.0640613 0.7574812 0.3312412     O
O     0.0640613 0.7574812 0.6687612     O
O     0.0640613 0.8312412 0.2574812     O
O     0.0640613 0.8312412 0.7425212     O
C      0.07792  0.10312  0.19362     C
C      0.07792  0.10312  0.80642     C
C      0.07792  0.19362  0.10312     C
C      0.07792  0.19362  0.89692     C
C      0.07792  0.30642  0.39692     C
C      0.07792  0.30642  0.60312     C
C      0.07792  0.39692  0.30642     C
C      0.07792  0.39692  0.69362     C
C      0.07792  0.60312  0.30642     C
C      0.07792  0.60312  0.69362     C
C      0.07792  0.69362  0.39692     C
C      0.07792  0.69362  0.60312     C
C      0.07792  0.80642  0.10312     C
C      0.07792  0.80642  0.89692     C
C      0.07792  0.89692  0.19362     C
C      0.07792  0.89692  0.80642     C
C     0.0788016 0.1231616 0.2220617     C
C     0.0788016 0.1231616 0.7779417     C
C     0.0788016 0.2220617 0.1231616     C
C     0.0788016 0.2220617 0.8768416     C
C     0.0788016 0.2779417 0.3768416     C
C     0.0788016 0.2779417 0.6231616     C
C     0.0788016 0.3768416 0.2779417     C
C     0.0788016 0.3768416 0.7220617     C
C     0.0788016 0.6231616 0.2779417     C
C     0.0788016 0.6231616 0.7220617     C
C     0.0788016 0.7220617 0.3768416     C
C     0.0788016 0.7220617 0.6231616     C
C     0.0788016 0.7779417 0.1231616     C
C     0.0788016 0.7779417 0.8768416     C
C     0.0788016 0.8768416 0.2220617     C
C     0.0788016 0.8768416 0.7779417     C
O     0.1007016  0.22252  0.27752     O
O     0.1007016  0.22252  0.72252     O
O     0.1007016  0.27752  0.22252     O
O     0.1007016  0.27752  0.77752     O
O     0.1007016  0.72252  0.22252     O
O     0.1007016  0.72252  0.77752     O
O     0.1007016  0.77752  0.27752     O
O     0.1007016  0.77752  0.72252     O
C      0.10312  0.07792  0.19362     C
C      0.10312  0.07792  0.80642     C
C      0.10312  0.19362  0.07792     C
C      0.10312  0.19362  0.92212     C
C      0.10312  0.30642  0.42212     C
C      0.10312  0.30642  0.57792     C
C      0.10312  0.42212  0.30642     C
C      0.10312  0.42212  0.69362     C
C      0.10312  0.57792  0.30642     C
C      0.10312  0.57792  0.69362     C
C      0.10312  0.69362  0.42212     C
C      0.10312  0.69362  0.57792     C
C      0.10312  0.80642  0.07792     C
C      0.10312  0.80642  0.92212     C
C      0.10312  0.92212  0.19362     C
C      0.10312  0.92212  0.80642     C
H        0.106   0.0621    0.176     H
H        0.106   0.0621    0.824     H
H        0.106    0.176   0.0621     H
H        0.106    0.176   0.9379     H
H        0.106    0.324   0.4379     H
H        0.106    0.324   0.5621     H
H        0.106   0.4379    0.324     H
H        0.106   0.4379    0.676     H
H        0.106   0.5621    0.324     H
H        0.106   0.5621    0.676     H
H        0.106    0.676   0.4379     H
H        0.106    0.676   0.5621     H
H        0.106    0.824   0.0621     H
H        0.106    0.824   0.9379     H
H        0.106   0.9379    0.176     H
H        0.106   0.9379    0.824     H
S     0.111325 0.111325 0.248786     S
S     0.111325 0.111325 0.751226     S
S     0.111325 0.248786 0.111325     S
S     0.111325 0.248786 0.888685     S
S     0.111325 0.251226 0.388685     S
S     0.111325 0.251226 0.611325     S
S     0.111325 0.388685 0.251226     S
S     0.111325 0.388685 0.748786     S
S     0.111325 0.611325 0.251226     S
S     0.111325 0.611325 0.748786     S
S     0.111325 0.748786 0.388685     S
S     0.111325 0.748786 0.611325     S
S     0.111325 0.751226 0.111325     S
S     0.111325 0.751226 0.888685     S
S     0.111325 0.888685 0.248786     S
S     0.111325 0.888685 0.751226     S
C     0.1231616 0.0788016 0.2220617     C
C     0.1231616 0.0788016 0.7779417     C
C     0.1231616 0.2220617 0.0788016     C
C     0.1231616 0.2220617 0.9212016     C
C     0.1231616 0.2779417 0.4212016     C
C     0.1231616 0.2779417 0.5788016     C
C     0.1231616 0.4212016 0.2779417     C
C     0.1231616 0.4212016 0.7220617     C
C     0.1231616 0.5788016 0.2779417     C
C     0.1231616 0.5788016 0.7220617     C
C     0.1231616 0.7220617 0.4212016     C
C     0.1231616 0.7220617 0.5788016     C
C     0.1231616 0.7779417 0.0788016     C
C     0.1231616 0.7779417 0.9212016     C
C     0.1231616 0.9212016 0.2220617     C
C     0.1231616 0.9212016 0.7779417     C
C     0.1530214 0.0571013 0.2303314     C
C     0.1530214 0.0571013 0.7696714     C
C     0.1530214 0.2303314 0.0571013     C
C     0.1530214 0.2303314 0.9429013     C
C     0.1530214 0.2696714 0.4429013     C
C     0.1530214 0.2696714 0.5571013     C
C     0.1530214 0.4429013 0.2696714     C
C     0.1530214 0.4429013 0.7303314     C
C     0.1530214 0.5571013 0.2696714     C
C     0.1530214 0.5571013 0.7303314     C
C     0.1530214 0.7303314 0.4429013     C
C     0.1530214 0.7303314 0.5571013     C
C     0.1530214 0.7696714 0.0571013     C
C     0.1530214 0.7696714 0.9429013     C
C     0.1530214 0.9429013 0.2303314     C
C     0.1530214 0.9429013 0.7696714     C
O     0.160519 0.034228 0.209009     O
O     0.160519 0.034228 0.791009     O
O     0.160519 0.209009 0.034228     O
O     0.160519 0.209009 0.965788     O
O     0.160519 0.291009 0.465788     O
O     0.160519 0.291009 0.534228     O
O     0.160519 0.465788 0.291009     O
O     0.160519 0.465788 0.709009     O
O     0.160519 0.534228 0.291009     O
O     0.160519 0.534228 0.709009     O
O     0.160519 0.709009 0.465788     O
O     0.160519 0.709009 0.534228     O
O     0.160519 0.791009 0.034228     O
O     0.160519 0.791009 0.965788     O
O     0.160519 0.965788 0.209009     O
O     0.160519 0.965788 0.791009     O
O     0.1687612 0.0640613 0.2574812     O
O     0.1687612 0.0640613 0.7425212     O
O     0.1687612 0.2425212 0.4359413     O
O     0.1687612 0.2425212 0.5640613     O
O     0.1687612 0.2574812 0.0640613     O
O     0.1687612 0.2574812 0.9359413     O
O     0.1687612 0.4359413 0.2425212     O
O     0.1687612 0.4359413 0.7574812     O
O     0.1687612 0.5640613 0.2425212     O
O     0.1687612 0.5640613 0.7574812     O
O     0.1687612 0.7425212 0.0640613     O
O     0.1687612 0.7425212 0.9359413     O
O     0.1687612 0.7574812 0.4359413     O
O     0.1687612 0.7574812 0.5640613     O
O     0.1687612 0.9359413 0.2574812     O
O     0.1687612 0.9359413 0.7425212     O
H        0.176   0.0621    0.106     H
H        0.176   0.0621    0.894     H
H        0.176    0.106   0.0621     H
H        0.176    0.106   0.9379     H
H        0.176    0.394   0.4379     H
H        0.176    0.394   0.5621     H
H        0.176   0.4379    0.394     H
H        0.176   0.4379    0.606     H
H        0.176   0.5621    0.394     H
H        0.176   0.5621    0.606     H
H        0.176    0.606   0.4379     H
H        0.176    0.606   0.5621     H
H        0.176    0.894   0.0621     H
H        0.176    0.894   0.9379     H
H        0.176   0.9379    0.106     H
H        0.176   0.9379    0.894     H
O     0.1790312  0.04344 0.3209712     O
O     0.1790312  0.04344 0.6790312     O
O     0.1790312 0.1790312  0.45664     O
O     0.1790312 0.1790312  0.54344     O
O     0.1790312 0.3209712  0.04344     O
O     0.1790312 0.3209712  0.95664     O
O     0.1790312  0.45664 0.1790312     O
O     0.1790312  0.45664 0.8209712     O
O     0.1790312  0.54344 0.1790312     O
O     0.1790312  0.54344 0.8209712     O
O     0.1790312 0.6790312  0.04344     O
O     0.1790312 0.6790312  0.95664     O
O     0.1790312 0.8209712  0.45664     O
O     0.1790312 0.8209712  0.54344     O
O     0.1790312  0.95664 0.3209712     O
O     0.1790312  0.95664 0.6790312     O
C      0.19362  0.07792  0.10312     C
C      0.19362  0.07792  0.89692     C
C      0.19362  0.10312  0.07792     C
C      0.19362  0.10312  0.92212     C
C      0.19362  0.39692  0.42212     C
C      0.19362  0.39692  0.57792     C
C      0.19362  0.42212  0.39692     C
C      0.19362  0.42212  0.60312     C
C      0.19362  0.57792  0.39692     C
C      0.19362  0.57792  0.60312     C
C      0.19362  0.60312  0.42212     C
C      0.19362  0.60312  0.57792     C
C      0.19362  0.89692  0.07792     C
C      0.19362  0.89692  0.92212     C
C      0.19362  0.92212  0.10312     C
C      0.19362  0.92212  0.89692     C
O      0.19642      0.0 0.2601416     O
O      0.19642      0.0 0.7398616     O
O      0.19642 0.2398616      0.5     O
O      0.19642 0.2601416      0.0     O
O      0.19642      0.5 0.2398616     O
O      0.19642      0.5 0.7601416     O
O      0.19642 0.7398616      0.0     O
O      0.19642 0.7601416      0.5     O
Zr    0.20544312      0.0 0.20544312    Zr
Zr    0.20544312      0.0 0.79455712    Zr
Zr    0.20544312 0.20544312      0.0    Zr
Zr    0.20544312 0.29455712      0.5    Zr
Zr    0.20544312      0.5 0.29455712    Zr
Zr    0.20544312      0.5 0.70544312    Zr
Zr    0.20544312 0.70544312      0.5    Zr
Zr    0.20544312 0.79455712      0.0    Zr
O     0.209009 0.034228 0.160519     O
O     0.209009 0.034228 0.839499     O
O     0.209009 0.160519 0.034228     O
O     0.209009 0.160519 0.965788     O
O     0.209009 0.339499 0.465788     O
O     0.209009 0.339499 0.534228     O
O     0.209009 0.465788 0.339499     O
O     0.209009 0.465788 0.660519     O
O     0.209009 0.534228 0.339499     O
O     0.209009 0.534228 0.660519     O
O     0.209009 0.660519 0.465788     O
O     0.209009 0.660519 0.534228     O
O     0.209009 0.839499 0.034228     O
O     0.209009 0.839499 0.965788     O
O     0.209009 0.965788 0.160519     O
O     0.209009 0.965788 0.839499     O
Zr    0.2181381 0.04524814 0.2818621    Zr
Zr    0.2181381 0.04524814 0.7181381    Zr
Zr    0.2181381 0.2181381 0.45475214    Zr
Zr    0.2181381 0.2181381 0.54524814    Zr
Zr    0.2181381 0.2818621 0.04524814    Zr
Zr    0.2181381 0.2818621 0.95475214    Zr
Zr    0.2181381 0.45475214 0.2181381    Zr
Zr    0.2181381 0.45475214 0.7818621    Zr
Zr    0.2181381 0.54524814 0.2181381    Zr
Zr    0.2181381 0.54524814 0.7818621    Zr
Zr    0.2181381 0.7181381 0.04524814    Zr
Zr    0.2181381 0.7181381 0.95475214    Zr
Zr    0.2181381 0.7818621 0.45475214    Zr
Zr    0.2181381 0.7818621 0.54524814    Zr
Zr    0.2181381 0.95475214 0.2818621    Zr
Zr    0.2181381 0.95475214 0.7181381    Zr
C     0.2220617 0.0788016 0.1231616     C
C     0.2220617 0.0788016 0.8768416     C
C     0.2220617 0.1231616 0.0788016     C
C     0.2220617 0.1231616 0.9212016     C
C     0.2220617 0.3768416 0.4212016     C
C     0.2220617 0.3768416 0.5788016     C
C     0.2220617 0.4212016 0.3768416     C
C     0.2220617 0.4212016 0.6231616     C
C     0.2220617 0.5788016 0.3768416     C
C     0.2220617 0.5788016 0.6231616     C
C     0.2220617 0.6231616 0.4212016     C
C     0.2220617 0.6231616 0.5788016     C
C     0.2220617 0.8768416 0.0788016     C
C     0.2220617 0.8768416 0.9212016     C
C     0.2220617 0.9212016 0.1231616     C
C     0.2220617 0.9212016 0.8768416     C
O      0.22252 0.1007016  0.27752     O
O      0.22252 0.1007016  0.72252     O
O      0.22252  0.22252 0.3993016     O
O      0.22252  0.22252 0.6007016     O
O      0.22252  0.27752 0.1007016     O
O      0.22252  0.27752 0.8993016     O
O      0.22252 0.3993016  0.22252     O
O      0.22252 0.3993016  0.77752     O
O      0.22252 0.6007016  0.22252     O
O      0.22252 0.6007016  0.77752     O
O      0.22252  0.72252 0.1007016     O
O      0.22252  0.72252 0.8993016     O
O      0.22252  0.77752 0.3993016     O
O      0.22252  0.77752 0.6007016     O
O      0.22252 0.8993016  0.27752     O
O      0.22252 0.8993016  0.72252     O
O     0.2283314  0.04482 0.2283314     O
O     0.2283314  0.04482 0.7716714     O
O     0.2283314 0.2283314  0.04482     O
O     0.2283314 0.2283314  0.95522     O
O     0.2283314 0.2716714  0.45522     O
O     0.2283314 0.2716714  0.54482     O
O     0.2283314  0.45522 0.2716714     O
O     0.2283314  0.45522 0.7283314     O
O     0.2283314  0.54482 0.2716714     O
O     0.2283314  0.54482 0.7283314     O
O     0.2283314 0.7283314  0.45522     O
O     0.2283314 0.7283314  0.54482     O
O     0.2283314 0.7716714  0.04482     O
O     0.2283314 0.7716714  0.95522     O
O     0.2283314  0.95522 0.2283314     O
O     0.2283314  0.95522 0.7716714     O
C     0.2303314 0.0571013 0.1530214     C
C     0.2303314 0.0571013 0.8469814     C
C     0.2303314 0.1530214 0.0571013     C
C     0.2303314 0.1530214 0.9429013     C
C     0.2303314 0.3469814 0.4429013     C
C     0.2303314 0.3469814 0.5571013     C
C     0.2303314 0.4429013 0.3469814     C
C     0.2303314 0.4429013 0.6530214     C
C     0.2303314 0.5571013 0.3469814     C
C     0.2303314 0.5571013 0.6530214     C
C     0.2303314 0.6530214 0.4429013     C
C     0.2303314 0.6530214 0.5571013     C
C     0.2303314 0.8469814 0.0571013     C
C     0.2303314 0.8469814 0.9429013     C
C     0.2303314 0.9429013 0.1530214     C
C     0.2303314 0.9429013 0.8469814     C
O     0.2398616      0.0  0.30362     O
O     0.2398616      0.0  0.69642     O
O     0.2398616  0.19642      0.5     O
O     0.2398616  0.30362      0.0     O
O     0.2398616      0.5  0.19642     O
O     0.2398616      0.5  0.80362     O
O     0.2398616  0.69642      0.0     O
O     0.2398616  0.80362      0.5     O
O     0.2425212 0.0640613 0.3312412     O
O     0.2425212 0.0640613 0.6687612     O
O     0.2425212 0.1687612 0.4359413     O
O     0.2425212 0.1687612 0.5640613     O
O     0.2425212 0.3312412 0.0640613     O
O     0.2425212 0.3312412 0.9359413     O
O     0.2425212 0.4359413 0.1687612     O
O     0.2425212 0.4359413 0.8312412     O
O     0.2425212 0.5640613 0.1687612     O
O     0.2425212 0.5640613 0.8312412     O
O     0.2425212 0.6687612 0.0640613     O
O     0.2425212 0.6687612 0.9359413     O
O     0.2425212 0.8312412 0.4359413     O
O     0.2425212 0.8312412 0.5640613     O
O     0.2425212 0.9359413 0.3312412     O
O     0.2425212 0.9359413 0.6687612     O
S     0.248786 0.111325 0.111325     S
S     0.248786 0.111325 0.888685     S
S     0.248786 0.388685 0.388685     S
S     0.248786 0.388685 0.611325     S
S     0.248786 0.611325 0.388685     S
S     0.248786 0.611325 0.611325     S
S     0.248786 0.888685 0.111325     S
S     0.248786 0.888685 0.888685     S
S     0.251226 0.111325 0.388685     S
S     0.251226 0.111325 0.611325     S
S     0.251226 0.388685 0.111325     S
S     0.251226 0.388685 0.888685     S
S     0.251226 0.611325 0.111325     S
S     0.251226 0.611325 0.888685     S
S     0.251226 0.888685 0.388685     S
S     0.251226 0.888685 0.611325     S
O     0.2574812 0.0640613 0.1687612     O
O     0.2574812 0.0640613 0.8312412     O
O     0.2574812 0.1687612 0.0640613     O
O     0.2574812 0.1687612 0.9359413     O
O     0.2574812 0.3312412 0.4359413     O
O     0.2574812 0.3312412 0.5640613     O
O     0.2574812 0.4359413 0.3312412     O
O     0.2574812 0.4359413 0.6687612     O
O     0.2574812 0.5640613 0.3312412     O
O     0.2574812 0.5640613 0.6687612     O
O     0.2574812 0.6687612 0.4359413     O
O     0.2574812 0.6687612 0.5640613     O
O     0.2574812 0.8312412 0.0640613     O
O     0.2574812 0.8312412 0.9359413     O
O     0.2574812 0.9359413 0.1687612     O
O     0.2574812 0.9359413 0.8312412     O
O     0.2601416      0.0  0.19642     O
O     0.2601416      0.0  0.80362     O
O     0.2601416  0.19642      0.0     O
O     0.2601416  0.30362      0.5     O
O     0.2601416      0.5  0.30362     O
O     0.2601416      0.5  0.69642     O
O     0.2601416  0.69642      0.5     O
O     0.2601416  0.80362      0.0     O
C     0.2696714 0.0571013 0.3469814     C
C     0.2696714 0.0571013 0.6530214     C
C     0.2696714 0.1530214 0.4429013     C
C     0.2696714 0.1530214 0.5571013     C
C     0.2696714 0.3469814 0.0571013     C
C     0.2696714 0.3469814 0.9429013     C
C     0.2696714 0.4429013 0.1530214     C
C     0.2696714 0.4429013 0.8469814     C
C     0.2696714 0.5571013 0.1530214     C
C     0.2696714 0.5571013 0.8469814     C
C     0.2696714 0.6530214 0.0571013     C
C     0.2696714 0.6530214 0.9429013     C
C     0.2696714 0.8469814 0.4429013     C
C     0.2696714 0.8469814 0.5571013     C
C     0.2696714 0.9429013 0.3469814     C
C     0.2696714 0.9429013 0.6530214     C
O     0.2716714  0.04482 0.2716714     O
O     0.2716714  0.04482 0.7283314     O
O     0.2716714 0.2283314  0.45522     O
O     0.2716714 0.2283314  0.54482     O
O     0.2716714 0.2716714  0.04482     O
O     0.2716714 0.2716714  0.95522     O
O     0.2716714  0.45522 0.2283314     O
O     0.2716714  0.45522 0.7716714     O
O     0.2716714  0.54482 0.2283314     O
O     0.2716714  0.54482 0.7716714     O
O     0.2716714 0.7283314  0.04482     O
O     0.2716714 0.7283314  0.95522     O
O     0.2716714 0.7716714  0.45522     O
O     0.2716714 0.7716714  0.54482     O
O     0.2716714  0.95522 0.2716714     O
O     0.2716714  0.95522 0.7283314     O
O      0.27752 0.1007016  0.22252     O
O      0.27752 0.1007016  0.77752     O
O      0.27752  0.22252 0.1007016     O
O      0.27752  0.22252 0.8993016     O
O      0.27752  0.27752 0.3993016     O
O      0.27752  0.27752 0.6007016     O
O      0.27752 0.3993016  0.27752     O
O      0.27752 0.3993016  0.72252     O
O      0.27752 0.6007016  0.27752     O
O      0.27752 0.6007016  0.72252     O
O      0.27752  0.72252 0.3993016     O
O      0.27752  0.72252 0.6007016     O
O      0.27752  0.77752 0.1007016     O
O      0.27752  0.77752 0.8993016     O
O      0.27752 0.8993016  0.22252     O
O      0.27752 0.8993016  0.77752     O
C     0.2779417 0.0788016 0.3768416     C
C     0.2779417 0.0788016 0.6231616     C
C     0.2779417 0.1231616 0.4212016     C
C     0.2779417 0.1231616 0.5788016     C
C     0.2779417 0.3768416 0.0788016     C
C     0.2779417 0.3768416 0.9212016     C
C     0.2779417 0.4212016 0.1231616     C
C     0.2779417 0.4212016 0.8768416     C
C     0.2779417 0.5788016 0.1231616     C
C     0.2779417 0.5788016 0.8768416     C
C     0.2779417 0.6231616 0.0788016     C
C     0.2779417 0.6231616 0.9212016     C
C     0.2779417 0.8768416 0.4212016     C
C     0.2779417 0.8768416 0.5788016     C
C     0.2779417 0.9212016 0.3768416     C
C     0.2779417 0.9212016 0.6231616     C
Zr    0.2818621 0.04524814 0.2181381    Zr
Zr    0.2818621 0.04524814 0.7818621    Zr
Zr    0.2818621 0.2181381 0.04524814    Zr
Zr    0.2818621 0.2181381 0.95475214    Zr
Zr    0.2818621 0.2818621 0.45475214    Zr
Zr    0.2818621 0.2818621 0.54524814    Zr
Zr    0.2818621 0.45475214 0.2818621    Zr
Zr    0.2818621 0.45475214 0.7181381    Zr
Zr    0.2818621 0.54524814 0.2818621    Zr
Zr    0.2818621 0.54524814 0.7181381    Zr
Zr    0.2818621 0.7181381 0.45475214    Zr
Zr    0.2818621 0.7181381 0.54524814    Zr
Zr    0.2818621 0.7818621 0.04524814    Zr
Zr    0.2818621 0.7818621 0.95475214    Zr
Zr    0.2818621 0.95475214 0.2181381    Zr
Zr    0.2818621 0.95475214 0.7818621    Zr
O     0.291009 0.034228 0.339499     O
O     0.291009 0.034228 0.660519     O
O     0.291009 0.160519 0.465788     O
O     0.291009 0.160519 0.534228     O
O     0.291009 0.339499 0.034228     O
O     0.291009 0.339499 0.965788     O
O     0.291009 0.465788 0.160519     O
O     0.291009 0.465788 0.839499     O
O     0.291009 0.534228 0.160519     O
O     0.291009 0.534228 0.839499     O
O     0.291009 0.660519 0.034228     O
O     0.291009 0.660519 0.965788     O
O     0.291009 0.839499 0.465788     O
O     0.291009 0.839499 0.534228     O
O     0.291009 0.965788 0.339499     O
O     0.291009 0.965788 0.660519     O
Zr    0.29455712      0.0 0.29455712    Zr
Zr    0.29455712      0.0 0.70544312    Zr
Zr    0.29455712 0.20544312      0.5    Zr
Zr    0.29455712 0.29455712      0.0    Zr
Zr    0.29455712      0.5 0.20544312    Zr
Zr    0.29455712      0.5 0.79455712    Zr
Zr    0.29455712 0.70544312      0.0    Zr
Zr    0.29455712 0.79455712      0.5    Zr
O      0.30362      0.0 0.2398616     O
O      0.30362      0.0 0.7601416     O
O      0.30362 0.2398616      0.0     O
O      0.30362 0.2601416      0.5     O
O      0.30362      0.5 0.2601416     O
O      0.30362      0.5 0.7398616     O
O      0.30362 0.7398616      0.5     O
O      0.30362 0.7601416      0.0     O
C      0.30642  0.07792  0.39692     C
C      0.30642  0.07792  0.60312     C
C      0.30642  0.10312  0.42212     C
C      0.30642  0.10312  0.57792     C
C      0.30642  0.39692  0.07792     C
C      0.30642  0.39692  0.92212     C
C      0.30642  0.42212  0.10312     C
C      0.30642  0.42212  0.89692     C
C      0.30642  0.57792  0.10312     C
C      0.30642  0.57792  0.89692     C
C      0.30642  0.60312  0.07792     C
C      0.30642  0.60312  0.92212     C
C      0.30642  0.89692  0.42212     C
C      0.30642  0.89692  0.57792     C
C      0.30642  0.92212  0.39692     C
C      0.30642  0.92212  0.60312     C
O     0.3209712  0.04344 0.1790312     O
O     0.3209712  0.04344 0.8209712     O
O     0.3209712 0.1790312  0.04344     O
O     0.3209712 0.1790312  0.95664     O
O     0.3209712 0.3209712  0.45664     O
O     0.3209712 0.3209712  0.54344     O
O     0.3209712  0.45664 0.3209712     O
O     0.3209712  0.45664 0.6790312     O
O     0.3209712  0.54344 0.3209712     O
O     0.3209712  0.54344 0.6790312     O
O     0.3209712 0.6790312  0.45664     O
O     0.3209712 0.6790312  0.54344     O
O     0.3209712 0.8209712  0.04344     O
O     0.3209712 0.8209712  0.95664     O
O     0.3209712  0.95664 0.1790312     O
O     0.3209712  0.95664 0.8209712     O
H        0.324   0.0621    0.394     H
H        0.324   0.0621    0.606     H
H        0.324    0.106   0.4379     H
H        0.324    0.106   0.5621     H
H        0.324    0.394   0.0621     H
H        0.324    0.394   0.9379     H
H        0.324   0.4379    0.106     H
H        0.324   0.4379    0.894     H
H        0.324   0.5621    0.106     H
H        0.324   0.5621    0.894     H
H        0.324    0.606   0.0621     H
H        0.324    0.606   0.9379     H
H        0.324    0.894   0.4379     H
H        0.324    0.894   0.5621     H
H        0.324   0.9379    0.394     H
H        0.324   0.9379    0.606     H
O     0.3312412 0.0640613 0.2425212     O
O     0.3312412 0.0640613 0.7574812     O
O     0.3312412 0.2425212 0.0640613     O
O     0.3312412 0.2425212 0.9359413     O
O     0.3312412 0.2574812 0.4359413     O
O     0.3312412 0.2574812 0.5640613     O
O     0.3312412 0.4359413 0.2574812     O
O     0.3312412 0.4359413 0.7425212     O
O     0.3312412 0.5640613 0.2574812     O
O     0.3312412 0.5640613 0.7425212     O
O     0.3312412 0.7425212 0.4359413     O
O     0.3312412 0.7425212 0.5640613     O
O     0.3312412 0.7574812 0.0640613     O
O     0.3312412 0.7574812 0.9359413     O
O     0.3312412 0.9359413 0.2425212     O
O     0.3312412 0.9359413 0.7574812     O
O     0.339499 0.034228 0.291009     O
O     0.339499 0.034228 0.709009     O
O     0.339499 0.209009 0.465788     O
O     0.339499 0.209009 0.534228     O
O     0.339499 0.291009 0.034228     O
O     0.339499 0.291009 0.965788     O
O     0.339499 0.465788 0.209009     O
O     0.339499 0.465788 0.791009     O
O     0.339499 0.534228 0.209009     O
O     0.339499 0.534228 0.791009     O
O     0.339499 0.709009 0.034228     O
O     0.339499 0.709009 0.965788     O
O     0.339499 0.791009 0.465788     O
O     0.339499 0.791009 0.534228     O
O     0.339499 0.965788 0.291009     O
O     0.339499 0.965788 0.709009     O
C     0.3469814 0.0571013 0.2696714     C
C     0.3469814 0.0571013 0.7303314     C
C     0.3469814 0.2303314 0.4429013     C
C     0.3469814 0.2303314 0.5571013     C
C     0.3469814 0.2696714 0.0571013     C
C     0.3469814 0.2696714 0.9429013     C
C     0.3469814 0.4429013 0.2303314     C
C     0.3469814 0.4429013 0.7696714     C
C     0.3469814 0.5571013 0.2303314     C
C     0.3469814 0.5571013 0.7696714     C
C     0.3469814 0.7303314 0.0571013     C
C     0.3469814 0.7303314 0.9429013     C
C     0.3469814 0.7696714 0.4429013     C
C     0.3469814 0.7696714 0.5571013     C
C     0.3469814 0.9429013 0.2696714     C
C     0.3469814 0.9429013 0.7303314     C
C     0.3768416 0.0788016 0.2779417     C
C     0.3768416 0.0788016 0.7220617     C
C     0.3768416 0.2220617 0.4212016     C
C     0.3768416 0.2220617 0.5788016     C
C     0.3768416 0.2779417 0.0788016     C
C     0.3768416 0.2779417 0.9212016     C
C     0.3768416 0.4212016 0.2220617     C
C     0.3768416 0.4212016 0.7779417     C
C     0.3768416 0.5788016 0.2220617     C
C     0.3768416 0.5788016 0.7779417     C
C     0.3768416 0.7220617 0.0788016     C
C     0.3768416 0.7220617 0.9212016     C
C     0.3768416 0.7779417 0.4212016     C
C     0.3768416 0.7779417 0.5788016     C
C     0.3768416 0.9212016 0.2779417     C
C     0.3768416 0.9212016 0.7220617     C
S     0.388685 0.111325 0.251226     S
S     0.388685 0.111325 0.748786     S
S     0.388685 0.248786 0.388685     S
S     0.388685 0.248786 0.611325     S
S     0.388685 0.251226 0.111325     S
S     0.388685 0.251226 0.888685     S
S     0.388685 0.388685 0.248786     S
S     0.388685 0.388685 0.751226     S
S     0.388685 0.611325 0.248786     S
S     0.388685 0.611325 0.751226     S
S     0.388685 0.748786 0.111325     S
S     0.388685 0.748786 0.888685     S
S     0.388685 0.751226 0.388685     S
S     0.388685 0.751226 0.611325     S
S     0.388685 0.888685 0.251226     S
S     0.388685 0.888685 0.748786     S
H        0.394   0.0621    0.324     H
H        0.394   0.0621    0.676     H
H        0.394    0.176   0.4379     H
H        0.394    0.176   0.5621     H
H        0.394    0.324   0.0621     H
H        0.394    0.324   0.9379     H
H        0.394   0.4379    0.176     H
H        0.394   0.4379    0.824     H
H        0.394   0.5621    0.176     H
H        0.394   0.5621    0.824     H
H        0.394    0.676   0.0621     H
H        0.394    0.676   0.9379     H
H        0.394    0.824   0.4379     H
H        0.394    0.824   0.5621     H
H        0.394   0.9379    0.324     H
H        0.394   0.9379    0.676     H
C      0.39692  0.07792  0.30642     C
C      0.39692  0.07792  0.69362     C
C      0.39692  0.19362  0.42212     C
C      0.39692  0.19362  0.57792     C
C      0.39692  0.30642  0.07792     C
C      0.39692  0.30642  0.92212     C
C      0.39692  0.42212  0.19362     C
C      0.39692  0.42212  0.80642     C
C      0.39692  0.57792  0.19362     C
C      0.39692  0.57792  0.80642     C
C      0.39692  0.69362  0.07792     C
C      0.39692  0.69362  0.92212     C
C      0.39692  0.80642  0.42212     C
C      0.39692  0.80642  0.57792     C
C      0.39692  0.92212  0.30642     C
C      0.39692  0.92212  0.69362     C
O     0.3993016  0.22252  0.22252     O
O     0.3993016  0.22252  0.77752     O
O     0.3993016  0.27752  0.27752     O
O     0.3993016  0.27752  0.72252     O
O     0.3993016  0.72252  0.27752     O
O     0.3993016  0.72252  0.72252     O
O     0.3993016  0.77752  0.22252     O
O     0.3993016  0.77752  0.77752     O
C     0.4212016 0.1231616 0.2779417     C
C     0.4212016 0.1231616 0.7220617     C
C     0.4212016 0.2220617 0.3768416     C
C     0.4212016 0.2220617 0.6231616     C
C     0.4212016 0.2779417 0.1231616     C
C     0.4212016 0.2779417 0.8768416     C
C     0.4212016 0.3768416 0.2220617     C
C     0.4212016 0.3768416 0.7779417     C
C     0.4212016 0.6231616 0.2220617     C
C     0.4212016 0.6231616 0.7779417     C
C     0.4212016 0.7220617 0.1231616     C
C     0.4212016 0.7220617 0.8768416     C
C     0.4212016 0.7779417 0.3768416     C
C     0.4212016 0.7779417 0.6231616     C
C     0.4212016 0.8768416 0.2779417     C
C     0.4212016 0.8768416 0.7220617     C
C      0.42212  0.10312  0.30642     C
C      0.42212  0.10312  0.69362     C
C      0.42212  0.19362  0.39692     C
C      0.42212  0.19362  0.60312     C
C      0.42212  0.30642  0.10312     C
C      0.42212  0.30642  0.89692     C
C      0.42212  0.39692  0.19362     C
C      0.42212  0.39692  0.80642     C
C      0.42212  0.60312  0.19362     C
C      0.42212  0.60312  0.80642     C
C      0.42212  0.69362  0.10312     C
C      0.42212  0.69362  0.89692     C
C      0.42212  0.80642  0.39692     C
C      0.42212  0.80642  0.60312     C
C      0.42212  0.89692  0.30642     C
C      0.42212  0.89692  0.69362     C
O     0.4359413 0.1687612 0.2425212     O
O     0.4359413 0.1687612 0.7574812     O
O     0.4359413 0.2425212 0.1687612     O
O     0.4359413 0.2425212 0.8312412     O
O     0.4359413 0.2574812 0.3312412     O
O     0.4359413 0.2574812 0.6687612     O
O     0.4359413 0.3312412 0.2574812     O
O     0.4359413 0.3312412 0.7425212     O
O     0.4359413 0.6687612 0.2574812     O
O     0.4359413 0.6687612 0.7425212     O
O     0.4359413 0.7425212 0.3312412     O
O     0.4359413 0.7425212 0.6687612     O
O     0.4359413 0.7574812 0.1687612     O
O     0.4359413 0.7574812 0.8312412     O
O     0.4359413 0.8312412 0.2425212     O
O     0.4359413 0.8312412 0.7574812     O
H       0.4379    0.106    0.324     H
H       0.4379    0.106    0.676     H
H       0.4379    0.176    0.394     H
H       0.4379    0.176    0.606     H
H       0.4379    0.324    0.106     H
H       0.4379    0.324    0.894     H
H       0.4379    0.394    0.176     H
H       0.4379    0.394    0.824     H
H       0.4379    0.606    0.176     H
H       0.4379    0.606    0.824     H
H       0.4379    0.676    0.106     H
H       0.4379    0.676    0.894     H
H       0.4379    0.824    0.394     H
H       0.4379    0.824    0.606     H
H       0.4379    0.894    0.324     H
H       0.4379    0.894    0.676     H
C     0.4429013 0.1530214 0.2696714     C
C     0.4429013 0.1530214 0.7303314     C
C     0.4429013 0.2303314 0.3469814     C
C     0.4429013 0.2303314 0.6530214     C
C     0.4429013 0.2696714 0.1530214     C
C     0.4429013 0.2696714 0.8469814     C
C     0.4429013 0.3469814 0.2303314     C
C     0.4429013 0.3469814 0.7696714     C
C     0.4429013 0.6530214 0.2303314     C
C     0.4429013 0.6530214 0.7696714     C
C     0.4429013 0.7303314 0.1530214     C
C     0.4429013 0.7303314 0.8469814     C
C     0.4429013 0.7696714 0.3469814     C
C     0.4429013 0.7696714 0.6530214     C
C     0.4429013 0.8469814 0.2696714     C
C     0.4429013 0.8469814 0.7303314     C
Zr    0.45475214 0.2181381 0.2181381    Zr
Zr    0.45475214 0.2181381 0.7818621    Zr
Zr    0.45475214 0.2818621 0.2818621    Zr
Zr    0.45475214 0.2818621 0.7181381    Zr
Zr    0.45475214 0.7181381 0.2818621    Zr
Zr    0.45475214 0.7181381 0.7181381    Zr
Zr    0.45475214 0.7818621 0.2181381    Zr
Zr    0.45475214 0.7818621 0.7818621    Zr
O      0.45522 0.2283314 0.2716714     O
O      0.45522 0.2283314 0.7283314     O
O      0.45522 0.2716714 0.2283314     O
O      0.45522 0.2716714 0.7716714     O
O      0.45522 0.7283314 0.2283314     O
O      0.45522 0.7283314 0.7716714     O
O      0.45522 0.7716714 0.2716714     O
O      0.45522 0.7716714 0.7283314     O
O      0.45664 0.1790312 0.1790312     O
O      0.45664 0.1790312 0.8209712     O
O      0.45664 0.3209712 0.3209712     O
O      0.45664 0.3209712 0.6790312     O
O      0.45664 0.6790312 0.3209712     O
O      0.45664 0.6790312 0.6790312     O
O      0.45664 0.8209712 0.1790312     O
O      0.45664 0.8209712 0.8209712     O
O     0.465788 0.160519 0.291009     O
O     0.465788 0.160519 0.709009     O
O     0.465788 0.209009 0.339499     O
O     0.465788 0.209009 0.660519     O
O     0.465788 0.291009 0.160519     O
O     0.465788 0.291009 0.839499     O
O     0.465788 0.339499 0.209009     O
O     0.465788 0.339499 0.791009     O
O     0.465788 0.660519 0.209009     O
O     0.465788 0.660519 0.791009     O
O     0.465788 0.709009 0.160519     O
O     0.465788 0.709009 0.839499     O
O     0.465788 0.791009 0.339499     O
O     0.465788 0.791009 0.660519     O
O     0.465788 0.839499 0.291009     O
O     0.465788 0.839499 0.709009     O
O          0.5  0.19642 0.2398616     O
O          0.5  0.19642 0.7601416     O
Zr         0.5 0.20544312 0.29455712    Zr
Zr         0.5 0.20544312 0.70544312    Zr
O          0.5 0.2398616  0.19642     O
O          0.5 0.2398616  0.80362     O
O          0.5 0.2601416  0.30362     O
O          0.5 0.2601416  0.69642     O
Zr         0.5 0.29455712 0.20544312    Zr
Zr         0.5 0.29455712 0.79455712    Zr
O          0.5  0.30362 0.2601416     O
O          0.5  0.30362 0.7398616     O
O          0.5  0.69642 0.2601416     O
O          0.5  0.69642 0.7398616     O
Zr         0.5 0.70544312 0.20544312    Zr
Zr         0.5 0.70544312 0.79455712    Zr
O          0.5 0.7398616  0.30362     O
O          0.5 0.7398616  0.69642     O
O          0.5 0.7601416  0.19642     O
O          0.5 0.7601416  0.80362     O
Zr         0.5 0.79455712 0.29455712    Zr
Zr         0.5 0.79455712 0.70544312    Zr
O          0.5  0.80362 0.2398616     O
O          0.5  0.80362 0.7601416     O
O     0.534228 0.160519 0.291009     O
O     0.534228 0.160519 0.709009     O
O     0.534228 0.209009 0.339499     O
O     0.534228 0.209009 0.660519     O
O     0.534228 0.291009 0.160519     O
O     0.534228 0.291009 0.839499     O
O     0.534228 0.339499 0.209009     O
O     0.534228 0.339499 0.791009     O
O     0.534228 0.660519 0.209009     O
O     0.534228 0.660519 0.791009     O
O     0.534228 0.709009 0.160519     O
O     0.534228 0.709009 0.839499     O
O     0.534228 0.791009 0.339499     O
O     0.534228 0.791009 0.660519     O
O     0.534228 0.839499 0.291009     O
O     0.534228 0.839499 0.709009     O
O      0.54344 0.1790312 0.1790312     O
O      0.54344 0.1790312 0.8209712     O
O      0.54344 0.3209712 0.3209712     O
O      0.54344 0.3209712 0.6790312     O
O      0.54344 0.6790312 0.3209712     O
O      0.54344 0.6790312 0.6790312     O
O      0.54344 0.8209712 0.1790312     O
O      0.54344 0.8209712 0.8209712     O
O      0.54482 0.2283314 0.2716714     O
O      0.54482 0.2283314 0.7283314     O
O      0.54482 0.2716714 0.2283314     O
O      0.54482 0.2716714 0.7716714     O
O      0.54482 0.7283314 0.2283314     O
O      0.54482 0.7283314 0.7716714     O
O      0.54482 0.7716714 0.2716714     O
O      0.54482 0.7716714 0.7283314     O
Zr    0.54524814 0.2181381 0.2181381    Zr
Zr    0.54524814 0.2181381 0.7818621    Zr
Zr    0.54524814 0.2818621 0.2818621    Zr
Zr    0.54524814 0.2818621 0.7181381    Zr
Zr    0.54524814 0.7181381 0.2818621    Zr
Zr    0.54524814 0.7181381 0.7181381    Zr
Zr    0.54524814 0.7818621 0.2181381    Zr
Zr    0.54524814 0.7818621 0.7818621    Zr
C     0.5571013 0.1530214 0.2696714     C
C     0.5571013 0.1530214 0.7303314     C
C     0.5571013 0.2303314 0.3469814     C
C     0.5571013 0.2303314 0.6530214     C
C     0.5571013 0.2696714 0.1530214     C
C     0.5571013 0.2696714 0.8469814     C
C     0.5571013 0.3469814 0.2303314     C
C     0.5571013 0.3469814 0.7696714     C
C     0.5571013 0.6530214 0.2303314     C
C     0.5571013 0.6530214 0.7696714     C
C     0.5571013 0.7303314 0.1530214     C
C     0.5571013 0.7303314 0.8469814     C
C     0.5571013 0.7696714 0.3469814     C
C     0.5571013 0.7696714 0.6530214     C
C     0.5571013 0.8469814 0.2696714     C
C     0.5571013 0.8469814 0.7303314     C
H       0.5621    0.106    0.324     H
H       0.5621    0.106    0.676     H
H       0.5621    0.176    0.394     H
H       0.5621    0.176    0.606     H
H       0.5621    0.324    0.106     H
H       0.5621    0.324    0.894     H
H       0.5621    0.394    0.176     H
H       0.5621    0.394    0.824     H
H       0.5621    0.606    0.176     H
H       0.5621    0.606    0.824     H
H       0.5621    0.676    0.106     H
H       0.5621    0.676    0.894     H
H       0.5621    0.824    0.394     H
H       0.5621    0.824    0.606     H
H       0.5621    0.894    0.324     H
H       0.5621    0.894    0.676     H
O     0.5640613 0.1687612 0.2425212     O
O     0.5640613 0.1687612 0.7574812     O
O     0.5640613 0.2425212 0.1687612     O
O     0.5640613 0.2425212 0.8312412     O
O     0.5640613 0.2574812 0.3312412     O
O     0.5640613 0.2574812 0.6687612     O
O     0.5640613 0.3312412 0.2574812     O
O     0.5640613 0.3312412 0.7425212     O
O     0.5640613 0.6687612 0.2574812     O
O     0.5640613 0.6687612 0.7425212     O
O     0.5640613 0.7425212 0.3312412     O
O     0.5640613 0.7425212 0.6687612     O
O     0.5640613 0.7574812 0.1687612     O
O     0.5640613 0.7574812 0.8312412     O
O     0.5640613 0.8312412 0.2425212     O
O     0.5640613 0.8312412 0.7574812     O
C      0.57792  0.10312  0.30642     C
C      0.57792  0.10312  0.69362     C
C      0.57792  0.19362  0.39692     C
C      0.57792  0.19362  0.60312     C
C      0.57792  0.30642  0.10312     C
C      0.57792  0.30642  0.89692     C
C      0.57792  0.39692  0.19362     C
C      0.57792  0.39692  0.80642     C
C      0.57792  0.60312  0.19362     C
C      0.57792  0.60312  0.80642     C
C      0.57792  0.69362  0.10312     C
C      0.57792  0.69362  0.89692     C
C      0.57792  0.80642  0.39692     C
C      0.57792  0.80642  0.60312     C
C      0.57792  0.89692  0.30642     C
C      0.57792  0.89692  0.69362     C
C     0.5788016 0.1231616 0.2779417     C
C     0.5788016 0.1231616 0.7220617     C
C     0.5788016 0.2220617 0.3768416     C
C     0.5788016 0.2220617 0.6231616     C
C     0.5788016 0.2779417 0.1231616     C
C     0.5788016 0.2779417 0.8768416     C
C     0.5788016 0.3768416 0.2220617     C
C     0.5788016 0.3768416 0.7779417     C
C     0.5788016 0.6231616 0.2220617     C
C     0.5788016 0.6231616 0.7779417     C
C     0.5788016 0.7220617 0.1231616     C
C     0.5788016 0.7220617 0.8768416     C
C     0.5788016 0.7779417 0.3768416     C
C     0.5788016 0.7779417 0.6231616     C
C     0.5788016 0.8768416 0.2779417     C
C     0.5788016 0.8768416 0.7220617     C
O     0.6007016  0.22252  0.22252     O
O     0.6007016  0.22252  0.77752     O
O     0.6007016  0.27752  0.27752     O
O     0.6007016  0.27752  0.72252     O
O     0.6007016  0.72252  0.27752     O
O     0.6007016  0.72252  0.72252     O
O     0.6007016  0.77752  0.22252     O
O     0.6007016  0.77752  0.77752     O
C      0.60312  0.07792  0.30642     C
C      0.60312  0.07792  0.69362     C
C      0.60312  0.19362  0.42212     C
C      0.60312  0.19362  0.57792     C
C      0.60312  0.30642  0.07792     C
C      0.60312  0.30642  0.92212     C
C      0.60312  0.42212  0.19362     C
C      0.60312  0.42212  0.80642     C
C      0.60312  0.57792  0.19362     C
C      0.60312  0.57792  0.80642     C
C      0.60312  0.69362  0.07792     C
C      0.60312  0.69362  0.92212     C
C      0.60312  0.80642  0.42212     C
C      0.60312  0.80642  0.57792     C
C      0.60312  0.92212  0.30642     C
C      0.60312  0.92212  0.69362     C
H        0.606   0.0621    0.324     H
H        0.606   0.0621    0.676     H
H        0.606    0.176   0.4379     H
H        0.606    0.176   0.5621     H
H        0.606    0.324   0.0621     H
H        0.606    0.324   0.9379     H
H        0.606   0.4379    0.176     H
H        0.606   0.4379    0.824     H
H        0.606   0.5621    0.176     H
H        0.606   0.5621    0.824     H
H        0.606    0.676   0.0621     H
H        0.606    0.676   0.9379     H
H        0.606    0.824   0.4379     H
H        0.606    0.824   0.5621     H
H        0.606   0.9379    0.324     H
H        0.606   0.9379    0.676     H
S     0.611325 0.111325 0.251226     S
S     0.611325 0.111325 0.748786     S
S     0.611325 0.248786 0.388685     S
S     0.611325 0.248786 0.611325     S
S     0.611325 0.251226 0.111325     S
S     0.611325 0.251226 0.888685     S
S     0.611325 0.388685 0.248786     S
S     0.611325 0.388685 0.751226     S
S     0.611325 0.611325 0.248786     S
S     0.611325 0.611325 0.751226     S
S     0.611325 0.748786 0.111325     S
S     0.611325 0.748786 0.888685     S
S     0.611325 0.751226 0.388685     S
S     0.611325 0.751226 0.611325     S
S     0.611325 0.888685 0.251226     S
S     0.611325 0.888685 0.748786     S
C     0.6231616 0.0788016 0.2779417     C
C     0.6231616 0.0788016 0.7220617     C
C     0.6231616 0.2220617 0.4212016     C
C     0.6231616 0.2220617 0.5788016     C
C     0.6231616 0.2779417 0.0788016     C
C     0.6231616 0.2779417 0.9212016     C
C     0.6231616 0.4212016 0.2220617     C
C     0.6231616 0.4212016 0.7779417     C
C     0.6231616 0.5788016 0.2220617     C
C     0.6231616 0.5788016 0.7779417     C
C     0.6231616 0.7220617 0.0788016     C
C     0.6231616 0.7220617 0.9212016     C
C     0.6231616 0.7779417 0.4212016     C
C     0.6231616 0.7779417 0.5788016     C
C     0.6231616 0.9212016 0.2779417     C
C     0.6231616 0.9212016 0.7220617     C
C     0.6530214 0.0571013 0.2696714     C
C     0.6530214 0.0571013 0.7303314     C
C     0.6530214 0.2303314 0.4429013     C
C     0.6530214 0.2303314 0.5571013     C
C     0.6530214 0.2696714 0.0571013     C
C     0.6530214 0.2696714 0.9429013     C
C     0.6530214 0.4429013 0.2303314     C
C     0.6530214 0.4429013 0.7696714     C
C     0.6530214 0.5571013 0.2303314     C
C     0.6530214 0.5571013 0.7696714     C
C     0.6530214 0.7303314 0.0571013     C
C     0.6530214 0.7303314 0.9429013     C
C     0.6530214 0.7696714 0.4429013     C
C     0.6530214 0.7696714 0.5571013     C
C     0.6530214 0.9429013 0.2696714     C
C     0.6530214 0.9429013 0.7303314     C
O     0.660519 0.034228 0.291009     O
O     0.660519 0.034228 0.709009     O
O     0.660519 0.209009 0.465788     O
O     0.660519 0.209009 0.534228     O
O     0.660519 0.291009 0.034228     O
O     0.660519 0.291009 0.965788     O
O     0.660519 0.465788 0.209009     O
O     0.660519 0.465788 0.791009     O
O     0.660519 0.534228 0.209009     O
O     0.660519 0.534228 0.791009     O
O     0.660519 0.709009 0.034228     O
O     0.660519 0.709009 0.965788     O
O     0.660519 0.791009 0.465788     O
O     0.660519 0.791009 0.534228     O
O     0.660519 0.965788 0.291009     O
O     0.660519 0.965788 0.709009     O
O     0.6687612 0.0640613 0.2425212     O
O     0.6687612 0.0640613 0.7574812     O
O     0.6687612 0.2425212 0.0640613     O
O     0.6687612 0.2425212 0.9359413     O
O     0.6687612 0.2574812 0.4359413     O
O     0.6687612 0.2574812 0.5640613     O
O     0.6687612 0.4359413 0.2574812     O
O     0.6687612 0.4359413 0.7425212     O
O     0.6687612 0.5640613 0.2574812     O
O     0.6687612 0.5640613 0.7425212     O
O     0.6687612 0.7425212 0.4359413     O
O     0.6687612 0.7425212 0.5640613     O
O     0.6687612 0.7574812 0.0640613     O
O     0.6687612 0.7574812 0.9359413     O
O     0.6687612 0.9359413 0.2425212     O
O     0.6687612 0.9359413 0.7574812     O
H        0.676   0.0621    0.394     H
H        0.676   0.0621    0.606     H
H        0.676    0.106   0.4379     H
H        0.676    0.106   0.5621     H
H        0.676    0.394   0.0621     H
H        0.676    0.394   0.9379     H
H        0.676   0.4379    0.106     H
H        0.676   0.4379    0.894     H
H        0.676   0.5621    0.106     H
H        0.676   0.5621    0.894     H
H        0.676    0.606   0.0621     H
H        0.676    0.606   0.9379     H
H        0.676    0.894   0.4379     H
H        0.676    0.894   0.5621     H
H        0.676   0.9379    0.394     H
H        0.676   0.9379    0.606     H
O     0.6790312  0.04344 0.1790312     O
O     0.6790312  0.04344 0.8209712     O
O     0.6790312 0.1790312  0.04344     O
O     0.6790312 0.1790312  0.95664     O
O     0.6790312 0.3209712  0.45664     O
O     0.6790312 0.3209712  0.54344     O
O     0.6790312  0.45664 0.3209712     O
O     0.6790312  0.45664 0.6790312     O
O     0.6790312  0.54344 0.3209712     O
O     0.6790312  0.54344 0.6790312     O
O     0.6790312 0.6790312  0.45664     O
O     0.6790312 0.6790312  0.54344     O
O     0.6790312 0.8209712  0.04344     O
O     0.6790312 0.8209712  0.95664     O
O     0.6790312  0.95664 0.1790312     O
O     0.6790312  0.95664 0.8209712     O
C      0.69362  0.07792  0.39692     C
C      0.69362  0.07792  0.60312     C
C      0.69362  0.10312  0.42212     C
C      0.69362  0.10312  0.57792     C
C      0.69362  0.39692  0.07792     C
C      0.69362  0.39692  0.92212     C
C      0.69362  0.42212  0.10312     C
C      0.69362  0.42212  0.89692     C
C      0.69362  0.57792  0.10312     C
C      0.69362  0.57792  0.89692     C
C      0.69362  0.60312  0.07792     C
C      0.69362  0.60312  0.92212     C
C      0.69362  0.89692  0.42212     C
C      0.69362  0.89692  0.57792     C
C      0.69362  0.92212  0.39692     C
C      0.69362  0.92212  0.60312     C
O      0.69642      0.0 0.2398616     O
O      0.69642      0.0 0.7601416     O
O      0.69642 0.2398616      0.0     O
O      0.69642 0.2601416      0.5     O
O      0.69642      0.5 0.2601416     O
O      0.69642      0.5 0.7398616     O
O      0.69642 0.7398616      0.5     O
O      0.69642 0.7601416      0.0     O
Zr    0.70544312      0.0 0.29455712    Zr
Zr    0.70544312      0.0 0.70544312    Zr
Zr    0.70544312 0.20544312      0.5    Zr
Zr    0.70544312 0.29455712      0.0    Zr
Zr    0.70544312      0.5 0.20544312    Zr
Zr    0.70544312      0.5 0.79455712    Zr
Zr    0.70544312 0.70544312      0.0    Zr
Zr    0.70544312 0.79455712      0.5    Zr
O     0.709009 0.034228 0.339499     O
O     0.709009 0.034228 0.660519     O
O     0.709009 0.160519 0.465788     O
O     0.709009 0.160519 0.534228     O
O     0.709009 0.339499 0.034228     O
O     0.709009 0.339499 0.965788     O
O     0.709009 0.465788 0.160519     O
O     0.709009 0.465788 0.839499     O
O     0.709009 0.534228 0.160519     O
O     0.709009 0.534228 0.839499     O
O     0.709009 0.660519 0.034228     O
O     0.709009 0.660519 0.965788     O
O     0.709009 0.839499 0.465788     O
O     0.709009 0.839499 0.534228     O
O     0.709009 0.965788 0.339499     O
O     0.709009 0.965788 0.660519     O
Zr    0.7181381 0.04524814 0.2181381    Zr
Zr    0.7181381 0.04524814 0.7818621    Zr
Zr    0.7181381 0.2181381 0.04524814    Zr
Zr    0.7181381 0.2181381 0.95475214    Zr
Zr    0.7181381 0.2818621 0.45475214    Zr
Zr    0.7181381 0.2818621 0.54524814    Zr
Zr    0.7181381 0.45475214 0.2818621    Zr
Zr    0.7181381 0.45475214 0.7181381    Zr
Zr    0.7181381 0.54524814 0.2818621    Zr
Zr    0.7181381 0.54524814 0.7181381    Zr
Zr    0.7181381 0.7181381 0.45475214    Zr
Zr    0.7181381 0.7181381 0.54524814    Zr
Zr    0.7181381 0.7818621 0.04524814    Zr
Zr    0.7181381 0.7818621 0.95475214    Zr
Zr    0.7181381 0.95475214 0.2181381    Zr
Zr    0.7181381 0.95475214 0.7818621    Zr
C     0.7220617 0.0788016 0.3768416     C
C     0.7220617 0.0788016 0.6231616     C
C     0.7220617 0.1231616 0.4212016     C
C     0.7220617 0.1231616 0.5788016     C
C     0.7220617 0.3768416 0.0788016     C
C     0.7220617 0.3768416 0.9212016     C
C     0.7220617 0.4212016 0.1231616     C
C     0.7220617 0.4212016 0.8768416     C
C     0.7220617 0.5788016 0.1231616     C
C     0.7220617 0.5788016 0.8768416     C
C     0.7220617 0.6231616 0.0788016     C
C     0.7220617 0.6231616 0.9212016     C
C     0.7220617 0.8768416 0.4212016     C
C     0.7220617 0.8768416 0.5788016     C
C     0.7220617 0.9212016 0.3768416     C
C     0.7220617 0.9212016 0.6231616     C
O      0.72252 0.1007016  0.22252     O
O      0.72252 0.1007016  0.77752     O
O      0.72252  0.22252 0.1007016     O
O      0.72252  0.22252 0.8993016     O
O      0.72252  0.27752 0.3993016     O
O      0.72252  0.27752 0.6007016     O
O      0.72252 0.3993016  0.27752     O
O      0.72252 0.3993016  0.72252     O
O      0.72252 0.6007016  0.27752     O
O      0.72252 0.6007016  0.72252     O
O      0.72252  0.72252 0.3993016     O
O      0.72252  0.72252 0.6007016     O
O      0.72252  0.77752 0.1007016     O
O      0.72252  0.77752 0.8993016     O
O      0.72252 0.8993016  0.22252     O
O      0.72252 0.8993016  0.77752     O
O     0.7283314  0.04482 0.2716714     O
O     0.7283314  0.04482 0.7283314     O
O     0.7283314 0.2283314  0.45522     O
O     0.7283314 0.2283314  0.54482     O
O     0.7283314 0.2716714  0.04482     O
O     0.7283314 0.2716714  0.95522     O
O     0.7283314  0.45522 0.2283314     O
O     0.7283314  0.45522 0.7716714     O
O     0.7283314  0.54482 0.2283314     O
O     0.7283314  0.54482 0.7716714     O
O     0.7283314 0.7283314  0.04482     O
O     0.7283314 0.7283314  0.95522     O
O     0.7283314 0.7716714  0.45522     O
O     0.7283314 0.7716714  0.54482     O
O     0.7283314  0.95522 0.2716714     O
O     0.7283314  0.95522 0.7283314     O
C     0.7303314 0.0571013 0.3469814     C
C     0.7303314 0.0571013 0.6530214     C
C     0.7303314 0.1530214 0.4429013     C
C     0.7303314 0.1530214 0.5571013     C
C     0.7303314 0.3469814 0.0571013     C
C     0.7303314 0.3469814 0.9429013     C
C     0.7303314 0.4429013 0.1530214     C
C     0.7303314 0.4429013 0.8469814     C
C     0.7303314 0.5571013 0.1530214     C
C     0.7303314 0.5571013 0.8469814     C
C     0.7303314 0.6530214 0.0571013     C
C     0.7303314 0.6530214 0.9429013     C
C     0.7303314 0.8469814 0.4429013     C
C     0.7303314 0.8469814 0.5571013     C
C     0.7303314 0.9429013 0.3469814     C
C     0.7303314 0.9429013 0.6530214     C
O     0.7398616      0.0  0.19642     O
O     0.7398616      0.0  0.80362     O
O     0.7398616  0.19642      0.0     O
O     0.7398616  0.30362      0.5     O
O     0.7398616      0.5  0.30362     O
O     0.7398616      0.5  0.69642     O
O     0.7398616  0.69642      0.5     O
O     0.7398616  0.80362      0.0     O
O     0.7425212 0.0640613 0.1687612     O
O     0.7425212 0.0640613 0.8312412     O
O     0.7425212 0.1687612 0.0640613     O
O     0.7425212 0.1687612 0.9359413     O
O     0.7425212 0.3312412 0.4359413     O
O     0.7425212 0.3312412 0.5640613     O
O     0.7425212 0.4359413 0.3312412     O
O     0.7425212 0.4359413 0.6687612     O
O     0.7425212 0.5640613 0.3312412     O
O     0.7425212 0.5640613 0.6687612     O
O     0.7425212 0.6687612 0.4359413     O
O     0.7425212 0.6687612 0.5640613     O
O     0.7425212 0.8312412 0.0640613     O
O     0.7425212 0.8312412 0.9359413     O
O     0.7425212 0.9359413 0.1687612     O
O     0.7425212 0.9359413 0.8312412     O
S     0.748786 0.111325 0.388685     S
S     0.748786 0.111325 0.611325     S
S     0.748786 0.388685 0.111325     S
S     0.748786 0.388685 0.888685     S
S     0.748786 0.611325 0.111325     S
S     0.748786 0.611325 0.888685     S
S     0.748786 0.888685 0.388685     S
S     0.748786 0.888685 0.611325     S
S     0.751226 0.111325 0.111325     S
S     0.751226 0.111325 0.888685     S
S     0.751226 0.388685 0.388685     S
S     0.751226 0.388685 0.611325     S
S     0.751226 0.611325 0.388685     S
S     0.751226 0.611325 0.611325     S
S     0.751226 0.888685 0.111325     S
S     0.751226 0.888685 0.888685     S
O     0.7574812 0.0640613 0.3312412     O
O     0.7574812 0.0640613 0.6687612     O
O     0.7574812 0.1687612 0.4359413     O
O     0.7574812 0.1687612 0.5640613     O
O     0.7574812 0.3312412 0.0640613     O
O     0.7574812 0.3312412 0.9359413     O
O     0.7574812 0.4359413 0.1687612     O
O     0.7574812 0.4359413 0.8312412     O
O     0.7574812 0.5640613 0.1687612     O
O     0.7574812 0.5640613 0.8312412     O
O     0.7574812 0.6687612 0.0640613     O
O     0.7574812 0.6687612 0.9359413     O
O     0.7574812 0.8312412 0.4359413     O
O     0.7574812 0.8312412 0.5640613     O
O     0.7574812 0.9359413 0.3312412     O
O     0.7574812 0.9359413 0.6687612     O
O     0.7601416      0.0  0.30362     O
O     0.7601416      0.0  0.69642     O
O     0.7601416  0.19642      0.5     O
O     0.7601416  0.30362      0.0     O
O     0.7601416      0.5  0.19642     O
O     0.7601416      0.5  0.80362     O
O     0.7601416  0.69642      0.0     O
O     0.7601416  0.80362      0.5     O
C     0.7696714 0.0571013 0.1530214     C
C     0.7696714 0.0571013 0.8469814     C
C     0.7696714 0.1530214 0.0571013     C
C     0.7696714 0.1530214 0.9429013     C
C     0.7696714 0.3469814 0.4429013     C
C     0.7696714 0.3469814 0.5571013     C
C     0.7696714 0.4429013 0.3469814     C
C     0.7696714 0.4429013 0.6530214     C
C     0.7696714 0.5571013 0.3469814     C
C     0.7696714 0.5571013 0.6530214     C
C     0.7696714 0.6530214 0.4429013     C
C     0.7696714 0.6530214 0.5571013     C
C     0.7696714 0.8469814 0.0571013     C
C     0.7696714 0.8469814 0.9429013     C
C     0.7696714 0.9429013 0.1530214     C
C     0.7696714 0.9429013 0.8469814     C
O     0.7716714  0.04482 0.2283314     O
O     0.7716714  0.04482 0.7716714     O
O     0.7716714 0.2283314  0.04482     O
O     0.7716714 0.2283314  0.95522     O
O     0.7716714 0.2716714  0.45522     O
O     0.7716714 0.2716714  0.54482     O
O     0.7716714  0.45522 0.2716714     O
O     0.7716714  0.45522 0.7283314     O
O     0.7716714  0.54482 0.2716714     O
O     0.7716714  0.54482 0.7283314     O
O     0.7716714 0.7283314  0.45522     O
O     0.7716714 0.7283314  0.54482     O
O     0.7716714 0.7716714  0.04482     O
O     0.7716714 0.7716714  0.95522     O
O     0.7716714  0.95522 0.2283314     O
O     0.7716714  0.95522 0.7716714     O
O      0.77752 0.1007016  0.27752     O
O      0.77752 0.1007016  0.72252     O
O      0.77752  0.22252 0.3993016     O
O      0.77752  0.22252 0.6007016     O
O      0.77752  0.27752 0.1007016     O
O      0.77752  0.27752 0.8993016     O
O      0.77752 0.3993016  0.22252     O
O      0.77752 0.3993016  0.77752     O
O      0.77752 0.6007016  0.22252     O
O      0.77752 0.6007016  0.77752     O
O      0.77752  0.72252 0.1007016     O
O      0.77752  0.72252 0.8993016     O
O      0.77752  0.77752 0.3993016     O
O      0.77752  0.77752 0.6007016     O
O      0.77752 0.8993016  0.27752     O
O      0.77752 0.8993016  0.72252     O
C     0.7779417 0.0788016 0.1231616     C
C     0.7779417 0.0788016 0.8768416     C
C     0.7779417 0.1231616 0.0788016     C
C     0.7779417 0.1231616 0.9212016     C
C     0.7779417 0.3768416 0.4212016     C
C     0.7779417 0.3768416 0.5788016     C
C     0.7779417 0.4212016 0.3768416     C
C     0.7779417 0.4212016 0.6231616     C
C     0.7779417 0.5788016 0.3768416     C
C     0.7779417 0.5788016 0.6231616     C
C     0.7779417 0.6231616 0.4212016     C
C     0.7779417 0.6231616 0.5788016     C
C     0.7779417 0.8768416 0.0788016     C
C     0.7779417 0.8768416 0.9212016     C
C     0.7779417 0.9212016 0.1231616     C
C     0.7779417 0.9212016 0.8768416     C
Zr    0.7818621 0.04524814 0.2818621    Zr
Zr    0.7818621 0.04524814 0.7181381    Zr
Zr    0.7818621 0.2181381 0.45475214    Zr
Zr    0.7818621 0.2181381 0.54524814    Zr
Zr    0.7818621 0.2818621 0.04524814    Zr
Zr    0.7818621 0.2818621 0.95475214    Zr
Zr    0.7818621 0.45475214 0.2181381    Zr
Zr    0.7818621 0.45475214 0.7818621    Zr
Zr    0.7818621 0.54524814 0.2181381    Zr
Zr    0.7818621 0.54524814 0.7818621    Zr
Zr    0.7818621 0.7181381 0.04524814    Zr
Zr    0.7818621 0.7181381 0.95475214    Zr
Zr    0.7818621 0.7818621 0.45475214    Zr
Zr    0.7818621 0.7818621 0.54524814    Zr
Zr    0.7818621 0.95475214 0.2818621    Zr
Zr    0.7818621 0.95475214 0.7181381    Zr
O     0.791009 0.034228 0.160519     O
O     0.791009 0.034228 0.839499     O
O     0.791009 0.160519 0.034228     O
O     0.791009 0.160519 0.965788     O
O     0.791009 0.339499 0.465788     O
O     0.791009 0.339499 0.534228     O
O     0.791009 0.465788 0.339499     O
O     0.791009 0.465788 0.660519     O
O     0.791009 0.534228 0.339499     O
O     0.791009 0.534228 0.660519     O
O     0.791009 0.660519 0.465788     O
O     0.791009 0.660519 0.534228     O
O     0.791009 0.839499 0.034228     O
O     0.791009 0.839499 0.965788     O
O     0.791009 0.965788 0.160519     O
O     0.791009 0.965788 0.839499     O
Zr    0.79455712      0.0 0.20544312    Zr
Zr    0.79455712      0.0 0.79455712    Zr
Zr    0.79455712 0.20544312      0.0    Zr
Zr    0.79455712 0.29455712      0.5    Zr
Zr    0.79455712      0.5 0.29455712    Zr
Zr    0.79455712      0.5 0.70544312    Zr
Zr    0.79455712 0.70544312      0.5    Zr
Zr    0.79455712 0.79455712      0.0    Zr
O      0.80362      0.0 0.2601416     O
O      0.80362      0.0 0.7398616     O
O      0.80362 0.2398616      0.5     O
O      0.80362 0.2601416      0.0     O
O      0.80362      0.5 0.2398616     O
O      0.80362      0.5 0.7601416     O
O      0.80362 0.7398616      0.0     O
O      0.80362 0.7601416      0.5     O
C      0.80642  0.07792  0.10312     C
C      0.80642  0.07792  0.89692     C
C      0.80642  0.10312  0.07792     C
C      0.80642  0.10312  0.92212     C
C      0.80642  0.39692  0.42212     C
C      0.80642  0.39692  0.57792     C
C      0.80642  0.42212  0.39692     C
C      0.80642  0.42212  0.60312     C
C      0.80642  0.57792  0.39692     C
C      0.80642  0.57792  0.60312     C
C      0.80642  0.60312  0.42212     C
C      0.80642  0.60312  0.57792     C
C      0.80642  0.89692  0.07792     C
C      0.80642  0.89692  0.92212     C
C      0.80642  0.92212  0.10312     C
C      0.80642  0.92212  0.89692     C
O     0.8209712  0.04344 0.3209712     O
O     0.8209712  0.04344 0.6790312     O
O     0.8209712 0.1790312  0.45664     O
O     0.8209712 0.1790312  0.54344     O
O     0.8209712 0.3209712  0.04344     O
O     0.8209712 0.3209712  0.95664     O
O     0.8209712  0.45664 0.1790312     O
O     0.8209712  0.45664 0.8209712     O
O     0.8209712  0.54344 0.1790312     O
O     0.8209712  0.54344 0.8209712     O
O     0.8209712 0.6790312  0.04344     O
O     0.8209712 0.6790312  0.95664     O
O     0.8209712 0.8209712  0.45664     O
O     0.8209712 0.8209712  0.54344     O
O     0.8209712  0.95664 0.3209712     O
O     0.8209712  0.95664 0.6790312     O
H        0.824   0.0621    0.106     H
H        0.824   0.0621    0.894     H
H        0.824    0.106   0.0621     H
H        0.824    0.106   0.9379     H
H        0.824    0.394   0.4379     H
H        0.824    0.394   0.5621     H
H        0.824   0.4379    0.394     H
H        0.824   0.4379    0.606     H
H        0.824   0.5621    0.394     H
H        0.824   0.5621    0.606     H
H        0.824    0.606   0.4379     H
H        0.824    0.606   0.5621     H
H        0.824    0.894   0.0621     H
H        0.824    0.894   0.9379     H
H        0.824   0.9379    0.106     H
H        0.824   0.9379    0.894     H
O     0.8312412 0.0640613 0.2574812     O
O     0.8312412 0.0640613 0.7425212     O
O     0.8312412 0.2425212 0.4359413     O
O     0.8312412 0.2425212 0.5640613     O
O     0.8312412 0.2574812 0.0640613     O
O     0.8312412 0.2574812 0.9359413     O
O     0.8312412 0.4359413 0.2425212     O
O     0.8312412 0.4359413 0.7574812     O
O     0.8312412 0.5640613 0.2425212     O
O     0.8312412 0.5640613 0.7574812     O
O     0.8312412 0.7425212 0.0640613     O
O     0.8312412 0.7425212 0.9359413     O
O     0.8312412 0.7574812 0.4359413     O
O     0.8312412 0.7574812 0.5640613     O
O     0.8312412 0.9359413 0.2574812     O
O     0.8312412 0.9359413 0.7425212     O
O     0.839499 0.034228 0.209009     O
O     0.839499 0.034228 0.791009     O
O     0.839499 0.209009 0.034228     O
O     0.839499 0.209009 0.965788     O
O     0.839499 0.291009 0.465788     O
O     0.839499 0.291009 0.534228     O
O     0.839499 0.465788 0.291009     O
O     0.839499 0.465788 0.709009     O
O     0.839499 0.534228 0.291009     O
O     0.839499 0.534228 0.709009     O
O     0.839499 0.709009 0.465788     O
O     0.839499 0.709009 0.534228     O
O     0.839499 0.791009 0.034228     O
O     0.839499 0.791009 0.965788     O
O     0.839499 0.965788 0.209009     O
O     0.839499 0.965788 0.791009     O
C     0.8469814 0.0571013 0.2303314     C
C     0.8469814 0.0571013 0.7696714     C
C     0.8469814 0.2303314 0.0571013     C
C     0.8469814 0.2303314 0.9429013     C
C     0.8469814 0.2696714 0.4429013     C
C     0.8469814 0.2696714 0.5571013     C
C     0.8469814 0.4429013 0.2696714     C
C     0.8469814 0.4429013 0.7303314     C
C     0.8469814 0.5571013 0.2696714     C
C     0.8469814 0.5571013 0.7303314     C
C     0.8469814 0.7303314 0.4429013     C
C     0.8469814 0.7303314 0.5571013     C
C     0.8469814 0.7696714 0.0571013     C
C     0.8469814 0.7696714 0.9429013     C
C     0.8469814 0.9429013 0.2303314     C
C     0.8469814 0.9429013 0.7696714     C
C     0.8768416 0.0788016 0.2220617     C
C     0.8768416 0.0788016 0.7779417     C
C     0.8768416 0.2220617 0.0788016     C
C     0.8768416 0.2220617 0.9212016     C
C     0.8768416 0.2779417 0.4212016     C
C     0.8768416 0.2779417 0.5788016     C
C     0.8768416 0.4212016 0.2779417     C
C     0.8768416 0.4212016 0.7220617     C
C     0.8768416 0.5788016 0.2779417     C
C     0.8768416 0.5788016 0.7220617     C
C     0.8768416 0.7220617 0.4212016     C
C     0.8768416 0.7220617 0.5788016     C
C     0.8768416 0.7779417 0.0788016     C
C     0.8768416 0.7779417 0.9212016     C
C     0.8768416 0.9212016 0.2220617     C
C     0.8768416 0.9212016 0.7779417     C
S     0.888685 0.111325 0.248786     S
S     0.888685 0.111325 0.751226     S
S     0.888685 0.248786 0.111325     S
S     0.888685 0.248786 0.888685     S
S     0.888685 0.251226 0.388685     S
S     0.888685 0.251226 0.611325     S
S     0.888685 0.388685 0.251226     S
S     0.888685 0.388685 0.748786     S
S     0.888685 0.611325 0.251226     S
S     0.888685 0.611325 0.748786     S
S     0.888685 0.748786 0.388685     S
S     0.888685 0.748786 0.611325     S
S     0.888685 0.751226 0.111325     S
S     0.888685 0.751226 0.888685     S
S     0.888685 0.888685 0.248786     S
S     0.888685 0.888685 0.751226     S
H        0.894   0.0621    0.176     H
H        0.894   0.0621    0.824     H
H        0.894    0.176   0.0621     H
H        0.894    0.176   0.9379     H
H        0.894    0.324   0.4379     H
H        0.894    0.324   0.5621     H
H        0.894   0.4379    0.324     H
H        0.894   0.4379    0.676     H
H        0.894   0.5621    0.324     H
H        0.894   0.5621    0.676     H
H        0.894    0.676   0.4379     H
H        0.894    0.676   0.5621     H
H        0.894    0.824   0.0621     H
H        0.894    0.824   0.9379     H
H        0.894   0.9379    0.176     H
H        0.894   0.9379    0.824     H
C      0.89692  0.07792  0.19362     C
C      0.89692  0.07792  0.80642     C
C      0.89692  0.19362  0.07792     C
C      0.89692  0.19362  0.92212     C
C      0.89692  0.30642  0.42212     C
C      0.89692  0.30642  0.57792     C
C      0.89692  0.42212  0.30642     C
C      0.89692  0.42212  0.69362     C
C      0.89692  0.57792  0.30642     C
C      0.89692  0.57792  0.69362     C
C      0.89692  0.69362  0.42212     C
C      0.89692  0.69362  0.57792     C
C      0.89692  0.80642  0.07792     C
C      0.89692  0.80642  0.92212     C
C      0.89692  0.92212  0.19362     C
C      0.89692  0.92212  0.80642     C
O     0.8993016  0.22252  0.27752     O
O     0.8993016  0.22252  0.72252     O
O     0.8993016  0.27752  0.22252     O
O     0.8993016  0.27752  0.77752     O
O     0.8993016  0.72252  0.22252     O
O     0.8993016  0.72252  0.77752     O
O     0.8993016  0.77752  0.27752     O
O     0.8993016  0.77752  0.72252     O
C     0.9212016 0.1231616 0.2220617     C
C     0.9212016 0.1231616 0.7779417     C
C     0.9212016 0.2220617 0.1231616     C
C     0.9212016 0.2220617 0.8768416     C
C     0.9212016 0.2779417 0.3768416     C
C     0.9212016 0.2779417 0.6231616     C
C     0.9212016 0.3768416 0.2779417     C
C     0.9212016 0.3768416 0.7220617     C
C     0.9212016 0.6231616 0.2779417     C
C     0.9212016 0.6231616 0.7220617     C
C     0.9212016 0.7220617 0.3768416     C
C     0.9212016 0.7220617 0.6231616     C
C     0.9212016 0.7779417 0.1231616     C
C     0.9212016 0.7779417 0.8768416     C
C     0.9212016 0.8768416 0.2220617     C
C     0.9212016 0.8768416 0.7779417     C
C      0.92212  0.10312  0.19362     C
C      0.92212  0.10312  0.80642     C
C      0.92212  0.19362  0.10312     C
C      0.92212  0.19362  0.89692     C
C      0.92212  0.30642  0.39692     C
C      0.92212  0.30642  0.60312     C
C      0.92212  0.39692  0.30642     C
C      0.92212  0.39692  0.69362     C
C      0.92212  0.60312  0.30642     C
C      0.92212  0.60312  0.69362     C
C      0.92212  0.69362  0.39692     C
C      0.92212  0.69362  0.60312     C
C      0.92212  0.80642  0.10312     C
C      0.92212  0.80642  0.89692     C
C      0.92212  0.89692  0.19362     C
C      0.92212  0.89692  0.80642     C
O     0.9359413 0.1687612 0.2574812     O
O     0.9359413 0.1687612 0.7425212     O
O     0.9359413 0.2425212 0.3312412     O
O     0.9359413 0.2425212 0.6687612     O
O     0.9359413 0.2574812 0.1687612     O
O     0.9359413 0.2574812 0.8312412     O
O     0.9359413 0.3312412 0.2425212     O
O     0.9359413 0.3312412 0.7574812     O
O     0.9359413 0.6687612 0.2425212     O
O     0.9359413 0.6687612 0.7574812     O
O     0.9359413 0.7425212 0.1687612     O
O     0.9359413 0.7425212 0.8312412     O
O     0.9359413 0.7574812 0.3312412     O
O     0.9359413 0.7574812 0.6687612     O
O     0.9359413 0.8312412 0.2574812     O
O     0.9359413 0.8312412 0.7425212     O
H       0.9379    0.106    0.176     H
H       0.9379    0.106    0.824     H
H       0.9379    0.176    0.106     H
H       0.9379    0.176    0.894     H
H       0.9379    0.324    0.394     H
H       0.9379    0.324    0.606     H
H       0.9379    0.394    0.324     H
H       0.9379    0.394    0.676     H
H       0.9379    0.606    0.324     H
H       0.9379    0.606    0.676     H
H       0.9379    0.676    0.394     H
H       0.9379    0.676    0.606     H
H       0.9379    0.824    0.106     H
H       0.9379    0.824    0.894     H
H       0.9379    0.894    0.176     H
H       0.9379    0.894    0.824     H
C     0.9429013 0.1530214 0.2303314     C
C     0.9429013 0.1530214 0.7696714     C
C     0.9429013 0.2303314 0.1530214     C
C     0.9429013 0.2303314 0.8469814     C
C     0.9429013 0.2696714 0.3469814     C
C     0.9429013 0.2696714 0.6530214     C
C     0.9429013 0.3469814 0.2696714     C
C     0.9429013 0.3469814 0.7303314     C
C     0.9429013 0.6530214 0.2696714     C
C     0.9429013 0.6530214 0.7303314     C
C     0.9429013 0.7303314 0.3469814     C
C     0.9429013 0.7303314 0.6530214     C
C     0.9429013 0.7696714 0.1530214     C
C     0.9429013 0.7696714 0.8469814     C
C     0.9429013 0.8469814 0.2303314     C
C     0.9429013 0.8469814 0.7696714     C
Zr    0.95475214 0.2181381 0.2818621    Zr
Zr    0.95475214 0.2181381 0.7181381    Zr
Zr    0.95475214 0.2818621 0.2181381    Zr
Zr    0.95475214 0.2818621 0.7818621    Zr
Zr    0.95475214 0.7181381 0.2181381    Zr
Zr    0.95475214 0.7181381 0.7818621    Zr
Zr    0.95475214 0.7818621 0.2818621    Zr
Zr    0.95475214 0.7818621 0.7181381    Zr
O      0.95522 0.2283314 0.2283314     O
O      0.95522 0.2283314 0.7716714     O
O      0.95522 0.2716714 0.2716714     O
O      0.95522 0.2716714 0.7283314     O
O      0.95522 0.7283314 0.2716714     O
O      0.95522 0.7283314 0.7283314     O
O      0.95522 0.7716714 0.2283314     O
O      0.95522 0.7716714 0.7716714     O
O      0.95664 0.1790312 0.3209712     O
O      0.95664 0.1790312 0.6790312     O
O      0.95664 0.3209712 0.1790312     O
O      0.95664 0.3209712 0.8209712     O
O      0.95664 0.6790312 0.1790312     O
O      0.95664 0.6790312 0.8209712     O
O      0.95664 0.8209712 0.3209712     O
O      0.95664 0.8209712 0.6790312     O
O     0.965788 0.160519 0.209009     O
O     0.965788 0.160519 0.791009     O
O     0.965788 0.209009 0.160519     O
O     0.965788 0.209009 0.839499     O
O     0.965788 0.291009 0.339499     O
O     0.965788 0.291009 0.660519     O
O     0.965788 0.339499 0.291009     O
O     0.965788 0.339499 0.709009     O
O     0.965788 0.660519 0.291009     O
O     0.965788 0.660519 0.709009     O
O     0.965788 0.709009 0.339499     O
O     0.965788 0.709009 0.660519     O
O     0.965788 0.791009 0.160519     O
O     0.965788 0.791009 0.839499     O
O     0.965788 0.839499 0.209009     O
O     0.965788 0.839499 0.791009     O
