data_I
_chemical_name_common  '/home/zhangsd/repos/MofS-CGCNN/ML/data/WS24/clean_cifs/dut-51-h'
_cell_length_a 49.84060
_cell_length_b 49.84060
_cell_length_c 49.84060
_cell_angle_alpha 90.00000
_cell_angle_beta  90.00000
_cell_angle_gamma 90.00000
_space_group_name_H-M_alt      'P 1'


loop_
_space_group_symop_operation_xyz
  'x, y, z' 

loop_
_atom_site_label
_atom_site_fract_x
_atom_site_fract_y
_atom_site_fract_z
_atom_site_type_symbol
O          0.0 0.2084213 0.242459     O
O          0.0 0.2084213 0.757559     O
Hf         0.0 0.2152134 0.2847874    Hf
Hf         0.0 0.2152134 0.7152134    Hf
O          0.0 0.242459 0.2084213     O
O          0.0 0.242459 0.7915813     O
O          0.0 0.257559 0.2915813     O
O          0.0 0.257559 0.7084213     O
Hf         0.0 0.2847874 0.2152134    Hf
Hf         0.0 0.2847874 0.7847874    Hf
O          0.0 0.2915813 0.257559     O
O          0.0 0.2915813 0.742459     O
O          0.0 0.7084213 0.257559     O
O          0.0 0.7084213 0.742459     O
Hf         0.0 0.7152134 0.2152134    Hf
Hf         0.0 0.7152134 0.7847874    Hf
O          0.0 0.742459 0.2915813     O
O          0.0 0.742459 0.7084213     O
O          0.0 0.757559 0.2084213     O
O          0.0 0.757559 0.7915813     O
Hf         0.0 0.7847874 0.2847874    Hf
Hf         0.0 0.7847874 0.7152134    Hf
O          0.0 0.7915813 0.242459     O
O          0.0 0.7915813 0.757559     O
O     0.026605 0.180255 0.282315     O
O     0.026605 0.180255 0.717695     O
O     0.026605 0.217695 0.319755     O
O     0.026605 0.217695 0.680255     O
O     0.026605 0.282315 0.180255     O
O     0.026605 0.282315 0.819755     O
O     0.026605 0.319755 0.217695     O
O     0.026605 0.319755 0.782315     O
O     0.026605 0.680255 0.217695     O
O     0.026605 0.680255 0.782315     O
O     0.026605 0.717695 0.180255     O
O     0.026605 0.717695 0.819755     O
O     0.026605 0.782315 0.319755     O
O     0.026605 0.782315 0.680255     O
O     0.026605 0.819755 0.282315     O
O     0.026605 0.819755 0.717695     O
O     0.0334216 0.194347 0.194347     O
O     0.0334216 0.194347 0.805667     O
O     0.0334216 0.305667 0.305667     O
O     0.0334216 0.305667 0.694347     O
O     0.0334216 0.694347 0.305667     O
O     0.0334216 0.694347 0.694347     O
O     0.0334216 0.805667 0.194347     O
O     0.0334216 0.805667 0.805667     O
O     0.0349714 0.233038 0.266978     O
O     0.0349714 0.233038 0.733038     O
O     0.0349714 0.266978 0.233038     O
O     0.0349714 0.266978 0.766978     O
O     0.0349714 0.733038 0.233038     O
O     0.0349714 0.733038 0.766978     O
O     0.0349714 0.766978 0.266978     O
O     0.0349714 0.766978 0.733038     O
Hf    0.0353114 0.2250693 0.2250693    Hf
Hf    0.0353114 0.2250693 0.7749313    Hf
Hf    0.0353114 0.2749313 0.2749313    Hf
Hf    0.0353114 0.2749313 0.7250693    Hf
Hf    0.0353114 0.7250693 0.2749313    Hf
Hf    0.0353114 0.7250693 0.7250693    Hf
Hf    0.0353114 0.7749313 0.2250693    Hf
Hf    0.0353114 0.7749313 0.7749313    Hf
C     0.044359 0.174269 0.265541     C
C     0.044359 0.174269 0.734461     C
C     0.044359 0.234461 0.325749     C
C     0.044359 0.234461 0.674269     C
C     0.044359 0.265541 0.174269     C
C     0.044359 0.265541 0.825749     C
C     0.044359 0.325749 0.234461     C
C     0.044359 0.325749 0.765541     C
C     0.044359 0.674269 0.234461     C
C     0.044359 0.674269 0.765541     C
C     0.044359 0.734461 0.174269     C
C     0.044359 0.734461 0.825749     C
C     0.044359 0.765541 0.325749     C
C     0.044359 0.765541 0.674269     C
C     0.044359 0.825749 0.265541     C
C     0.044359 0.825749 0.734461     C
H       0.0465   0.1359   0.3065     H
H       0.0465   0.1359   0.6935     H
H       0.0465   0.1935   0.3641     H
H       0.0465   0.1935   0.6359     H
H       0.0465   0.3065   0.1359     H
H       0.0465   0.3065   0.8641     H
H       0.0465   0.3641   0.1935     H
H       0.0465   0.3641   0.8065     H
H       0.0465   0.6359   0.1935     H
H       0.0465   0.6359   0.8065     H
H       0.0465   0.6935   0.1359     H
H       0.0465   0.6935   0.8641     H
H       0.0465   0.8065   0.3641     H
H       0.0465   0.8065   0.6359     H
H       0.0465   0.8641   0.3065     H
H       0.0465   0.8641   0.6935     H
O     0.049558 0.186367 0.243997     O
O     0.049558 0.186367 0.756017     O
O     0.049558 0.243997 0.186367     O
O     0.049558 0.243997 0.813647     O
O     0.049558 0.256017 0.313647     O
O     0.049558 0.256017 0.686367     O
O     0.049558 0.313647 0.256017     O
O     0.049558 0.313647 0.743997     O
O     0.049558 0.686367 0.256017     O
O     0.049558 0.686367 0.743997     O
O     0.049558 0.743997 0.313647     O
O     0.049558 0.743997 0.686367     O
O     0.049558 0.756017 0.186367     O
O     0.049558 0.756017 0.813647     O
O     0.049558 0.813647 0.243997     O
O     0.049558 0.813647 0.756017     O
C     0.0594013 0.1343014 0.2930914     C
C     0.0594013 0.1343014 0.7069114     C
C     0.0594013 0.2069114 0.3657014     C
C     0.0594013 0.2069114 0.6343014     C
C     0.0594013 0.2930914 0.1343014     C
C     0.0594013 0.2930914 0.8657014     C
C     0.0594013 0.3657014 0.2069114     C
C     0.0594013 0.3657014 0.7930914     C
C     0.0594013 0.6343014 0.2069114     C
C     0.0594013 0.6343014 0.7930914     C
C     0.0594013 0.7069114 0.1343014     C
C     0.0594013 0.7069114 0.8657014     C
C     0.0594013 0.7930914 0.3657014     C
C     0.0594013 0.7930914 0.6343014     C
C     0.0594013 0.8657014 0.2930914     C
C     0.0594013 0.8657014 0.7069114     C
C     0.0612612 0.1507412 0.2719913     C
C     0.0612612 0.1507412 0.7280113     C
C     0.0612612 0.2280113 0.3492612     C
C     0.0612612 0.2280113 0.6507412     C
C     0.0612612 0.2719913 0.1507412     C
C     0.0612612 0.2719913 0.8492612     C
C     0.0612612 0.3492612 0.2280113     C
C     0.0612612 0.3492612 0.7719913     C
C     0.0612612 0.6507412 0.2280113     C
C     0.0612612 0.6507412 0.7719913     C
C     0.0612612 0.7280113 0.1507412     C
C     0.0612612 0.7280113 0.8492612     C
C     0.0612612 0.7719913 0.3492612     C
C     0.0612612 0.7719913 0.6507412     C
C     0.0612612 0.8492612 0.2719913     C
C     0.0612612 0.8492612 0.7280113     C
O     0.078469 0.226901 0.226901     O
O     0.078469 0.226901 0.773101     O
O     0.078469 0.273101 0.273101     O
O     0.078469 0.273101 0.726901     O
O     0.078469 0.726901 0.273101     O
O     0.078469 0.726901 0.726901     O
O     0.078469 0.773101 0.226901     O
O     0.078469 0.773101 0.773101     O
C     0.0795016 0.1141916 0.2924116     C
C     0.0795016 0.1141916 0.7075916     C
C     0.0795016 0.2075916 0.3858116     C
C     0.0795016 0.2075916 0.6141916     C
C     0.0795016 0.2924116 0.1141916     C
C     0.0795016 0.2924116 0.8858116     C
C     0.0795016 0.3858116 0.2075916     C
C     0.0795016 0.3858116 0.7924116     C
C     0.0795016 0.6141916 0.2075916     C
C     0.0795016 0.6141916 0.7924116     C
C     0.0795016 0.7075916 0.1141916     C
C     0.0795016 0.7075916 0.8858116     C
C     0.0795016 0.7924116 0.3858116     C
C     0.0795016 0.7924116 0.6141916     C
C     0.0795016 0.8858116 0.2924116     C
C     0.0795016 0.8858116 0.7075916     C
S     0.086204 0.141413 0.249534     S
S     0.086204 0.141413 0.750474     S
S     0.086204 0.249534 0.141413     S
S     0.086204 0.249534 0.858593     S
S     0.086204 0.250474 0.358593     S
S     0.086204 0.250474 0.641413     S
S     0.086204 0.358593 0.250474     S
S     0.086204 0.358593 0.749534     S
S     0.086204 0.641413 0.250474     S
S     0.086204 0.641413 0.749534     S
S     0.086204 0.749534 0.358593     S
S     0.086204 0.749534 0.641413     S
S     0.086204 0.750474 0.141413     S
S     0.086204 0.750474 0.858593     S
S     0.086204 0.858593 0.249534     S
S     0.086204 0.858593 0.750474     S
S     0.088967 0.088967 0.314617     S
S     0.088967 0.088967 0.685397     S
S     0.088967 0.185397 0.411047     S
S     0.088967 0.185397 0.588967     S
S     0.088967 0.314617 0.088967     S
S     0.088967 0.314617 0.911047     S
S     0.088967 0.411047 0.185397     S
S     0.088967 0.411047 0.814617     S
S     0.088967 0.588967 0.185397     S
S     0.088967 0.588967 0.814617     S
S     0.088967 0.685397 0.088967     S
S     0.088967 0.685397 0.911047     S
S     0.088967 0.814617 0.411047     S
S     0.088967 0.814617 0.588967     S
S     0.088967 0.911047 0.314617     S
S     0.088967 0.911047 0.685397     S
C     0.0953813 0.1157013 0.2704414     C
C     0.0953813 0.1157013 0.7295614     C
C     0.0953813 0.2295614 0.3843013     C
C     0.0953813 0.2295614 0.6157013     C
C     0.0953813 0.2704414 0.1157013     C
C     0.0953813 0.2704414 0.8843013     C
C     0.0953813 0.3843013 0.2295614     C
C     0.0953813 0.3843013 0.7704414     C
C     0.0953813 0.6157013 0.2295614     C
C     0.0953813 0.6157013 0.7704414     C
C     0.0953813 0.7295614 0.1157013     C
C     0.0953813 0.7295614 0.8843013     C
C     0.0953813 0.7704414 0.3843013     C
C     0.0953813 0.7704414 0.6157013     C
C     0.0953813 0.8843013 0.2704414     C
C     0.0953813 0.8843013 0.7295614     C
C     0.1141916 0.0795016 0.2924116     C
C     0.1141916 0.0795016 0.7075916     C
C     0.1141916 0.2075916 0.4205016     C
C     0.1141916 0.2075916 0.5795016     C
C     0.1141916 0.2924116 0.0795016     C
C     0.1141916 0.2924116 0.9205016     C
C     0.1141916 0.4205016 0.2075916     C
C     0.1141916 0.4205016 0.7924116     C
C     0.1141916 0.5795016 0.2075916     C
C     0.1141916 0.5795016 0.7924116     C
C     0.1141916 0.7075916 0.0795016     C
C     0.1141916 0.7075916 0.9205016     C
C     0.1141916 0.7924116 0.4205016     C
C     0.1141916 0.7924116 0.5795016     C
C     0.1141916 0.9205016 0.2924116     C
C     0.1141916 0.9205016 0.7075916     C
C     0.1157013 0.0953813 0.2704414     C
C     0.1157013 0.0953813 0.7295614     C
C     0.1157013 0.2295614 0.4046213     C
C     0.1157013 0.2295614 0.5953813     C
C     0.1157013 0.2704414 0.0953813     C
C     0.1157013 0.2704414 0.9046213     C
C     0.1157013 0.4046213 0.2295614     C
C     0.1157013 0.4046213 0.7704414     C
C     0.1157013 0.5953813 0.2295614     C
C     0.1157013 0.5953813 0.7704414     C
C     0.1157013 0.7295614 0.0953813     C
C     0.1157013 0.7295614 0.9046213     C
C     0.1157013 0.7704414 0.4046213     C
C     0.1157013 0.7704414 0.5953813     C
C     0.1157013 0.9046213 0.2704414     C
C     0.1157013 0.9046213 0.7295614     C
C     0.1343014 0.0594013 0.2930914     C
C     0.1343014 0.0594013 0.7069114     C
C     0.1343014 0.2069114 0.4406013     C
C     0.1343014 0.2069114 0.5594013     C
C     0.1343014 0.2930914 0.0594013     C
C     0.1343014 0.2930914 0.9406013     C
C     0.1343014 0.4406013 0.2069114     C
C     0.1343014 0.4406013 0.7930914     C
C     0.1343014 0.5594013 0.2069114     C
C     0.1343014 0.5594013 0.7930914     C
C     0.1343014 0.7069114 0.0594013     C
C     0.1343014 0.7069114 0.9406013     C
C     0.1343014 0.7930914 0.4406013     C
C     0.1343014 0.7930914 0.5594013     C
C     0.1343014 0.9406013 0.2930914     C
C     0.1343014 0.9406013 0.7069114     C
H       0.1359   0.0465   0.3065     H
H       0.1359   0.0465   0.6935     H
H       0.1359   0.1935   0.4535     H
H       0.1359   0.1935   0.5465     H
H       0.1359   0.3065   0.0465     H
H       0.1359   0.3065   0.9535     H
H       0.1359   0.4535   0.1935     H
H       0.1359   0.4535   0.8065     H
H       0.1359   0.5465   0.1935     H
H       0.1359   0.5465   0.8065     H
H       0.1359   0.6935   0.0465     H
H       0.1359   0.6935   0.9535     H
H       0.1359   0.8065   0.4535     H
H       0.1359   0.8065   0.5465     H
H       0.1359   0.9535   0.3065     H
H       0.1359   0.9535   0.6935     H
S     0.141413 0.086204 0.249534     S
S     0.141413 0.086204 0.750474     S
S     0.141413 0.249534 0.086204     S
S     0.141413 0.249534 0.913804     S
S     0.141413 0.250474 0.413804     S
S     0.141413 0.250474 0.586204     S
S     0.141413 0.413804 0.250474     S
S     0.141413 0.413804 0.749534     S
S     0.141413 0.586204 0.250474     S
S     0.141413 0.586204 0.749534     S
S     0.141413 0.749534 0.413804     S
S     0.141413 0.749534 0.586204     S
S     0.141413 0.750474 0.086204     S
S     0.141413 0.750474 0.913804     S
S     0.141413 0.913804 0.249534     S
S     0.141413 0.913804 0.750474     S
C     0.1507412 0.0612612 0.2719913     C
C     0.1507412 0.0612612 0.7280113     C
C     0.1507412 0.2280113 0.4387412     C
C     0.1507412 0.2280113 0.5612612     C
C     0.1507412 0.2719913 0.0612612     C
C     0.1507412 0.2719913 0.9387412     C
C     0.1507412 0.4387412 0.2280113     C
C     0.1507412 0.4387412 0.7719913     C
C     0.1507412 0.5612612 0.2280113     C
C     0.1507412 0.5612612 0.7719913     C
C     0.1507412 0.7280113 0.0612612     C
C     0.1507412 0.7280113 0.9387412     C
C     0.1507412 0.7719913 0.4387412     C
C     0.1507412 0.7719913 0.5612612     C
C     0.1507412 0.9387412 0.2719913     C
C     0.1507412 0.9387412 0.7280113     C
C     0.174269 0.044359 0.265541     C
C     0.174269 0.044359 0.734461     C
C     0.174269 0.234461 0.455659     C
C     0.174269 0.234461 0.544359     C
C     0.174269 0.265541 0.044359     C
C     0.174269 0.265541 0.955659     C
C     0.174269 0.455659 0.234461     C
C     0.174269 0.455659 0.765541     C
C     0.174269 0.544359 0.234461     C
C     0.174269 0.544359 0.765541     C
C     0.174269 0.734461 0.044359     C
C     0.174269 0.734461 0.955659     C
C     0.174269 0.765541 0.455659     C
C     0.174269 0.765541 0.544359     C
C     0.174269 0.955659 0.265541     C
C     0.174269 0.955659 0.734461     C
O     0.180255 0.026605 0.282315     O
O     0.180255 0.026605 0.717695     O
O     0.180255 0.217695 0.473405     O
O     0.180255 0.217695 0.526605     O
O     0.180255 0.282315 0.026605     O
O     0.180255 0.282315 0.973405     O
O     0.180255 0.473405 0.217695     O
O     0.180255 0.473405 0.782315     O
O     0.180255 0.526605 0.217695     O
O     0.180255 0.526605 0.782315     O
O     0.180255 0.717695 0.026605     O
O     0.180255 0.717695 0.973405     O
O     0.180255 0.782315 0.473405     O
O     0.180255 0.782315 0.526605     O
O     0.180255 0.973405 0.282315     O
O     0.180255 0.973405 0.717695     O
S     0.185397 0.088967 0.411047     S
S     0.185397 0.088967 0.588967     S
S     0.185397 0.411047 0.088967     S
S     0.185397 0.411047 0.911047     S
S     0.185397 0.588967 0.088967     S
S     0.185397 0.588967 0.911047     S
S     0.185397 0.911047 0.411047     S
S     0.185397 0.911047 0.588967     S
O     0.186367 0.049558 0.243997     O
O     0.186367 0.049558 0.756017     O
O     0.186367 0.243997 0.049558     O
O     0.186367 0.243997 0.950458     O
O     0.186367 0.256017 0.450458     O
O     0.186367 0.256017 0.549558     O
O     0.186367 0.450458 0.256017     O
O     0.186367 0.450458 0.743997     O
O     0.186367 0.549558 0.256017     O
O     0.186367 0.549558 0.743997     O
O     0.186367 0.743997 0.450458     O
O     0.186367 0.743997 0.549558     O
O     0.186367 0.756017 0.049558     O
O     0.186367 0.756017 0.950458     O
O     0.186367 0.950458 0.243997     O
O     0.186367 0.950458 0.756017     O
H       0.1935   0.0465   0.3641     H
H       0.1935   0.0465   0.6359     H
H       0.1935   0.1359   0.4535     H
H       0.1935   0.1359   0.5465     H
H       0.1935   0.3641   0.0465     H
H       0.1935   0.3641   0.9535     H
H       0.1935   0.4535   0.1359     H
H       0.1935   0.4535   0.8641     H
H       0.1935   0.5465   0.1359     H
H       0.1935   0.5465   0.8641     H
H       0.1935   0.6359   0.0465     H
H       0.1935   0.6359   0.9535     H
H       0.1935   0.8641   0.4535     H
H       0.1935   0.8641   0.5465     H
H       0.1935   0.9535   0.3641     H
H       0.1935   0.9535   0.6359     H
O     0.194347 0.0334216 0.194347     O
O     0.194347 0.0334216 0.805667     O
O     0.194347 0.194347 0.0334216     O
O     0.194347 0.194347 0.9665816     O
O     0.194347 0.305667 0.4665816     O
O     0.194347 0.305667 0.5334216     O
O     0.194347 0.4665816 0.305667     O
O     0.194347 0.4665816 0.694347     O
O     0.194347 0.5334216 0.305667     O
O     0.194347 0.5334216 0.694347     O
O     0.194347 0.694347 0.4665816     O
O     0.194347 0.694347 0.5334216     O
O     0.194347 0.805667 0.0334216     O
O     0.194347 0.805667 0.9665816     O
O     0.194347 0.9665816 0.194347     O
O     0.194347 0.9665816 0.805667     O
C     0.2069114 0.0594013 0.3657014     C
C     0.2069114 0.0594013 0.6343014     C
C     0.2069114 0.1343014 0.4406013     C
C     0.2069114 0.1343014 0.5594013     C
C     0.2069114 0.3657014 0.0594013     C
C     0.2069114 0.3657014 0.9406013     C
C     0.2069114 0.4406013 0.1343014     C
C     0.2069114 0.4406013 0.8657014     C
C     0.2069114 0.5594013 0.1343014     C
C     0.2069114 0.5594013 0.8657014     C
C     0.2069114 0.6343014 0.0594013     C
C     0.2069114 0.6343014 0.9406013     C
C     0.2069114 0.8657014 0.4406013     C
C     0.2069114 0.8657014 0.5594013     C
C     0.2069114 0.9406013 0.3657014     C
C     0.2069114 0.9406013 0.6343014     C
C     0.2075916 0.0795016 0.3858116     C
C     0.2075916 0.0795016 0.6141916     C
C     0.2075916 0.1141916 0.4205016     C
C     0.2075916 0.1141916 0.5795016     C
C     0.2075916 0.3858116 0.0795016     C
C     0.2075916 0.3858116 0.9205016     C
C     0.2075916 0.4205016 0.1141916     C
C     0.2075916 0.4205016 0.8858116     C
C     0.2075916 0.5795016 0.1141916     C
C     0.2075916 0.5795016 0.8858116     C
C     0.2075916 0.6141916 0.0795016     C
C     0.2075916 0.6141916 0.9205016     C
C     0.2075916 0.8858116 0.4205016     C
C     0.2075916 0.8858116 0.5795016     C
C     0.2075916 0.9205016 0.3858116     C
C     0.2075916 0.9205016 0.6141916     C
O     0.2084213      0.0 0.242459     O
O     0.2084213      0.0 0.757559     O
O     0.2084213 0.242459      0.0     O
O     0.2084213 0.257559      0.5     O
O     0.2084213      0.5 0.257559     O
O     0.2084213      0.5 0.742459     O
O     0.2084213 0.742459      0.5     O
O     0.2084213 0.757559      0.0     O
Hf    0.2152134      0.0 0.2847874    Hf
Hf    0.2152134      0.0 0.7152134    Hf
Hf    0.2152134 0.2152134      0.5    Hf
Hf    0.2152134 0.2847874      0.0    Hf
Hf    0.2152134      0.5 0.2152134    Hf
Hf    0.2152134      0.5 0.7847874    Hf
Hf    0.2152134 0.7152134      0.0    Hf
Hf    0.2152134 0.7847874      0.5    Hf
O     0.217695 0.026605 0.319755     O
O     0.217695 0.026605 0.680255     O
O     0.217695 0.180255 0.473405     O
O     0.217695 0.180255 0.526605     O
O     0.217695 0.319755 0.026605     O
O     0.217695 0.319755 0.973405     O
O     0.217695 0.473405 0.180255     O
O     0.217695 0.473405 0.819755     O
O     0.217695 0.526605 0.180255     O
O     0.217695 0.526605 0.819755     O
O     0.217695 0.680255 0.026605     O
O     0.217695 0.680255 0.973405     O
O     0.217695 0.819755 0.473405     O
O     0.217695 0.819755 0.526605     O
O     0.217695 0.973405 0.319755     O
O     0.217695 0.973405 0.680255     O
Hf    0.2250693 0.0353114 0.2250693    Hf
Hf    0.2250693 0.0353114 0.7749313    Hf
Hf    0.2250693 0.2250693 0.0353114    Hf
Hf    0.2250693 0.2250693 0.9646894    Hf
Hf    0.2250693 0.2749313 0.4646894    Hf
Hf    0.2250693 0.2749313 0.5353114    Hf
Hf    0.2250693 0.4646894 0.2749313    Hf
Hf    0.2250693 0.4646894 0.7250693    Hf
Hf    0.2250693 0.5353114 0.2749313    Hf
Hf    0.2250693 0.5353114 0.7250693    Hf
Hf    0.2250693 0.7250693 0.4646894    Hf
Hf    0.2250693 0.7250693 0.5353114    Hf
Hf    0.2250693 0.7749313 0.0353114    Hf
Hf    0.2250693 0.7749313 0.9646894    Hf
Hf    0.2250693 0.9646894 0.2250693    Hf
Hf    0.2250693 0.9646894 0.7749313    Hf
O     0.226901 0.078469 0.226901     O
O     0.226901 0.078469 0.773101     O
O     0.226901 0.226901 0.078469     O
O     0.226901 0.226901 0.921549     O
O     0.226901 0.273101 0.421549     O
O     0.226901 0.273101 0.578469     O
O     0.226901 0.421549 0.273101     O
O     0.226901 0.421549 0.726901     O
O     0.226901 0.578469 0.273101     O
O     0.226901 0.578469 0.726901     O
O     0.226901 0.726901 0.421549     O
O     0.226901 0.726901 0.578469     O
O     0.226901 0.773101 0.078469     O
O     0.226901 0.773101 0.921549     O
O     0.226901 0.921549 0.226901     O
O     0.226901 0.921549 0.773101     O
C     0.2280113 0.0612612 0.3492612     C
C     0.2280113 0.0612612 0.6507412     C
C     0.2280113 0.1507412 0.4387412     C
C     0.2280113 0.1507412 0.5612612     C
C     0.2280113 0.3492612 0.0612612     C
C     0.2280113 0.3492612 0.9387412     C
C     0.2280113 0.4387412 0.1507412     C
C     0.2280113 0.4387412 0.8492612     C
C     0.2280113 0.5612612 0.1507412     C
C     0.2280113 0.5612612 0.8492612     C
C     0.2280113 0.6507412 0.0612612     C
C     0.2280113 0.6507412 0.9387412     C
C     0.2280113 0.8492612 0.4387412     C
C     0.2280113 0.8492612 0.5612612     C
C     0.2280113 0.9387412 0.3492612     C
C     0.2280113 0.9387412 0.6507412     C
C     0.2295614 0.0953813 0.3843013     C
C     0.2295614 0.0953813 0.6157013     C
C     0.2295614 0.1157013 0.4046213     C
C     0.2295614 0.1157013 0.5953813     C
C     0.2295614 0.3843013 0.0953813     C
C     0.2295614 0.3843013 0.9046213     C
C     0.2295614 0.4046213 0.1157013     C
C     0.2295614 0.4046213 0.8843013     C
C     0.2295614 0.5953813 0.1157013     C
C     0.2295614 0.5953813 0.8843013     C
C     0.2295614 0.6157013 0.0953813     C
C     0.2295614 0.6157013 0.9046213     C
C     0.2295614 0.8843013 0.4046213     C
C     0.2295614 0.8843013 0.5953813     C
C     0.2295614 0.9046213 0.3843013     C
C     0.2295614 0.9046213 0.6157013     C
O     0.233038 0.0349714 0.266978     O
O     0.233038 0.0349714 0.733038     O
O     0.233038 0.233038 0.4650314     O
O     0.233038 0.233038 0.5349714     O
O     0.233038 0.266978 0.0349714     O
O     0.233038 0.266978 0.9650314     O
O     0.233038 0.4650314 0.233038     O
O     0.233038 0.4650314 0.766978     O
O     0.233038 0.5349714 0.233038     O
O     0.233038 0.5349714 0.766978     O
O     0.233038 0.733038 0.0349714     O
O     0.233038 0.733038 0.9650314     O
O     0.233038 0.766978 0.4650314     O
O     0.233038 0.766978 0.5349714     O
O     0.233038 0.9650314 0.266978     O
O     0.233038 0.9650314 0.733038     O
C     0.234461 0.044359 0.325749     C
C     0.234461 0.044359 0.674269     C
C     0.234461 0.174269 0.455659     C
C     0.234461 0.174269 0.544359     C
C     0.234461 0.325749 0.044359     C
C     0.234461 0.325749 0.955659     C
C     0.234461 0.455659 0.174269     C
C     0.234461 0.455659 0.825749     C
C     0.234461 0.544359 0.174269     C
C     0.234461 0.544359 0.825749     C
C     0.234461 0.674269 0.044359     C
C     0.234461 0.674269 0.955659     C
C     0.234461 0.825749 0.455659     C
C     0.234461 0.825749 0.544359     C
C     0.234461 0.955659 0.325749     C
C     0.234461 0.955659 0.674269     C
O     0.242459      0.0 0.2084213     O
O     0.242459      0.0 0.7915813     O
O     0.242459 0.2084213      0.0     O
O     0.242459 0.2915813      0.5     O
O     0.242459      0.5 0.2915813     O
O     0.242459      0.5 0.7084213     O
O     0.242459 0.7084213      0.5     O
O     0.242459 0.7915813      0.0     O
O     0.243997 0.049558 0.186367     O
O     0.243997 0.049558 0.813647     O
O     0.243997 0.186367 0.049558     O
O     0.243997 0.186367 0.950458     O
O     0.243997 0.313647 0.450458     O
O     0.243997 0.313647 0.549558     O
O     0.243997 0.450458 0.313647     O
O     0.243997 0.450458 0.686367     O
O     0.243997 0.549558 0.313647     O
O     0.243997 0.549558 0.686367     O
O     0.243997 0.686367 0.450458     O
O     0.243997 0.686367 0.549558     O
O     0.243997 0.813647 0.049558     O
O     0.243997 0.813647 0.950458     O
O     0.243997 0.950458 0.186367     O
O     0.243997 0.950458 0.813647     O
S     0.249534 0.086204 0.141413     S
S     0.249534 0.086204 0.858593     S
S     0.249534 0.141413 0.086204     S
S     0.249534 0.141413 0.913804     S
S     0.249534 0.358593 0.413804     S
S     0.249534 0.358593 0.586204     S
S     0.249534 0.413804 0.358593     S
S     0.249534 0.413804 0.641413     S
S     0.249534 0.586204 0.358593     S
S     0.249534 0.586204 0.641413     S
S     0.249534 0.641413 0.413804     S
S     0.249534 0.641413 0.586204     S
S     0.249534 0.858593 0.086204     S
S     0.249534 0.858593 0.913804     S
S     0.249534 0.913804 0.141413     S
S     0.249534 0.913804 0.858593     S
S     0.250474 0.086204 0.358593     S
S     0.250474 0.086204 0.641413     S
S     0.250474 0.141413 0.413804     S
S     0.250474 0.141413 0.586204     S
S     0.250474 0.358593 0.086204     S
S     0.250474 0.358593 0.913804     S
S     0.250474 0.413804 0.141413     S
S     0.250474 0.413804 0.858593     S
S     0.250474 0.586204 0.141413     S
S     0.250474 0.586204 0.858593     S
S     0.250474 0.641413 0.086204     S
S     0.250474 0.641413 0.913804     S
S     0.250474 0.858593 0.413804     S
S     0.250474 0.858593 0.586204     S
S     0.250474 0.913804 0.358593     S
S     0.250474 0.913804 0.641413     S
O     0.256017 0.049558 0.313647     O
O     0.256017 0.049558 0.686367     O
O     0.256017 0.186367 0.450458     O
O     0.256017 0.186367 0.549558     O
O     0.256017 0.313647 0.049558     O
O     0.256017 0.313647 0.950458     O
O     0.256017 0.450458 0.186367     O
O     0.256017 0.450458 0.813647     O
O     0.256017 0.549558 0.186367     O
O     0.256017 0.549558 0.813647     O
O     0.256017 0.686367 0.049558     O
O     0.256017 0.686367 0.950458     O
O     0.256017 0.813647 0.450458     O
O     0.256017 0.813647 0.549558     O
O     0.256017 0.950458 0.313647     O
O     0.256017 0.950458 0.686367     O
O     0.257559      0.0 0.2915813     O
O     0.257559      0.0 0.7084213     O
O     0.257559 0.2084213      0.5     O
O     0.257559 0.2915813      0.0     O
O     0.257559      0.5 0.2084213     O
O     0.257559      0.5 0.7915813     O
O     0.257559 0.7084213      0.0     O
O     0.257559 0.7915813      0.5     O
C     0.265541 0.044359 0.174269     C
C     0.265541 0.044359 0.825749     C
C     0.265541 0.174269 0.044359     C
C     0.265541 0.174269 0.955659     C
C     0.265541 0.325749 0.455659     C
C     0.265541 0.325749 0.544359     C
C     0.265541 0.455659 0.325749     C
C     0.265541 0.455659 0.674269     C
C     0.265541 0.544359 0.325749     C
C     0.265541 0.544359 0.674269     C
C     0.265541 0.674269 0.455659     C
C     0.265541 0.674269 0.544359     C
C     0.265541 0.825749 0.044359     C
C     0.265541 0.825749 0.955659     C
C     0.265541 0.955659 0.174269     C
C     0.265541 0.955659 0.825749     C
O     0.266978 0.0349714 0.233038     O
O     0.266978 0.0349714 0.766978     O
O     0.266978 0.233038 0.0349714     O
O     0.266978 0.233038 0.9650314     O
O     0.266978 0.266978 0.4650314     O
O     0.266978 0.266978 0.5349714     O
O     0.266978 0.4650314 0.266978     O
O     0.266978 0.4650314 0.733038     O
O     0.266978 0.5349714 0.266978     O
O     0.266978 0.5349714 0.733038     O
O     0.266978 0.733038 0.4650314     O
O     0.266978 0.733038 0.5349714     O
O     0.266978 0.766978 0.0349714     O
O     0.266978 0.766978 0.9650314     O
O     0.266978 0.9650314 0.233038     O
O     0.266978 0.9650314 0.766978     O
C     0.2704414 0.0953813 0.1157013     C
C     0.2704414 0.0953813 0.8843013     C
C     0.2704414 0.1157013 0.0953813     C
C     0.2704414 0.1157013 0.9046213     C
C     0.2704414 0.3843013 0.4046213     C
C     0.2704414 0.3843013 0.5953813     C
C     0.2704414 0.4046213 0.3843013     C
C     0.2704414 0.4046213 0.6157013     C
C     0.2704414 0.5953813 0.3843013     C
C     0.2704414 0.5953813 0.6157013     C
C     0.2704414 0.6157013 0.4046213     C
C     0.2704414 0.6157013 0.5953813     C
C     0.2704414 0.8843013 0.0953813     C
C     0.2704414 0.8843013 0.9046213     C
C     0.2704414 0.9046213 0.1157013     C
C     0.2704414 0.9046213 0.8843013     C
C     0.2719913 0.0612612 0.1507412     C
C     0.2719913 0.0612612 0.8492612     C
C     0.2719913 0.1507412 0.0612612     C
C     0.2719913 0.1507412 0.9387412     C
C     0.2719913 0.3492612 0.4387412     C
C     0.2719913 0.3492612 0.5612612     C
C     0.2719913 0.4387412 0.3492612     C
C     0.2719913 0.4387412 0.6507412     C
C     0.2719913 0.5612612 0.3492612     C
C     0.2719913 0.5612612 0.6507412     C
C     0.2719913 0.6507412 0.4387412     C
C     0.2719913 0.6507412 0.5612612     C
C     0.2719913 0.8492612 0.0612612     C
C     0.2719913 0.8492612 0.9387412     C
C     0.2719913 0.9387412 0.1507412     C
C     0.2719913 0.9387412 0.8492612     C
O     0.273101 0.078469 0.273101     O
O     0.273101 0.078469 0.726901     O
O     0.273101 0.226901 0.421549     O
O     0.273101 0.226901 0.578469     O
O     0.273101 0.273101 0.078469     O
O     0.273101 0.273101 0.921549     O
O     0.273101 0.421549 0.226901     O
O     0.273101 0.421549 0.773101     O
O     0.273101 0.578469 0.226901     O
O     0.273101 0.578469 0.773101     O
O     0.273101 0.726901 0.078469     O
O     0.273101 0.726901 0.921549     O
O     0.273101 0.773101 0.421549     O
O     0.273101 0.773101 0.578469     O
O     0.273101 0.921549 0.273101     O
O     0.273101 0.921549 0.726901     O
Hf    0.2749313 0.0353114 0.2749313    Hf
Hf    0.2749313 0.0353114 0.7250693    Hf
Hf    0.2749313 0.2250693 0.4646894    Hf
Hf    0.2749313 0.2250693 0.5353114    Hf
Hf    0.2749313 0.2749313 0.0353114    Hf
Hf    0.2749313 0.2749313 0.9646894    Hf
Hf    0.2749313 0.4646894 0.2250693    Hf
Hf    0.2749313 0.4646894 0.7749313    Hf
Hf    0.2749313 0.5353114 0.2250693    Hf
Hf    0.2749313 0.5353114 0.7749313    Hf
Hf    0.2749313 0.7250693 0.0353114    Hf
Hf    0.2749313 0.7250693 0.9646894    Hf
Hf    0.2749313 0.7749313 0.4646894    Hf
Hf    0.2749313 0.7749313 0.5353114    Hf
Hf    0.2749313 0.9646894 0.2749313    Hf
Hf    0.2749313 0.9646894 0.7250693    Hf
O     0.282315 0.026605 0.180255     O
O     0.282315 0.026605 0.819755     O
O     0.282315 0.180255 0.026605     O
O     0.282315 0.180255 0.973405     O
O     0.282315 0.319755 0.473405     O
O     0.282315 0.319755 0.526605     O
O     0.282315 0.473405 0.319755     O
O     0.282315 0.473405 0.680255     O
O     0.282315 0.526605 0.319755     O
O     0.282315 0.526605 0.680255     O
O     0.282315 0.680255 0.473405     O
O     0.282315 0.680255 0.526605     O
O     0.282315 0.819755 0.026605     O
O     0.282315 0.819755 0.973405     O
O     0.282315 0.973405 0.180255     O
O     0.282315 0.973405 0.819755     O
Hf    0.2847874      0.0 0.2152134    Hf
Hf    0.2847874      0.0 0.7847874    Hf
Hf    0.2847874 0.2152134      0.0    Hf
Hf    0.2847874 0.2847874      0.5    Hf
Hf    0.2847874      0.5 0.2847874    Hf
Hf    0.2847874      0.5 0.7152134    Hf
Hf    0.2847874 0.7152134      0.5    Hf
Hf    0.2847874 0.7847874      0.0    Hf
O     0.2915813      0.0 0.257559     O
O     0.2915813      0.0 0.742459     O
O     0.2915813 0.242459      0.5     O
O     0.2915813 0.257559      0.0     O
O     0.2915813      0.5 0.242459     O
O     0.2915813      0.5 0.757559     O
O     0.2915813 0.742459      0.0     O
O     0.2915813 0.757559      0.5     O
C     0.2924116 0.0795016 0.1141916     C
C     0.2924116 0.0795016 0.8858116     C
C     0.2924116 0.1141916 0.0795016     C
C     0.2924116 0.1141916 0.9205016     C
C     0.2924116 0.3858116 0.4205016     C
C     0.2924116 0.3858116 0.5795016     C
C     0.2924116 0.4205016 0.3858116     C
C     0.2924116 0.4205016 0.6141916     C
C     0.2924116 0.5795016 0.3858116     C
C     0.2924116 0.5795016 0.6141916     C
C     0.2924116 0.6141916 0.4205016     C
C     0.2924116 0.6141916 0.5795016     C
C     0.2924116 0.8858116 0.0795016     C
C     0.2924116 0.8858116 0.9205016     C
C     0.2924116 0.9205016 0.1141916     C
C     0.2924116 0.9205016 0.8858116     C
C     0.2930914 0.0594013 0.1343014     C
C     0.2930914 0.0594013 0.8657014     C
C     0.2930914 0.1343014 0.0594013     C
C     0.2930914 0.1343014 0.9406013     C
C     0.2930914 0.3657014 0.4406013     C
C     0.2930914 0.3657014 0.5594013     C
C     0.2930914 0.4406013 0.3657014     C
C     0.2930914 0.4406013 0.6343014     C
C     0.2930914 0.5594013 0.3657014     C
C     0.2930914 0.5594013 0.6343014     C
C     0.2930914 0.6343014 0.4406013     C
C     0.2930914 0.6343014 0.5594013     C
C     0.2930914 0.8657014 0.0594013     C
C     0.2930914 0.8657014 0.9406013     C
C     0.2930914 0.9406013 0.1343014     C
C     0.2930914 0.9406013 0.8657014     C
O     0.305667 0.0334216 0.305667     O
O     0.305667 0.0334216 0.694347     O
O     0.305667 0.194347 0.4665816     O
O     0.305667 0.194347 0.5334216     O
O     0.305667 0.305667 0.0334216     O
O     0.305667 0.305667 0.9665816     O
O     0.305667 0.4665816 0.194347     O
O     0.305667 0.4665816 0.805667     O
O     0.305667 0.5334216 0.194347     O
O     0.305667 0.5334216 0.805667     O
O     0.305667 0.694347 0.0334216     O
O     0.305667 0.694347 0.9665816     O
O     0.305667 0.805667 0.4665816     O
O     0.305667 0.805667 0.5334216     O
O     0.305667 0.9665816 0.305667     O
O     0.305667 0.9665816 0.694347     O
H       0.3065   0.0465   0.1359     H
H       0.3065   0.0465   0.8641     H
H       0.3065   0.1359   0.0465     H
H       0.3065   0.1359   0.9535     H
H       0.3065   0.3641   0.4535     H
H       0.3065   0.3641   0.5465     H
H       0.3065   0.4535   0.3641     H
H       0.3065   0.4535   0.6359     H
H       0.3065   0.5465   0.3641     H
H       0.3065   0.5465   0.6359     H
H       0.3065   0.6359   0.4535     H
H       0.3065   0.6359   0.5465     H
H       0.3065   0.8641   0.0465     H
H       0.3065   0.8641   0.9535     H
H       0.3065   0.9535   0.1359     H
H       0.3065   0.9535   0.8641     H
O     0.313647 0.049558 0.256017     O
O     0.313647 0.049558 0.743997     O
O     0.313647 0.243997 0.450458     O
O     0.313647 0.243997 0.549558     O
O     0.313647 0.256017 0.049558     O
O     0.313647 0.256017 0.950458     O
O     0.313647 0.450458 0.243997     O
O     0.313647 0.450458 0.756017     O
O     0.313647 0.549558 0.243997     O
O     0.313647 0.549558 0.756017     O
O     0.313647 0.743997 0.049558     O
O     0.313647 0.743997 0.950458     O
O     0.313647 0.756017 0.450458     O
O     0.313647 0.756017 0.549558     O
O     0.313647 0.950458 0.256017     O
O     0.313647 0.950458 0.743997     O
S     0.314617 0.088967 0.088967     S
S     0.314617 0.088967 0.911047     S
S     0.314617 0.411047 0.411047     S
S     0.314617 0.411047 0.588967     S
S     0.314617 0.588967 0.411047     S
S     0.314617 0.588967 0.588967     S
S     0.314617 0.911047 0.088967     S
S     0.314617 0.911047 0.911047     S
O     0.319755 0.026605 0.217695     O
O     0.319755 0.026605 0.782315     O
O     0.319755 0.217695 0.026605     O
O     0.319755 0.217695 0.973405     O
O     0.319755 0.282315 0.473405     O
O     0.319755 0.282315 0.526605     O
O     0.319755 0.473405 0.282315     O
O     0.319755 0.473405 0.717695     O
O     0.319755 0.526605 0.282315     O
O     0.319755 0.526605 0.717695     O
O     0.319755 0.717695 0.473405     O
O     0.319755 0.717695 0.526605     O
O     0.319755 0.782315 0.026605     O
O     0.319755 0.782315 0.973405     O
O     0.319755 0.973405 0.217695     O
O     0.319755 0.973405 0.782315     O
C     0.325749 0.044359 0.234461     C
C     0.325749 0.044359 0.765541     C
C     0.325749 0.234461 0.044359     C
C     0.325749 0.234461 0.955659     C
C     0.325749 0.265541 0.455659     C
C     0.325749 0.265541 0.544359     C
C     0.325749 0.455659 0.265541     C
C     0.325749 0.455659 0.734461     C
C     0.325749 0.544359 0.265541     C
C     0.325749 0.544359 0.734461     C
C     0.325749 0.734461 0.455659     C
C     0.325749 0.734461 0.544359     C
C     0.325749 0.765541 0.044359     C
C     0.325749 0.765541 0.955659     C
C     0.325749 0.955659 0.234461     C
C     0.325749 0.955659 0.765541     C
C     0.3492612 0.0612612 0.2280113     C
C     0.3492612 0.0612612 0.7719913     C
C     0.3492612 0.2280113 0.0612612     C
C     0.3492612 0.2280113 0.9387412     C
C     0.3492612 0.2719913 0.4387412     C
C     0.3492612 0.2719913 0.5612612     C
C     0.3492612 0.4387412 0.2719913     C
C     0.3492612 0.4387412 0.7280113     C
C     0.3492612 0.5612612 0.2719913     C
C     0.3492612 0.5612612 0.7280113     C
C     0.3492612 0.7280113 0.4387412     C
C     0.3492612 0.7280113 0.5612612     C
C     0.3492612 0.7719913 0.0612612     C
C     0.3492612 0.7719913 0.9387412     C
C     0.3492612 0.9387412 0.2280113     C
C     0.3492612 0.9387412 0.7719913     C
S     0.358593 0.086204 0.250474     S
S     0.358593 0.086204 0.749534     S
S     0.358593 0.249534 0.413804     S
S     0.358593 0.249534 0.586204     S
S     0.358593 0.250474 0.086204     S
S     0.358593 0.250474 0.913804     S
S     0.358593 0.413804 0.249534     S
S     0.358593 0.413804 0.750474     S
S     0.358593 0.586204 0.249534     S
S     0.358593 0.586204 0.750474     S
S     0.358593 0.749534 0.086204     S
S     0.358593 0.749534 0.913804     S
S     0.358593 0.750474 0.413804     S
S     0.358593 0.750474 0.586204     S
S     0.358593 0.913804 0.250474     S
S     0.358593 0.913804 0.749534     S
H       0.3641   0.0465   0.1935     H
H       0.3641   0.0465   0.8065     H
H       0.3641   0.1935   0.0465     H
H       0.3641   0.1935   0.9535     H
H       0.3641   0.3065   0.4535     H
H       0.3641   0.3065   0.5465     H
H       0.3641   0.4535   0.3065     H
H       0.3641   0.4535   0.6935     H
H       0.3641   0.5465   0.3065     H
H       0.3641   0.5465   0.6935     H
H       0.3641   0.6935   0.4535     H
H       0.3641   0.6935   0.5465     H
H       0.3641   0.8065   0.0465     H
H       0.3641   0.8065   0.9535     H
H       0.3641   0.9535   0.1935     H
H       0.3641   0.9535   0.8065     H
C     0.3657014 0.0594013 0.2069114     C
C     0.3657014 0.0594013 0.7930914     C
C     0.3657014 0.2069114 0.0594013     C
C     0.3657014 0.2069114 0.9406013     C
C     0.3657014 0.2930914 0.4406013     C
C     0.3657014 0.2930914 0.5594013     C
C     0.3657014 0.4406013 0.2930914     C
C     0.3657014 0.4406013 0.7069114     C
C     0.3657014 0.5594013 0.2930914     C
C     0.3657014 0.5594013 0.7069114     C
C     0.3657014 0.7069114 0.4406013     C
C     0.3657014 0.7069114 0.5594013     C
C     0.3657014 0.7930914 0.0594013     C
C     0.3657014 0.7930914 0.9406013     C
C     0.3657014 0.9406013 0.2069114     C
C     0.3657014 0.9406013 0.7930914     C
C     0.3843013 0.0953813 0.2295614     C
C     0.3843013 0.0953813 0.7704414     C
C     0.3843013 0.2295614 0.0953813     C
C     0.3843013 0.2295614 0.9046213     C
C     0.3843013 0.2704414 0.4046213     C
C     0.3843013 0.2704414 0.5953813     C
C     0.3843013 0.4046213 0.2704414     C
C     0.3843013 0.4046213 0.7295614     C
C     0.3843013 0.5953813 0.2704414     C
C     0.3843013 0.5953813 0.7295614     C
C     0.3843013 0.7295614 0.4046213     C
C     0.3843013 0.7295614 0.5953813     C
C     0.3843013 0.7704414 0.0953813     C
C     0.3843013 0.7704414 0.9046213     C
C     0.3843013 0.9046213 0.2295614     C
C     0.3843013 0.9046213 0.7704414     C
C     0.3858116 0.0795016 0.2075916     C
C     0.3858116 0.0795016 0.7924116     C
C     0.3858116 0.2075916 0.0795016     C
C     0.3858116 0.2075916 0.9205016     C
C     0.3858116 0.2924116 0.4205016     C
C     0.3858116 0.2924116 0.5795016     C
C     0.3858116 0.4205016 0.2924116     C
C     0.3858116 0.4205016 0.7075916     C
C     0.3858116 0.5795016 0.2924116     C
C     0.3858116 0.5795016 0.7075916     C
C     0.3858116 0.7075916 0.4205016     C
C     0.3858116 0.7075916 0.5795016     C
C     0.3858116 0.7924116 0.0795016     C
C     0.3858116 0.7924116 0.9205016     C
C     0.3858116 0.9205016 0.2075916     C
C     0.3858116 0.9205016 0.7924116     C
C     0.4046213 0.1157013 0.2295614     C
C     0.4046213 0.1157013 0.7704414     C
C     0.4046213 0.2295614 0.1157013     C
C     0.4046213 0.2295614 0.8843013     C
C     0.4046213 0.2704414 0.3843013     C
C     0.4046213 0.2704414 0.6157013     C
C     0.4046213 0.3843013 0.2704414     C
C     0.4046213 0.3843013 0.7295614     C
C     0.4046213 0.6157013 0.2704414     C
C     0.4046213 0.6157013 0.7295614     C
C     0.4046213 0.7295614 0.3843013     C
C     0.4046213 0.7295614 0.6157013     C
C     0.4046213 0.7704414 0.1157013     C
C     0.4046213 0.7704414 0.8843013     C
C     0.4046213 0.8843013 0.2295614     C
C     0.4046213 0.8843013 0.7704414     C
S     0.411047 0.088967 0.185397     S
S     0.411047 0.088967 0.814617     S
S     0.411047 0.185397 0.088967     S
S     0.411047 0.185397 0.911047     S
S     0.411047 0.314617 0.411047     S
S     0.411047 0.314617 0.588967     S
S     0.411047 0.411047 0.314617     S
S     0.411047 0.411047 0.685397     S
S     0.411047 0.588967 0.314617     S
S     0.411047 0.588967 0.685397     S
S     0.411047 0.685397 0.411047     S
S     0.411047 0.685397 0.588967     S
S     0.411047 0.814617 0.088967     S
S     0.411047 0.814617 0.911047     S
S     0.411047 0.911047 0.185397     S
S     0.411047 0.911047 0.814617     S
S     0.413804 0.141413 0.250474     S
S     0.413804 0.141413 0.749534     S
S     0.413804 0.249534 0.358593     S
S     0.413804 0.249534 0.641413     S
S     0.413804 0.250474 0.141413     S
S     0.413804 0.250474 0.858593     S
S     0.413804 0.358593 0.249534     S
S     0.413804 0.358593 0.750474     S
S     0.413804 0.641413 0.249534     S
S     0.413804 0.641413 0.750474     S
S     0.413804 0.749534 0.141413     S
S     0.413804 0.749534 0.858593     S
S     0.413804 0.750474 0.358593     S
S     0.413804 0.750474 0.641413     S
S     0.413804 0.858593 0.250474     S
S     0.413804 0.858593 0.749534     S
C     0.4205016 0.1141916 0.2075916     C
C     0.4205016 0.1141916 0.7924116     C
C     0.4205016 0.2075916 0.1141916     C
C     0.4205016 0.2075916 0.8858116     C
C     0.4205016 0.2924116 0.3858116     C
C     0.4205016 0.2924116 0.6141916     C
C     0.4205016 0.3858116 0.2924116     C
C     0.4205016 0.3858116 0.7075916     C
C     0.4205016 0.6141916 0.2924116     C
C     0.4205016 0.6141916 0.7075916     C
C     0.4205016 0.7075916 0.3858116     C
C     0.4205016 0.7075916 0.6141916     C
C     0.4205016 0.7924116 0.1141916     C
C     0.4205016 0.7924116 0.8858116     C
C     0.4205016 0.8858116 0.2075916     C
C     0.4205016 0.8858116 0.7924116     C
O     0.421549 0.226901 0.273101     O
O     0.421549 0.226901 0.726901     O
O     0.421549 0.273101 0.226901     O
O     0.421549 0.273101 0.773101     O
O     0.421549 0.726901 0.226901     O
O     0.421549 0.726901 0.773101     O
O     0.421549 0.773101 0.273101     O
O     0.421549 0.773101 0.726901     O
C     0.4387412 0.1507412 0.2280113     C
C     0.4387412 0.1507412 0.7719913     C
C     0.4387412 0.2280113 0.1507412     C
C     0.4387412 0.2280113 0.8492612     C
C     0.4387412 0.2719913 0.3492612     C
C     0.4387412 0.2719913 0.6507412     C
C     0.4387412 0.3492612 0.2719913     C
C     0.4387412 0.3492612 0.7280113     C
C     0.4387412 0.6507412 0.2719913     C
C     0.4387412 0.6507412 0.7280113     C
C     0.4387412 0.7280113 0.3492612     C
C     0.4387412 0.7280113 0.6507412     C
C     0.4387412 0.7719913 0.1507412     C
C     0.4387412 0.7719913 0.8492612     C
C     0.4387412 0.8492612 0.2280113     C
C     0.4387412 0.8492612 0.7719913     C
C     0.4406013 0.1343014 0.2069114     C
C     0.4406013 0.1343014 0.7930914     C
C     0.4406013 0.2069114 0.1343014     C
C     0.4406013 0.2069114 0.8657014     C
C     0.4406013 0.2930914 0.3657014     C
C     0.4406013 0.2930914 0.6343014     C
C     0.4406013 0.3657014 0.2930914     C
C     0.4406013 0.3657014 0.7069114     C
C     0.4406013 0.6343014 0.2930914     C
C     0.4406013 0.6343014 0.7069114     C
C     0.4406013 0.7069114 0.3657014     C
C     0.4406013 0.7069114 0.6343014     C
C     0.4406013 0.7930914 0.1343014     C
C     0.4406013 0.7930914 0.8657014     C
C     0.4406013 0.8657014 0.2069114     C
C     0.4406013 0.8657014 0.7930914     C
O     0.450458 0.186367 0.256017     O
O     0.450458 0.186367 0.743997     O
O     0.450458 0.243997 0.313647     O
O     0.450458 0.243997 0.686367     O
O     0.450458 0.256017 0.186367     O
O     0.450458 0.256017 0.813647     O
O     0.450458 0.313647 0.243997     O
O     0.450458 0.313647 0.756017     O
O     0.450458 0.686367 0.243997     O
O     0.450458 0.686367 0.756017     O
O     0.450458 0.743997 0.186367     O
O     0.450458 0.743997 0.813647     O
O     0.450458 0.756017 0.313647     O
O     0.450458 0.756017 0.686367     O
O     0.450458 0.813647 0.256017     O
O     0.450458 0.813647 0.743997     O
H       0.4535   0.1359   0.1935     H
H       0.4535   0.1359   0.8065     H
H       0.4535   0.1935   0.1359     H
H       0.4535   0.1935   0.8641     H
H       0.4535   0.3065   0.3641     H
H       0.4535   0.3065   0.6359     H
H       0.4535   0.3641   0.3065     H
H       0.4535   0.3641   0.6935     H
H       0.4535   0.6359   0.3065     H
H       0.4535   0.6359   0.6935     H
H       0.4535   0.6935   0.3641     H
H       0.4535   0.6935   0.6359     H
H       0.4535   0.8065   0.1359     H
H       0.4535   0.8065   0.8641     H
H       0.4535   0.8641   0.1935     H
H       0.4535   0.8641   0.8065     H
C     0.455659 0.174269 0.234461     C
C     0.455659 0.174269 0.765541     C
C     0.455659 0.234461 0.174269     C
C     0.455659 0.234461 0.825749     C
C     0.455659 0.265541 0.325749     C
C     0.455659 0.265541 0.674269     C
C     0.455659 0.325749 0.265541     C
C     0.455659 0.325749 0.734461     C
C     0.455659 0.674269 0.265541     C
C     0.455659 0.674269 0.734461     C
C     0.455659 0.734461 0.325749     C
C     0.455659 0.734461 0.674269     C
C     0.455659 0.765541 0.174269     C
C     0.455659 0.765541 0.825749     C
C     0.455659 0.825749 0.234461     C
C     0.455659 0.825749 0.765541     C
Hf    0.4646894 0.2250693 0.2749313    Hf
Hf    0.4646894 0.2250693 0.7250693    Hf
Hf    0.4646894 0.2749313 0.2250693    Hf
Hf    0.4646894 0.2749313 0.7749313    Hf
Hf    0.4646894 0.7250693 0.2250693    Hf
Hf    0.4646894 0.7250693 0.7749313    Hf
Hf    0.4646894 0.7749313 0.2749313    Hf
Hf    0.4646894 0.7749313 0.7250693    Hf
O     0.4650314 0.233038 0.233038     O
O     0.4650314 0.233038 0.766978     O
O     0.4650314 0.266978 0.266978     O
O     0.4650314 0.266978 0.733038     O
O     0.4650314 0.733038 0.266978     O
O     0.4650314 0.733038 0.733038     O
O     0.4650314 0.766978 0.233038     O
O     0.4650314 0.766978 0.766978     O
O     0.4665816 0.194347 0.305667     O
O     0.4665816 0.194347 0.694347     O
O     0.4665816 0.305667 0.194347     O
O     0.4665816 0.305667 0.805667     O
O     0.4665816 0.694347 0.194347     O
O     0.4665816 0.694347 0.805667     O
O     0.4665816 0.805667 0.305667     O
O     0.4665816 0.805667 0.694347     O
O     0.473405 0.180255 0.217695     O
O     0.473405 0.180255 0.782315     O
O     0.473405 0.217695 0.180255     O
O     0.473405 0.217695 0.819755     O
O     0.473405 0.282315 0.319755     O
O     0.473405 0.282315 0.680255     O
O     0.473405 0.319755 0.282315     O
O     0.473405 0.319755 0.717695     O
O     0.473405 0.680255 0.282315     O
O     0.473405 0.680255 0.717695     O
O     0.473405 0.717695 0.319755     O
O     0.473405 0.717695 0.680255     O
O     0.473405 0.782315 0.180255     O
O     0.473405 0.782315 0.819755     O
O     0.473405 0.819755 0.217695     O
O     0.473405 0.819755 0.782315     O
O          0.5 0.2084213 0.257559     O
O          0.5 0.2084213 0.742459     O
Hf         0.5 0.2152134 0.2152134    Hf
Hf         0.5 0.2152134 0.7847874    Hf
O          0.5 0.242459 0.2915813     O
O          0.5 0.242459 0.7084213     O
O          0.5 0.257559 0.2084213     O
O          0.5 0.257559 0.7915813     O
Hf         0.5 0.2847874 0.2847874    Hf
Hf         0.5 0.2847874 0.7152134    Hf
O          0.5 0.2915813 0.242459     O
O          0.5 0.2915813 0.757559     O
O          0.5 0.7084213 0.242459     O
O          0.5 0.7084213 0.757559     O
Hf         0.5 0.7152134 0.2847874    Hf
Hf         0.5 0.7152134 0.7152134    Hf
O          0.5 0.742459 0.2084213     O
O          0.5 0.742459 0.7915813     O
O          0.5 0.757559 0.2915813     O
O          0.5 0.757559 0.7084213     O
Hf         0.5 0.7847874 0.2152134    Hf
Hf         0.5 0.7847874 0.7847874    Hf
O          0.5 0.7915813 0.257559     O
O          0.5 0.7915813 0.742459     O
O     0.526605 0.180255 0.217695     O
O     0.526605 0.180255 0.782315     O
O     0.526605 0.217695 0.180255     O
O     0.526605 0.217695 0.819755     O
O     0.526605 0.282315 0.319755     O
O     0.526605 0.282315 0.680255     O
O     0.526605 0.319755 0.282315     O
O     0.526605 0.319755 0.717695     O
O     0.526605 0.680255 0.282315     O
O     0.526605 0.680255 0.717695     O
O     0.526605 0.717695 0.319755     O
O     0.526605 0.717695 0.680255     O
O     0.526605 0.782315 0.180255     O
O     0.526605 0.782315 0.819755     O
O     0.526605 0.819755 0.217695     O
O     0.526605 0.819755 0.782315     O
O     0.5334216 0.194347 0.305667     O
O     0.5334216 0.194347 0.694347     O
O     0.5334216 0.305667 0.194347     O
O     0.5334216 0.305667 0.805667     O
O     0.5334216 0.694347 0.194347     O
O     0.5334216 0.694347 0.805667     O
O     0.5334216 0.805667 0.305667     O
O     0.5334216 0.805667 0.694347     O
O     0.5349714 0.233038 0.233038     O
O     0.5349714 0.233038 0.766978     O
O     0.5349714 0.266978 0.266978     O
O     0.5349714 0.266978 0.733038     O
O     0.5349714 0.733038 0.266978     O
O     0.5349714 0.733038 0.733038     O
O     0.5349714 0.766978 0.233038     O
O     0.5349714 0.766978 0.766978     O
Hf    0.5353114 0.2250693 0.2749313    Hf
Hf    0.5353114 0.2250693 0.7250693    Hf
Hf    0.5353114 0.2749313 0.2250693    Hf
Hf    0.5353114 0.2749313 0.7749313    Hf
Hf    0.5353114 0.7250693 0.2250693    Hf
Hf    0.5353114 0.7250693 0.7749313    Hf
Hf    0.5353114 0.7749313 0.2749313    Hf
Hf    0.5353114 0.7749313 0.7250693    Hf
C     0.544359 0.174269 0.234461     C
C     0.544359 0.174269 0.765541     C
C     0.544359 0.234461 0.174269     C
C     0.544359 0.234461 0.825749     C
C     0.544359 0.265541 0.325749     C
C     0.544359 0.265541 0.674269     C
C     0.544359 0.325749 0.265541     C
C     0.544359 0.325749 0.734461     C
C     0.544359 0.674269 0.265541     C
C     0.544359 0.674269 0.734461     C
C     0.544359 0.734461 0.325749     C
C     0.544359 0.734461 0.674269     C
C     0.544359 0.765541 0.174269     C
C     0.544359 0.765541 0.825749     C
C     0.544359 0.825749 0.234461     C
C     0.544359 0.825749 0.765541     C
H       0.5465   0.1359   0.1935     H
H       0.5465   0.1359   0.8065     H
H       0.5465   0.1935   0.1359     H
H       0.5465   0.1935   0.8641     H
H       0.5465   0.3065   0.3641     H
H       0.5465   0.3065   0.6359     H
H       0.5465   0.3641   0.3065     H
H       0.5465   0.3641   0.6935     H
H       0.5465   0.6359   0.3065     H
H       0.5465   0.6359   0.6935     H
H       0.5465   0.6935   0.3641     H
H       0.5465   0.6935   0.6359     H
H       0.5465   0.8065   0.1359     H
H       0.5465   0.8065   0.8641     H
H       0.5465   0.8641   0.1935     H
H       0.5465   0.8641   0.8065     H
O     0.549558 0.186367 0.256017     O
O     0.549558 0.186367 0.743997     O
O     0.549558 0.243997 0.313647     O
O     0.549558 0.243997 0.686367     O
O     0.549558 0.256017 0.186367     O
O     0.549558 0.256017 0.813647     O
O     0.549558 0.313647 0.243997     O
O     0.549558 0.313647 0.756017     O
O     0.549558 0.686367 0.243997     O
O     0.549558 0.686367 0.756017     O
O     0.549558 0.743997 0.186367     O
O     0.549558 0.743997 0.813647     O
O     0.549558 0.756017 0.313647     O
O     0.549558 0.756017 0.686367     O
O     0.549558 0.813647 0.256017     O
O     0.549558 0.813647 0.743997     O
C     0.5594013 0.1343014 0.2069114     C
C     0.5594013 0.1343014 0.7930914     C
C     0.5594013 0.2069114 0.1343014     C
C     0.5594013 0.2069114 0.8657014     C
C     0.5594013 0.2930914 0.3657014     C
C     0.5594013 0.2930914 0.6343014     C
C     0.5594013 0.3657014 0.2930914     C
C     0.5594013 0.3657014 0.7069114     C
C     0.5594013 0.6343014 0.2930914     C
C     0.5594013 0.6343014 0.7069114     C
C     0.5594013 0.7069114 0.3657014     C
C     0.5594013 0.7069114 0.6343014     C
C     0.5594013 0.7930914 0.1343014     C
C     0.5594013 0.7930914 0.8657014     C
C     0.5594013 0.8657014 0.2069114     C
C     0.5594013 0.8657014 0.7930914     C
C     0.5612612 0.1507412 0.2280113     C
C     0.5612612 0.1507412 0.7719913     C
C     0.5612612 0.2280113 0.1507412     C
C     0.5612612 0.2280113 0.8492612     C
C     0.5612612 0.2719913 0.3492612     C
C     0.5612612 0.2719913 0.6507412     C
C     0.5612612 0.3492612 0.2719913     C
C     0.5612612 0.3492612 0.7280113     C
C     0.5612612 0.6507412 0.2719913     C
C     0.5612612 0.6507412 0.7280113     C
C     0.5612612 0.7280113 0.3492612     C
C     0.5612612 0.7280113 0.6507412     C
C     0.5612612 0.7719913 0.1507412     C
C     0.5612612 0.7719913 0.8492612     C
C     0.5612612 0.8492612 0.2280113     C
C     0.5612612 0.8492612 0.7719913     C
O     0.578469 0.226901 0.273101     O
O     0.578469 0.226901 0.726901     O
O     0.578469 0.273101 0.226901     O
O     0.578469 0.273101 0.773101     O
O     0.578469 0.726901 0.226901     O
O     0.578469 0.726901 0.773101     O
O     0.578469 0.773101 0.273101     O
O     0.578469 0.773101 0.726901     O
C     0.5795016 0.1141916 0.2075916     C
C     0.5795016 0.1141916 0.7924116     C
C     0.5795016 0.2075916 0.1141916     C
C     0.5795016 0.2075916 0.8858116     C
C     0.5795016 0.2924116 0.3858116     C
C     0.5795016 0.2924116 0.6141916     C
C     0.5795016 0.3858116 0.2924116     C
C     0.5795016 0.3858116 0.7075916     C
C     0.5795016 0.6141916 0.2924116     C
C     0.5795016 0.6141916 0.7075916     C
C     0.5795016 0.7075916 0.3858116     C
C     0.5795016 0.7075916 0.6141916     C
C     0.5795016 0.7924116 0.1141916     C
C     0.5795016 0.7924116 0.8858116     C
C     0.5795016 0.8858116 0.2075916     C
C     0.5795016 0.8858116 0.7924116     C
S     0.586204 0.141413 0.250474     S
S     0.586204 0.141413 0.749534     S
S     0.586204 0.249534 0.358593     S
S     0.586204 0.249534 0.641413     S
S     0.586204 0.250474 0.141413     S
S     0.586204 0.250474 0.858593     S
S     0.586204 0.358593 0.249534     S
S     0.586204 0.358593 0.750474     S
S     0.586204 0.641413 0.249534     S
S     0.586204 0.641413 0.750474     S
S     0.586204 0.749534 0.141413     S
S     0.586204 0.749534 0.858593     S
S     0.586204 0.750474 0.358593     S
S     0.586204 0.750474 0.641413     S
S     0.586204 0.858593 0.250474     S
S     0.586204 0.858593 0.749534     S
S     0.588967 0.088967 0.185397     S
S     0.588967 0.088967 0.814617     S
S     0.588967 0.185397 0.088967     S
S     0.588967 0.185397 0.911047     S
S     0.588967 0.314617 0.411047     S
S     0.588967 0.314617 0.588967     S
S     0.588967 0.411047 0.314617     S
S     0.588967 0.411047 0.685397     S
S     0.588967 0.588967 0.314617     S
S     0.588967 0.588967 0.685397     S
S     0.588967 0.685397 0.411047     S
S     0.588967 0.685397 0.588967     S
S     0.588967 0.814617 0.088967     S
S     0.588967 0.814617 0.911047     S
S     0.588967 0.911047 0.185397     S
S     0.588967 0.911047 0.814617     S
C     0.5953813 0.1157013 0.2295614     C
C     0.5953813 0.1157013 0.7704414     C
C     0.5953813 0.2295614 0.1157013     C
C     0.5953813 0.2295614 0.8843013     C
C     0.5953813 0.2704414 0.3843013     C
C     0.5953813 0.2704414 0.6157013     C
C     0.5953813 0.3843013 0.2704414     C
C     0.5953813 0.3843013 0.7295614     C
C     0.5953813 0.6157013 0.2704414     C
C     0.5953813 0.6157013 0.7295614     C
C     0.5953813 0.7295614 0.3843013     C
C     0.5953813 0.7295614 0.6157013     C
C     0.5953813 0.7704414 0.1157013     C
C     0.5953813 0.7704414 0.8843013     C
C     0.5953813 0.8843013 0.2295614     C
C     0.5953813 0.8843013 0.7704414     C
C     0.6141916 0.0795016 0.2075916     C
C     0.6141916 0.0795016 0.7924116     C
C     0.6141916 0.2075916 0.0795016     C
C     0.6141916 0.2075916 0.9205016     C
C     0.6141916 0.2924116 0.4205016     C
C     0.6141916 0.2924116 0.5795016     C
C     0.6141916 0.4205016 0.2924116     C
C     0.6141916 0.4205016 0.7075916     C
C     0.6141916 0.5795016 0.2924116     C
C     0.6141916 0.5795016 0.7075916     C
C     0.6141916 0.7075916 0.4205016     C
C     0.6141916 0.7075916 0.5795016     C
C     0.6141916 0.7924116 0.0795016     C
C     0.6141916 0.7924116 0.9205016     C
C     0.6141916 0.9205016 0.2075916     C
C     0.6141916 0.9205016 0.7924116     C
C     0.6157013 0.0953813 0.2295614     C
C     0.6157013 0.0953813 0.7704414     C
C     0.6157013 0.2295614 0.0953813     C
C     0.6157013 0.2295614 0.9046213     C
C     0.6157013 0.2704414 0.4046213     C
C     0.6157013 0.2704414 0.5953813     C
C     0.6157013 0.4046213 0.2704414     C
C     0.6157013 0.4046213 0.7295614     C
C     0.6157013 0.5953813 0.2704414     C
C     0.6157013 0.5953813 0.7295614     C
C     0.6157013 0.7295614 0.4046213     C
C     0.6157013 0.7295614 0.5953813     C
C     0.6157013 0.7704414 0.0953813     C
C     0.6157013 0.7704414 0.9046213     C
C     0.6157013 0.9046213 0.2295614     C
C     0.6157013 0.9046213 0.7704414     C
C     0.6343014 0.0594013 0.2069114     C
C     0.6343014 0.0594013 0.7930914     C
C     0.6343014 0.2069114 0.0594013     C
C     0.6343014 0.2069114 0.9406013     C
C     0.6343014 0.2930914 0.4406013     C
C     0.6343014 0.2930914 0.5594013     C
C     0.6343014 0.4406013 0.2930914     C
C     0.6343014 0.4406013 0.7069114     C
C     0.6343014 0.5594013 0.2930914     C
C     0.6343014 0.5594013 0.7069114     C
C     0.6343014 0.7069114 0.4406013     C
C     0.6343014 0.7069114 0.5594013     C
C     0.6343014 0.7930914 0.0594013     C
C     0.6343014 0.7930914 0.9406013     C
C     0.6343014 0.9406013 0.2069114     C
C     0.6343014 0.9406013 0.7930914     C
H       0.6359   0.0465   0.1935     H
H       0.6359   0.0465   0.8065     H
H       0.6359   0.1935   0.0465     H
H       0.6359   0.1935   0.9535     H
H       0.6359   0.3065   0.4535     H
H       0.6359   0.3065   0.5465     H
H       0.6359   0.4535   0.3065     H
H       0.6359   0.4535   0.6935     H
H       0.6359   0.5465   0.3065     H
H       0.6359   0.5465   0.6935     H
H       0.6359   0.6935   0.4535     H
H       0.6359   0.6935   0.5465     H
H       0.6359   0.8065   0.0465     H
H       0.6359   0.8065   0.9535     H
H       0.6359   0.9535   0.1935     H
H       0.6359   0.9535   0.8065     H
S     0.641413 0.086204 0.250474     S
S     0.641413 0.086204 0.749534     S
S     0.641413 0.249534 0.413804     S
S     0.641413 0.249534 0.586204     S
S     0.641413 0.250474 0.086204     S
S     0.641413 0.250474 0.913804     S
S     0.641413 0.413804 0.249534     S
S     0.641413 0.413804 0.750474     S
S     0.641413 0.586204 0.249534     S
S     0.641413 0.586204 0.750474     S
S     0.641413 0.749534 0.086204     S
S     0.641413 0.749534 0.913804     S
S     0.641413 0.750474 0.413804     S
S     0.641413 0.750474 0.586204     S
S     0.641413 0.913804 0.250474     S
S     0.641413 0.913804 0.749534     S
C     0.6507412 0.0612612 0.2280113     C
C     0.6507412 0.0612612 0.7719913     C
C     0.6507412 0.2280113 0.0612612     C
C     0.6507412 0.2280113 0.9387412     C
C     0.6507412 0.2719913 0.4387412     C
C     0.6507412 0.2719913 0.5612612     C
C     0.6507412 0.4387412 0.2719913     C
C     0.6507412 0.4387412 0.7280113     C
C     0.6507412 0.5612612 0.2719913     C
C     0.6507412 0.5612612 0.7280113     C
C     0.6507412 0.7280113 0.4387412     C
C     0.6507412 0.7280113 0.5612612     C
C     0.6507412 0.7719913 0.0612612     C
C     0.6507412 0.7719913 0.9387412     C
C     0.6507412 0.9387412 0.2280113     C
C     0.6507412 0.9387412 0.7719913     C
C     0.674269 0.044359 0.234461     C
C     0.674269 0.044359 0.765541     C
C     0.674269 0.234461 0.044359     C
C     0.674269 0.234461 0.955659     C
C     0.674269 0.265541 0.455659     C
C     0.674269 0.265541 0.544359     C
C     0.674269 0.455659 0.265541     C
C     0.674269 0.455659 0.734461     C
C     0.674269 0.544359 0.265541     C
C     0.674269 0.544359 0.734461     C
C     0.674269 0.734461 0.455659     C
C     0.674269 0.734461 0.544359     C
C     0.674269 0.765541 0.044359     C
C     0.674269 0.765541 0.955659     C
C     0.674269 0.955659 0.234461     C
C     0.674269 0.955659 0.765541     C
O     0.680255 0.026605 0.217695     O
O     0.680255 0.026605 0.782315     O
O     0.680255 0.217695 0.026605     O
O     0.680255 0.217695 0.973405     O
O     0.680255 0.282315 0.473405     O
O     0.680255 0.282315 0.526605     O
O     0.680255 0.473405 0.282315     O
O     0.680255 0.473405 0.717695     O
O     0.680255 0.526605 0.282315     O
O     0.680255 0.526605 0.717695     O
O     0.680255 0.717695 0.473405     O
O     0.680255 0.717695 0.526605     O
O     0.680255 0.782315 0.026605     O
O     0.680255 0.782315 0.973405     O
O     0.680255 0.973405 0.217695     O
O     0.680255 0.973405 0.782315     O
S     0.685397 0.088967 0.088967     S
S     0.685397 0.088967 0.911047     S
S     0.685397 0.411047 0.411047     S
S     0.685397 0.411047 0.588967     S
S     0.685397 0.588967 0.411047     S
S     0.685397 0.588967 0.588967     S
S     0.685397 0.911047 0.088967     S
S     0.685397 0.911047 0.911047     S
O     0.686367 0.049558 0.256017     O
O     0.686367 0.049558 0.743997     O
O     0.686367 0.243997 0.450458     O
O     0.686367 0.243997 0.549558     O
O     0.686367 0.256017 0.049558     O
O     0.686367 0.256017 0.950458     O
O     0.686367 0.450458 0.243997     O
O     0.686367 0.450458 0.756017     O
O     0.686367 0.549558 0.243997     O
O     0.686367 0.549558 0.756017     O
O     0.686367 0.743997 0.049558     O
O     0.686367 0.743997 0.950458     O
O     0.686367 0.756017 0.450458     O
O     0.686367 0.756017 0.549558     O
O     0.686367 0.950458 0.256017     O
O     0.686367 0.950458 0.743997     O
H       0.6935   0.0465   0.1359     H
H       0.6935   0.0465   0.8641     H
H       0.6935   0.1359   0.0465     H
H       0.6935   0.1359   0.9535     H
H       0.6935   0.3641   0.4535     H
H       0.6935   0.3641   0.5465     H
H       0.6935   0.4535   0.3641     H
H       0.6935   0.4535   0.6359     H
H       0.6935   0.5465   0.3641     H
H       0.6935   0.5465   0.6359     H
H       0.6935   0.6359   0.4535     H
H       0.6935   0.6359   0.5465     H
H       0.6935   0.8641   0.0465     H
H       0.6935   0.8641   0.9535     H
H       0.6935   0.9535   0.1359     H
H       0.6935   0.9535   0.8641     H
O     0.694347 0.0334216 0.305667     O
O     0.694347 0.0334216 0.694347     O
O     0.694347 0.194347 0.4665816     O
O     0.694347 0.194347 0.5334216     O
O     0.694347 0.305667 0.0334216     O
O     0.694347 0.305667 0.9665816     O
O     0.694347 0.4665816 0.194347     O
O     0.694347 0.4665816 0.805667     O
O     0.694347 0.5334216 0.194347     O
O     0.694347 0.5334216 0.805667     O
O     0.694347 0.694347 0.0334216     O
O     0.694347 0.694347 0.9665816     O
O     0.694347 0.805667 0.4665816     O
O     0.694347 0.805667 0.5334216     O
O     0.694347 0.9665816 0.305667     O
O     0.694347 0.9665816 0.694347     O
C     0.7069114 0.0594013 0.1343014     C
C     0.7069114 0.0594013 0.8657014     C
C     0.7069114 0.1343014 0.0594013     C
C     0.7069114 0.1343014 0.9406013     C
C     0.7069114 0.3657014 0.4406013     C
C     0.7069114 0.3657014 0.5594013     C
C     0.7069114 0.4406013 0.3657014     C
C     0.7069114 0.4406013 0.6343014     C
C     0.7069114 0.5594013 0.3657014     C
C     0.7069114 0.5594013 0.6343014     C
C     0.7069114 0.6343014 0.4406013     C
C     0.7069114 0.6343014 0.5594013     C
C     0.7069114 0.8657014 0.0594013     C
C     0.7069114 0.8657014 0.9406013     C
C     0.7069114 0.9406013 0.1343014     C
C     0.7069114 0.9406013 0.8657014     C
C     0.7075916 0.0795016 0.1141916     C
C     0.7075916 0.0795016 0.8858116     C
C     0.7075916 0.1141916 0.0795016     C
C     0.7075916 0.1141916 0.9205016     C
C     0.7075916 0.3858116 0.4205016     C
C     0.7075916 0.3858116 0.5795016     C
C     0.7075916 0.4205016 0.3858116     C
C     0.7075916 0.4205016 0.6141916     C
C     0.7075916 0.5795016 0.3858116     C
C     0.7075916 0.5795016 0.6141916     C
C     0.7075916 0.6141916 0.4205016     C
C     0.7075916 0.6141916 0.5795016     C
C     0.7075916 0.8858116 0.0795016     C
C     0.7075916 0.8858116 0.9205016     C
C     0.7075916 0.9205016 0.1141916     C
C     0.7075916 0.9205016 0.8858116     C
O     0.7084213      0.0 0.257559     O
O     0.7084213      0.0 0.742459     O
O     0.7084213 0.242459      0.5     O
O     0.7084213 0.257559      0.0     O
O     0.7084213      0.5 0.242459     O
O     0.7084213      0.5 0.757559     O
O     0.7084213 0.742459      0.0     O
O     0.7084213 0.757559      0.5     O
Hf    0.7152134      0.0 0.2152134    Hf
Hf    0.7152134      0.0 0.7847874    Hf
Hf    0.7152134 0.2152134      0.0    Hf
Hf    0.7152134 0.2847874      0.5    Hf
Hf    0.7152134      0.5 0.2847874    Hf
Hf    0.7152134      0.5 0.7152134    Hf
Hf    0.7152134 0.7152134      0.5    Hf
Hf    0.7152134 0.7847874      0.0    Hf
O     0.717695 0.026605 0.180255     O
O     0.717695 0.026605 0.819755     O
O     0.717695 0.180255 0.026605     O
O     0.717695 0.180255 0.973405     O
O     0.717695 0.319755 0.473405     O
O     0.717695 0.319755 0.526605     O
O     0.717695 0.473405 0.319755     O
O     0.717695 0.473405 0.680255     O
O     0.717695 0.526605 0.319755     O
O     0.717695 0.526605 0.680255     O
O     0.717695 0.680255 0.473405     O
O     0.717695 0.680255 0.526605     O
O     0.717695 0.819755 0.026605     O
O     0.717695 0.819755 0.973405     O
O     0.717695 0.973405 0.180255     O
O     0.717695 0.973405 0.819755     O
Hf    0.7250693 0.0353114 0.2749313    Hf
Hf    0.7250693 0.0353114 0.7250693    Hf
Hf    0.7250693 0.2250693 0.4646894    Hf
Hf    0.7250693 0.2250693 0.5353114    Hf
Hf    0.7250693 0.2749313 0.0353114    Hf
Hf    0.7250693 0.2749313 0.9646894    Hf
Hf    0.7250693 0.4646894 0.2250693    Hf
Hf    0.7250693 0.4646894 0.7749313    Hf
Hf    0.7250693 0.5353114 0.2250693    Hf
Hf    0.7250693 0.5353114 0.7749313    Hf
Hf    0.7250693 0.7250693 0.0353114    Hf
Hf    0.7250693 0.7250693 0.9646894    Hf
Hf    0.7250693 0.7749313 0.4646894    Hf
Hf    0.7250693 0.7749313 0.5353114    Hf
Hf    0.7250693 0.9646894 0.2749313    Hf
Hf    0.7250693 0.9646894 0.7250693    Hf
O     0.726901 0.078469 0.273101     O
O     0.726901 0.078469 0.726901     O
O     0.726901 0.226901 0.421549     O
O     0.726901 0.226901 0.578469     O
O     0.726901 0.273101 0.078469     O
O     0.726901 0.273101 0.921549     O
O     0.726901 0.421549 0.226901     O
O     0.726901 0.421549 0.773101     O
O     0.726901 0.578469 0.226901     O
O     0.726901 0.578469 0.773101     O
O     0.726901 0.726901 0.078469     O
O     0.726901 0.726901 0.921549     O
O     0.726901 0.773101 0.421549     O
O     0.726901 0.773101 0.578469     O
O     0.726901 0.921549 0.273101     O
O     0.726901 0.921549 0.726901     O
C     0.7280113 0.0612612 0.1507412     C
C     0.7280113 0.0612612 0.8492612     C
C     0.7280113 0.1507412 0.0612612     C
C     0.7280113 0.1507412 0.9387412     C
C     0.7280113 0.3492612 0.4387412     C
C     0.7280113 0.3492612 0.5612612     C
C     0.7280113 0.4387412 0.3492612     C
C     0.7280113 0.4387412 0.6507412     C
C     0.7280113 0.5612612 0.3492612     C
C     0.7280113 0.5612612 0.6507412     C
C     0.7280113 0.6507412 0.4387412     C
C     0.7280113 0.6507412 0.5612612     C
C     0.7280113 0.8492612 0.0612612     C
C     0.7280113 0.8492612 0.9387412     C
C     0.7280113 0.9387412 0.1507412     C
C     0.7280113 0.9387412 0.8492612     C
C     0.7295614 0.0953813 0.1157013     C
C     0.7295614 0.0953813 0.8843013     C
C     0.7295614 0.1157013 0.0953813     C
C     0.7295614 0.1157013 0.9046213     C
C     0.7295614 0.3843013 0.4046213     C
C     0.7295614 0.3843013 0.5953813     C
C     0.7295614 0.4046213 0.3843013     C
C     0.7295614 0.4046213 0.6157013     C
C     0.7295614 0.5953813 0.3843013     C
C     0.7295614 0.5953813 0.6157013     C
C     0.7295614 0.6157013 0.4046213     C
C     0.7295614 0.6157013 0.5953813     C
C     0.7295614 0.8843013 0.0953813     C
C     0.7295614 0.8843013 0.9046213     C
C     0.7295614 0.9046213 0.1157013     C
C     0.7295614 0.9046213 0.8843013     C
O     0.733038 0.0349714 0.233038     O
O     0.733038 0.0349714 0.766978     O
O     0.733038 0.233038 0.0349714     O
O     0.733038 0.233038 0.9650314     O
O     0.733038 0.266978 0.4650314     O
O     0.733038 0.266978 0.5349714     O
O     0.733038 0.4650314 0.266978     O
O     0.733038 0.4650314 0.733038     O
O     0.733038 0.5349714 0.266978     O
O     0.733038 0.5349714 0.733038     O
O     0.733038 0.733038 0.4650314     O
O     0.733038 0.733038 0.5349714     O
O     0.733038 0.766978 0.0349714     O
O     0.733038 0.766978 0.9650314     O
O     0.733038 0.9650314 0.233038     O
O     0.733038 0.9650314 0.766978     O
C     0.734461 0.044359 0.174269     C
C     0.734461 0.044359 0.825749     C
C     0.734461 0.174269 0.044359     C
C     0.734461 0.174269 0.955659     C
C     0.734461 0.325749 0.455659     C
C     0.734461 0.325749 0.544359     C
C     0.734461 0.455659 0.325749     C
C     0.734461 0.455659 0.674269     C
C     0.734461 0.544359 0.325749     C
C     0.734461 0.544359 0.674269     C
C     0.734461 0.674269 0.455659     C
C     0.734461 0.674269 0.544359     C
C     0.734461 0.825749 0.044359     C
C     0.734461 0.825749 0.955659     C
C     0.734461 0.955659 0.174269     C
C     0.734461 0.955659 0.825749     C
O     0.742459      0.0 0.2915813     O
O     0.742459      0.0 0.7084213     O
O     0.742459 0.2084213      0.5     O
O     0.742459 0.2915813      0.0     O
O     0.742459      0.5 0.2084213     O
O     0.742459      0.5 0.7915813     O
O     0.742459 0.7084213      0.0     O
O     0.742459 0.7915813      0.5     O
O     0.743997 0.049558 0.313647     O
O     0.743997 0.049558 0.686367     O
O     0.743997 0.186367 0.450458     O
O     0.743997 0.186367 0.549558     O
O     0.743997 0.313647 0.049558     O
O     0.743997 0.313647 0.950458     O
O     0.743997 0.450458 0.186367     O
O     0.743997 0.450458 0.813647     O
O     0.743997 0.549558 0.186367     O
O     0.743997 0.549558 0.813647     O
O     0.743997 0.686367 0.049558     O
O     0.743997 0.686367 0.950458     O
O     0.743997 0.813647 0.450458     O
O     0.743997 0.813647 0.549558     O
O     0.743997 0.950458 0.313647     O
O     0.743997 0.950458 0.686367     O
S     0.749534 0.086204 0.358593     S
S     0.749534 0.086204 0.641413     S
S     0.749534 0.141413 0.413804     S
S     0.749534 0.141413 0.586204     S
S     0.749534 0.358593 0.086204     S
S     0.749534 0.358593 0.913804     S
S     0.749534 0.413804 0.141413     S
S     0.749534 0.413804 0.858593     S
S     0.749534 0.586204 0.141413     S
S     0.749534 0.586204 0.858593     S
S     0.749534 0.641413 0.086204     S
S     0.749534 0.641413 0.913804     S
S     0.749534 0.858593 0.413804     S
S     0.749534 0.858593 0.586204     S
S     0.749534 0.913804 0.358593     S
S     0.749534 0.913804 0.641413     S
S     0.750474 0.086204 0.141413     S
S     0.750474 0.086204 0.858593     S
S     0.750474 0.141413 0.086204     S
S     0.750474 0.141413 0.913804     S
S     0.750474 0.358593 0.413804     S
S     0.750474 0.358593 0.586204     S
S     0.750474 0.413804 0.358593     S
S     0.750474 0.413804 0.641413     S
S     0.750474 0.586204 0.358593     S
S     0.750474 0.586204 0.641413     S
S     0.750474 0.641413 0.413804     S
S     0.750474 0.641413 0.586204     S
S     0.750474 0.858593 0.086204     S
S     0.750474 0.858593 0.913804     S
S     0.750474 0.913804 0.141413     S
S     0.750474 0.913804 0.858593     S
O     0.756017 0.049558 0.186367     O
O     0.756017 0.049558 0.813647     O
O     0.756017 0.186367 0.049558     O
O     0.756017 0.186367 0.950458     O
O     0.756017 0.313647 0.450458     O
O     0.756017 0.313647 0.549558     O
O     0.756017 0.450458 0.313647     O
O     0.756017 0.450458 0.686367     O
O     0.756017 0.549558 0.313647     O
O     0.756017 0.549558 0.686367     O
O     0.756017 0.686367 0.450458     O
O     0.756017 0.686367 0.549558     O
O     0.756017 0.813647 0.049558     O
O     0.756017 0.813647 0.950458     O
O     0.756017 0.950458 0.186367     O
O     0.756017 0.950458 0.813647     O
O     0.757559      0.0 0.2084213     O
O     0.757559      0.0 0.7915813     O
O     0.757559 0.2084213      0.0     O
O     0.757559 0.2915813      0.5     O
O     0.757559      0.5 0.2915813     O
O     0.757559      0.5 0.7084213     O
O     0.757559 0.7084213      0.5     O
O     0.757559 0.7915813      0.0     O
C     0.765541 0.044359 0.325749     C
C     0.765541 0.044359 0.674269     C
C     0.765541 0.174269 0.455659     C
C     0.765541 0.174269 0.544359     C
C     0.765541 0.325749 0.044359     C
C     0.765541 0.325749 0.955659     C
C     0.765541 0.455659 0.174269     C
C     0.765541 0.455659 0.825749     C
C     0.765541 0.544359 0.174269     C
C     0.765541 0.544359 0.825749     C
C     0.765541 0.674269 0.044359     C
C     0.765541 0.674269 0.955659     C
C     0.765541 0.825749 0.455659     C
C     0.765541 0.825749 0.544359     C
C     0.765541 0.955659 0.325749     C
C     0.765541 0.955659 0.674269     C
O     0.766978 0.0349714 0.266978     O
O     0.766978 0.0349714 0.733038     O
O     0.766978 0.233038 0.4650314     O
O     0.766978 0.233038 0.5349714     O
O     0.766978 0.266978 0.0349714     O
O     0.766978 0.266978 0.9650314     O
O     0.766978 0.4650314 0.233038     O
O     0.766978 0.4650314 0.766978     O
O     0.766978 0.5349714 0.233038     O
O     0.766978 0.5349714 0.766978     O
O     0.766978 0.733038 0.0349714     O
O     0.766978 0.733038 0.9650314     O
O     0.766978 0.766978 0.4650314     O
O     0.766978 0.766978 0.5349714     O
O     0.766978 0.9650314 0.266978     O
O     0.766978 0.9650314 0.733038     O
C     0.7704414 0.0953813 0.3843013     C
C     0.7704414 0.0953813 0.6157013     C
C     0.7704414 0.1157013 0.4046213     C
C     0.7704414 0.1157013 0.5953813     C
C     0.7704414 0.3843013 0.0953813     C
C     0.7704414 0.3843013 0.9046213     C
C     0.7704414 0.4046213 0.1157013     C
C     0.7704414 0.4046213 0.8843013     C
C     0.7704414 0.5953813 0.1157013     C
C     0.7704414 0.5953813 0.8843013     C
C     0.7704414 0.6157013 0.0953813     C
C     0.7704414 0.6157013 0.9046213     C
C     0.7704414 0.8843013 0.4046213     C
C     0.7704414 0.8843013 0.5953813     C
C     0.7704414 0.9046213 0.3843013     C
C     0.7704414 0.9046213 0.6157013     C
C     0.7719913 0.0612612 0.3492612     C
C     0.7719913 0.0612612 0.6507412     C
C     0.7719913 0.1507412 0.4387412     C
C     0.7719913 0.1507412 0.5612612     C
C     0.7719913 0.3492612 0.0612612     C
C     0.7719913 0.3492612 0.9387412     C
C     0.7719913 0.4387412 0.1507412     C
C     0.7719913 0.4387412 0.8492612     C
C     0.7719913 0.5612612 0.1507412     C
C     0.7719913 0.5612612 0.8492612     C
C     0.7719913 0.6507412 0.0612612     C
C     0.7719913 0.6507412 0.9387412     C
C     0.7719913 0.8492612 0.4387412     C
C     0.7719913 0.8492612 0.5612612     C
C     0.7719913 0.9387412 0.3492612     C
C     0.7719913 0.9387412 0.6507412     C
O     0.773101 0.078469 0.226901     O
O     0.773101 0.078469 0.773101     O
O     0.773101 0.226901 0.078469     O
O     0.773101 0.226901 0.921549     O
O     0.773101 0.273101 0.421549     O
O     0.773101 0.273101 0.578469     O
O     0.773101 0.421549 0.273101     O
O     0.773101 0.421549 0.726901     O
O     0.773101 0.578469 0.273101     O
O     0.773101 0.578469 0.726901     O
O     0.773101 0.726901 0.421549     O
O     0.773101 0.726901 0.578469     O
O     0.773101 0.773101 0.078469     O
O     0.773101 0.773101 0.921549     O
O     0.773101 0.921549 0.226901     O
O     0.773101 0.921549 0.773101     O
Hf    0.7749313 0.0353114 0.2250693    Hf
Hf    0.7749313 0.0353114 0.7749313    Hf
Hf    0.7749313 0.2250693 0.0353114    Hf
Hf    0.7749313 0.2250693 0.9646894    Hf
Hf    0.7749313 0.2749313 0.4646894    Hf
Hf    0.7749313 0.2749313 0.5353114    Hf
Hf    0.7749313 0.4646894 0.2749313    Hf
Hf    0.7749313 0.4646894 0.7250693    Hf
Hf    0.7749313 0.5353114 0.2749313    Hf
Hf    0.7749313 0.5353114 0.7250693    Hf
Hf    0.7749313 0.7250693 0.4646894    Hf
Hf    0.7749313 0.7250693 0.5353114    Hf
Hf    0.7749313 0.7749313 0.0353114    Hf
Hf    0.7749313 0.7749313 0.9646894    Hf
Hf    0.7749313 0.9646894 0.2250693    Hf
Hf    0.7749313 0.9646894 0.7749313    Hf
O     0.782315 0.026605 0.319755     O
O     0.782315 0.026605 0.680255     O
O     0.782315 0.180255 0.473405     O
O     0.782315 0.180255 0.526605     O
O     0.782315 0.319755 0.026605     O
O     0.782315 0.319755 0.973405     O
O     0.782315 0.473405 0.180255     O
O     0.782315 0.473405 0.819755     O
O     0.782315 0.526605 0.180255     O
O     0.782315 0.526605 0.819755     O
O     0.782315 0.680255 0.026605     O
O     0.782315 0.680255 0.973405     O
O     0.782315 0.819755 0.473405     O
O     0.782315 0.819755 0.526605     O
O     0.782315 0.973405 0.319755     O
O     0.782315 0.973405 0.680255     O
Hf    0.7847874      0.0 0.2847874    Hf
Hf    0.7847874      0.0 0.7152134    Hf
Hf    0.7847874 0.2152134      0.5    Hf
Hf    0.7847874 0.2847874      0.0    Hf
Hf    0.7847874      0.5 0.2152134    Hf
Hf    0.7847874      0.5 0.7847874    Hf
Hf    0.7847874 0.7152134      0.0    Hf
Hf    0.7847874 0.7847874      0.5    Hf
O     0.7915813      0.0 0.242459     O
O     0.7915813      0.0 0.757559     O
O     0.7915813 0.242459      0.0     O
O     0.7915813 0.257559      0.5     O
O     0.7915813      0.5 0.257559     O
O     0.7915813      0.5 0.742459     O
O     0.7915813 0.742459      0.5     O
O     0.7915813 0.757559      0.0     O
C     0.7924116 0.0795016 0.3858116     C
C     0.7924116 0.0795016 0.6141916     C
C     0.7924116 0.1141916 0.4205016     C
C     0.7924116 0.1141916 0.5795016     C
C     0.7924116 0.3858116 0.0795016     C
C     0.7924116 0.3858116 0.9205016     C
C     0.7924116 0.4205016 0.1141916     C
C     0.7924116 0.4205016 0.8858116     C
C     0.7924116 0.5795016 0.1141916     C
C     0.7924116 0.5795016 0.8858116     C
C     0.7924116 0.6141916 0.0795016     C
C     0.7924116 0.6141916 0.9205016     C
C     0.7924116 0.8858116 0.4205016     C
C     0.7924116 0.8858116 0.5795016     C
C     0.7924116 0.9205016 0.3858116     C
C     0.7924116 0.9205016 0.6141916     C
C     0.7930914 0.0594013 0.3657014     C
C     0.7930914 0.0594013 0.6343014     C
C     0.7930914 0.1343014 0.4406013     C
C     0.7930914 0.1343014 0.5594013     C
C     0.7930914 0.3657014 0.0594013     C
C     0.7930914 0.3657014 0.9406013     C
C     0.7930914 0.4406013 0.1343014     C
C     0.7930914 0.4406013 0.8657014     C
C     0.7930914 0.5594013 0.1343014     C
C     0.7930914 0.5594013 0.8657014     C
C     0.7930914 0.6343014 0.0594013     C
C     0.7930914 0.6343014 0.9406013     C
C     0.7930914 0.8657014 0.4406013     C
C     0.7930914 0.8657014 0.5594013     C
C     0.7930914 0.9406013 0.3657014     C
C     0.7930914 0.9406013 0.6343014     C
O     0.805667 0.0334216 0.194347     O
O     0.805667 0.0334216 0.805667     O
O     0.805667 0.194347 0.0334216     O
O     0.805667 0.194347 0.9665816     O
O     0.805667 0.305667 0.4665816     O
O     0.805667 0.305667 0.5334216     O
O     0.805667 0.4665816 0.305667     O
O     0.805667 0.4665816 0.694347     O
O     0.805667 0.5334216 0.305667     O
O     0.805667 0.5334216 0.694347     O
O     0.805667 0.694347 0.4665816     O
O     0.805667 0.694347 0.5334216     O
O     0.805667 0.805667 0.0334216     O
O     0.805667 0.805667 0.9665816     O
O     0.805667 0.9665816 0.194347     O
O     0.805667 0.9665816 0.805667     O
H       0.8065   0.0465   0.3641     H
H       0.8065   0.0465   0.6359     H
H       0.8065   0.1359   0.4535     H
H       0.8065   0.1359   0.5465     H
H       0.8065   0.3641   0.0465     H
H       0.8065   0.3641   0.9535     H
H       0.8065   0.4535   0.1359     H
H       0.8065   0.4535   0.8641     H
H       0.8065   0.5465   0.1359     H
H       0.8065   0.5465   0.8641     H
H       0.8065   0.6359   0.0465     H
H       0.8065   0.6359   0.9535     H
H       0.8065   0.8641   0.4535     H
H       0.8065   0.8641   0.5465     H
H       0.8065   0.9535   0.3641     H
H       0.8065   0.9535   0.6359     H
O     0.813647 0.049558 0.243997     O
O     0.813647 0.049558 0.756017     O
O     0.813647 0.243997 0.049558     O
O     0.813647 0.243997 0.950458     O
O     0.813647 0.256017 0.450458     O
O     0.813647 0.256017 0.549558     O
O     0.813647 0.450458 0.256017     O
O     0.813647 0.450458 0.743997     O
O     0.813647 0.549558 0.256017     O
O     0.813647 0.549558 0.743997     O
O     0.813647 0.743997 0.450458     O
O     0.813647 0.743997 0.549558     O
O     0.813647 0.756017 0.049558     O
O     0.813647 0.756017 0.950458     O
O     0.813647 0.950458 0.243997     O
O     0.813647 0.950458 0.756017     O
S     0.814617 0.088967 0.411047     S
S     0.814617 0.088967 0.588967     S
S     0.814617 0.411047 0.088967     S
S     0.814617 0.411047 0.911047     S
S     0.814617 0.588967 0.088967     S
S     0.814617 0.588967 0.911047     S
S     0.814617 0.911047 0.411047     S
S     0.814617 0.911047 0.588967     S
O     0.819755 0.026605 0.282315     O
O     0.819755 0.026605 0.717695     O
O     0.819755 0.217695 0.473405     O
O     0.819755 0.217695 0.526605     O
O     0.819755 0.282315 0.026605     O
O     0.819755 0.282315 0.973405     O
O     0.819755 0.473405 0.217695     O
O     0.819755 0.473405 0.782315     O
O     0.819755 0.526605 0.217695     O
O     0.819755 0.526605 0.782315     O
O     0.819755 0.717695 0.026605     O
O     0.819755 0.717695 0.973405     O
O     0.819755 0.782315 0.473405     O
O     0.819755 0.782315 0.526605     O
O     0.819755 0.973405 0.282315     O
O     0.819755 0.973405 0.717695     O
C     0.825749 0.044359 0.265541     C
C     0.825749 0.044359 0.734461     C
C     0.825749 0.234461 0.455659     C
C     0.825749 0.234461 0.544359     C
C     0.825749 0.265541 0.044359     C
C     0.825749 0.265541 0.955659     C
C     0.825749 0.455659 0.234461     C
C     0.825749 0.455659 0.765541     C
C     0.825749 0.544359 0.234461     C
C     0.825749 0.544359 0.765541     C
C     0.825749 0.734461 0.044359     C
C     0.825749 0.734461 0.955659     C
C     0.825749 0.765541 0.455659     C
C     0.825749 0.765541 0.544359     C
C     0.825749 0.955659 0.265541     C
C     0.825749 0.955659 0.734461     C
C     0.8492612 0.0612612 0.2719913     C
C     0.8492612 0.0612612 0.7280113     C
C     0.8492612 0.2280113 0.4387412     C
C     0.8492612 0.2280113 0.5612612     C
C     0.8492612 0.2719913 0.0612612     C
C     0.8492612 0.2719913 0.9387412     C
C     0.8492612 0.4387412 0.2280113     C
C     0.8492612 0.4387412 0.7719913     C
C     0.8492612 0.5612612 0.2280113     C
C     0.8492612 0.5612612 0.7719913     C
C     0.8492612 0.7280113 0.0612612     C
C     0.8492612 0.7280113 0.9387412     C
C     0.8492612 0.7719913 0.4387412     C
C     0.8492612 0.7719913 0.5612612     C
C     0.8492612 0.9387412 0.2719913     C
C     0.8492612 0.9387412 0.7280113     C
S     0.858593 0.086204 0.249534     S
S     0.858593 0.086204 0.750474     S
S     0.858593 0.249534 0.086204     S
S     0.858593 0.249534 0.913804     S
S     0.858593 0.250474 0.413804     S
S     0.858593 0.250474 0.586204     S
S     0.858593 0.413804 0.250474     S
S     0.858593 0.413804 0.749534     S
S     0.858593 0.586204 0.250474     S
S     0.858593 0.586204 0.749534     S
S     0.858593 0.749534 0.413804     S
S     0.858593 0.749534 0.586204     S
S     0.858593 0.750474 0.086204     S
S     0.858593 0.750474 0.913804     S
S     0.858593 0.913804 0.249534     S
S     0.858593 0.913804 0.750474     S
H       0.8641   0.0465   0.3065     H
H       0.8641   0.0465   0.6935     H
H       0.8641   0.1935   0.4535     H
H       0.8641   0.1935   0.5465     H
H       0.8641   0.3065   0.0465     H
H       0.8641   0.3065   0.9535     H
H       0.8641   0.4535   0.1935     H
H       0.8641   0.4535   0.8065     H
H       0.8641   0.5465   0.1935     H
H       0.8641   0.5465   0.8065     H
H       0.8641   0.6935   0.0465     H
H       0.8641   0.6935   0.9535     H
H       0.8641   0.8065   0.4535     H
H       0.8641   0.8065   0.5465     H
H       0.8641   0.9535   0.3065     H
H       0.8641   0.9535   0.6935     H
C     0.8657014 0.0594013 0.2930914     C
C     0.8657014 0.0594013 0.7069114     C
C     0.8657014 0.2069114 0.4406013     C
C     0.8657014 0.2069114 0.5594013     C
C     0.8657014 0.2930914 0.0594013     C
C     0.8657014 0.2930914 0.9406013     C
C     0.8657014 0.4406013 0.2069114     C
C     0.8657014 0.4406013 0.7930914     C
C     0.8657014 0.5594013 0.2069114     C
C     0.8657014 0.5594013 0.7930914     C
C     0.8657014 0.7069114 0.0594013     C
C     0.8657014 0.7069114 0.9406013     C
C     0.8657014 0.7930914 0.4406013     C
C     0.8657014 0.7930914 0.5594013     C
C     0.8657014 0.9406013 0.2930914     C
C     0.8657014 0.9406013 0.7069114     C
C     0.8843013 0.0953813 0.2704414     C
C     0.8843013 0.0953813 0.7295614     C
C     0.8843013 0.2295614 0.4046213     C
C     0.8843013 0.2295614 0.5953813     C
C     0.8843013 0.2704414 0.0953813     C
C     0.8843013 0.2704414 0.9046213     C
C     0.8843013 0.4046213 0.2295614     C
C     0.8843013 0.4046213 0.7704414     C
C     0.8843013 0.5953813 0.2295614     C
C     0.8843013 0.5953813 0.7704414     C
C     0.8843013 0.7295614 0.0953813     C
C     0.8843013 0.7295614 0.9046213     C
C     0.8843013 0.7704414 0.4046213     C
C     0.8843013 0.7704414 0.5953813     C
C     0.8843013 0.9046213 0.2704414     C
C     0.8843013 0.9046213 0.7295614     C
C     0.8858116 0.0795016 0.2924116     C
C     0.8858116 0.0795016 0.7075916     C
C     0.8858116 0.2075916 0.4205016     C
C     0.8858116 0.2075916 0.5795016     C
C     0.8858116 0.2924116 0.0795016     C
C     0.8858116 0.2924116 0.9205016     C
C     0.8858116 0.4205016 0.2075916     C
C     0.8858116 0.4205016 0.7924116     C
C     0.8858116 0.5795016 0.2075916     C
C     0.8858116 0.5795016 0.7924116     C
C     0.8858116 0.7075916 0.0795016     C
C     0.8858116 0.7075916 0.9205016     C
C     0.8858116 0.7924116 0.4205016     C
C     0.8858116 0.7924116 0.5795016     C
C     0.8858116 0.9205016 0.2924116     C
C     0.8858116 0.9205016 0.7075916     C
C     0.9046213 0.1157013 0.2704414     C
C     0.9046213 0.1157013 0.7295614     C
C     0.9046213 0.2295614 0.3843013     C
C     0.9046213 0.2295614 0.6157013     C
C     0.9046213 0.2704414 0.1157013     C
C     0.9046213 0.2704414 0.8843013     C
C     0.9046213 0.3843013 0.2295614     C
C     0.9046213 0.3843013 0.7704414     C
C     0.9046213 0.6157013 0.2295614     C
C     0.9046213 0.6157013 0.7704414     C
C     0.9046213 0.7295614 0.1157013     C
C     0.9046213 0.7295614 0.8843013     C
C     0.9046213 0.7704414 0.3843013     C
C     0.9046213 0.7704414 0.6157013     C
C     0.9046213 0.8843013 0.2704414     C
C     0.9046213 0.8843013 0.7295614     C
S     0.911047 0.088967 0.314617     S
S     0.911047 0.088967 0.685397     S
S     0.911047 0.185397 0.411047     S
S     0.911047 0.185397 0.588967     S
S     0.911047 0.314617 0.088967     S
S     0.911047 0.314617 0.911047     S
S     0.911047 0.411047 0.185397     S
S     0.911047 0.411047 0.814617     S
S     0.911047 0.588967 0.185397     S
S     0.911047 0.588967 0.814617     S
S     0.911047 0.685397 0.088967     S
S     0.911047 0.685397 0.911047     S
S     0.911047 0.814617 0.411047     S
S     0.911047 0.814617 0.588967     S
S     0.911047 0.911047 0.314617     S
S     0.911047 0.911047 0.685397     S
S     0.913804 0.141413 0.249534     S
S     0.913804 0.141413 0.750474     S
S     0.913804 0.249534 0.141413     S
S     0.913804 0.249534 0.858593     S
S     0.913804 0.250474 0.358593     S
S     0.913804 0.250474 0.641413     S
S     0.913804 0.358593 0.250474     S
S     0.913804 0.358593 0.749534     S
S     0.913804 0.641413 0.250474     S
S     0.913804 0.641413 0.749534     S
S     0.913804 0.749534 0.358593     S
S     0.913804 0.749534 0.641413     S
S     0.913804 0.750474 0.141413     S
S     0.913804 0.750474 0.858593     S
S     0.913804 0.858593 0.249534     S
S     0.913804 0.858593 0.750474     S
C     0.9205016 0.1141916 0.2924116     C
C     0.9205016 0.1141916 0.7075916     C
C     0.9205016 0.2075916 0.3858116     C
C     0.9205016 0.2075916 0.6141916     C
C     0.9205016 0.2924116 0.1141916     C
C     0.9205016 0.2924116 0.8858116     C
C     0.9205016 0.3858116 0.2075916     C
C     0.9205016 0.3858116 0.7924116     C
C     0.9205016 0.6141916 0.2075916     C
C     0.9205016 0.6141916 0.7924116     C
C     0.9205016 0.7075916 0.1141916     C
C     0.9205016 0.7075916 0.8858116     C
C     0.9205016 0.7924116 0.3858116     C
C     0.9205016 0.7924116 0.6141916     C
C     0.9205016 0.8858116 0.2924116     C
C     0.9205016 0.8858116 0.7075916     C
O     0.921549 0.226901 0.226901     O
O     0.921549 0.226901 0.773101     O
O     0.921549 0.273101 0.273101     O
O     0.921549 0.273101 0.726901     O
O     0.921549 0.726901 0.273101     O
O     0.921549 0.726901 0.726901     O
O     0.921549 0.773101 0.226901     O
O     0.921549 0.773101 0.773101     O
C     0.9387412 0.1507412 0.2719913     C
C     0.9387412 0.1507412 0.7280113     C
C     0.9387412 0.2280113 0.3492612     C
C     0.9387412 0.2280113 0.6507412     C
C     0.9387412 0.2719913 0.1507412     C
C     0.9387412 0.2719913 0.8492612     C
C     0.9387412 0.3492612 0.2280113     C
C     0.9387412 0.3492612 0.7719913     C
C     0.9387412 0.6507412 0.2280113     C
C     0.9387412 0.6507412 0.7719913     C
C     0.9387412 0.7280113 0.1507412     C
C     0.9387412 0.7280113 0.8492612     C
C     0.9387412 0.7719913 0.3492612     C
C     0.9387412 0.7719913 0.6507412     C
C     0.9387412 0.8492612 0.2719913     C
C     0.9387412 0.8492612 0.7280113     C
C     0.9406013 0.1343014 0.2930914     C
C     0.9406013 0.1343014 0.7069114     C
C     0.9406013 0.2069114 0.3657014     C
C     0.9406013 0.2069114 0.6343014     C
C     0.9406013 0.2930914 0.1343014     C
C     0.9406013 0.2930914 0.8657014     C
C     0.9406013 0.3657014 0.2069114     C
C     0.9406013 0.3657014 0.7930914     C
C     0.9406013 0.6343014 0.2069114     C
C     0.9406013 0.6343014 0.7930914     C
C     0.9406013 0.7069114 0.1343014     C
C     0.9406013 0.7069114 0.8657014     C
C     0.9406013 0.7930914 0.3657014     C
C     0.9406013 0.7930914 0.6343014     C
C     0.9406013 0.8657014 0.2930914     C
C     0.9406013 0.8657014 0.7069114     C
O     0.950458 0.186367 0.243997     O
O     0.950458 0.186367 0.756017     O
O     0.950458 0.243997 0.186367     O
O     0.950458 0.243997 0.813647     O
O     0.950458 0.256017 0.313647     O
O     0.950458 0.256017 0.686367     O
O     0.950458 0.313647 0.256017     O
O     0.950458 0.313647 0.743997     O
O     0.950458 0.686367 0.256017     O
O     0.950458 0.686367 0.743997     O
O     0.950458 0.743997 0.313647     O
O     0.950458 0.743997 0.686367     O
O     0.950458 0.756017 0.186367     O
O     0.950458 0.756017 0.813647     O
O     0.950458 0.813647 0.243997     O
O     0.950458 0.813647 0.756017     O
H       0.9535   0.1359   0.3065     H
H       0.9535   0.1359   0.6935     H
H       0.9535   0.1935   0.3641     H
H       0.9535   0.1935   0.6359     H
H       0.9535   0.3065   0.1359     H
H       0.9535   0.3065   0.8641     H
H       0.9535   0.3641   0.1935     H
H       0.9535   0.3641   0.8065     H
H       0.9535   0.6359   0.1935     H
H       0.9535   0.6359   0.8065     H
H       0.9535   0.6935   0.1359     H
H       0.9535   0.6935   0.8641     H
H       0.9535   0.8065   0.3641     H
H       0.9535   0.8065   0.6359     H
H       0.9535   0.8641   0.3065     H
H       0.9535   0.8641   0.6935     H
C     0.955659 0.174269 0.265541     C
C     0.955659 0.174269 0.734461     C
C     0.955659 0.234461 0.325749     C
C     0.955659 0.234461 0.674269     C
C     0.955659 0.265541 0.174269     C
C     0.955659 0.265541 0.825749     C
C     0.955659 0.325749 0.234461     C
C     0.955659 0.325749 0.765541     C
C     0.955659 0.674269 0.234461     C
C     0.955659 0.674269 0.765541     C
C     0.955659 0.734461 0.174269     C
C     0.955659 0.734461 0.825749     C
C     0.955659 0.765541 0.325749     C
C     0.955659 0.765541 0.674269     C
C     0.955659 0.825749 0.265541     C
C     0.955659 0.825749 0.734461     C
Hf    0.9646894 0.2250693 0.2250693    Hf
Hf    0.9646894 0.2250693 0.7749313    Hf
Hf    0.9646894 0.2749313 0.2749313    Hf
Hf    0.9646894 0.2749313 0.7250693    Hf
Hf    0.9646894 0.7250693 0.2749313    Hf
Hf    0.9646894 0.7250693 0.7250693    Hf
Hf    0.9646894 0.7749313 0.2250693    Hf
Hf    0.9646894 0.7749313 0.7749313    Hf
O     0.9650314 0.233038 0.266978     O
O     0.9650314 0.233038 0.733038     O
O     0.9650314 0.266978 0.233038     O
O     0.9650314 0.266978 0.766978     O
O     0.9650314 0.733038 0.233038     O
O     0.9650314 0.733038 0.766978     O
O     0.9650314 0.766978 0.266978     O
O     0.9650314 0.766978 0.733038     O
O     0.9665816 0.194347 0.194347     O
O     0.9665816 0.194347 0.805667     O
O     0.9665816 0.305667 0.305667     O
O     0.9665816 0.305667 0.694347     O
O     0.9665816 0.694347 0.305667     O
O     0.9665816 0.694347 0.694347     O
O     0.9665816 0.805667 0.194347     O
O     0.9665816 0.805667 0.805667     O
O     0.973405 0.180255 0.282315     O
O     0.973405 0.180255 0.717695     O
O     0.973405 0.217695 0.319755     O
O     0.973405 0.217695 0.680255     O
O     0.973405 0.282315 0.180255     O
O     0.973405 0.282315 0.819755     O
O     0.973405 0.319755 0.217695     O
O     0.973405 0.319755 0.782315     O
O     0.973405 0.680255 0.217695     O
O     0.973405 0.680255 0.782315     O
O     0.973405 0.717695 0.180255     O
O     0.973405 0.717695 0.819755     O
O     0.973405 0.782315 0.319755     O
O     0.973405 0.782315 0.680255     O
O     0.973405 0.819755 0.282315     O
O     0.973405 0.819755 0.717695     O
