data_I
_chemical_name_common  '/home/zhangsd/repos/MofS-CGCNN/ML/data/WS24/clean_cifs/dut-68-h'
_cell_length_a 53.51060
_cell_length_b 53.51060
_cell_length_c 53.51060
_cell_angle_alpha 90.00000
_cell_angle_beta  90.00000
_cell_angle_gamma 90.00000
_space_group_name_H-M_alt      'P 1'


loop_
_space_group_symop_operation_xyz
  'x, y, z' 

loop_
_atom_site_label
_atom_site_fract_x
_atom_site_fract_y
_atom_site_fract_z
_atom_site_type_symbol
S          0.0 0.116778 0.308367     S
S          0.0 0.116778 0.691647     S
Hf         0.0 0.20407211      0.5    Hf
O          0.0 0.2302913 0.4719413     O
O          0.0 0.2302913 0.5280613     O
O          0.0 0.2753216 0.4622314     O
O          0.0 0.2753216 0.5377714     O
Hf         0.0 0.29592811      0.5    Hf
S          0.0 0.308367 0.116778     S
S          0.0 0.308367 0.883238     S
O          0.0 0.4622314 0.2753216     O
O          0.0 0.4622314 0.7246816     O
O          0.0 0.4719413 0.2302913     O
O          0.0 0.4719413 0.7697113     O
Hf         0.0      0.5 0.20407211    Hf
Hf         0.0      0.5 0.29592811    Hf
Hf         0.0      0.5 0.70407211    Hf
Hf         0.0      0.5 0.79592811    Hf
O          0.0 0.5280613 0.2302913     O
O          0.0 0.5280613 0.7697113     O
O          0.0 0.5377714 0.2753216     O
O          0.0 0.5377714 0.7246816     O
S          0.0 0.691647 0.116778     S
S          0.0 0.691647 0.883238     S
Hf         0.0 0.70407211      0.5    Hf
O          0.0 0.7246816 0.4622314     O
O          0.0 0.7246816 0.5377714     O
O          0.0 0.7697113 0.4719413     O
O          0.0 0.7697113 0.5280613     O
Hf         0.0 0.79592811      0.5    Hf
S          0.0 0.883238 0.308367     S
S          0.0 0.883238 0.691647     S
C      0.01302  0.09304  0.34754     C
C      0.01302  0.09304  0.65254     C
C      0.01302  0.34754  0.09304     C
C      0.01302  0.34754  0.90704     C
C      0.01302  0.65254  0.09304     C
C      0.01302  0.65254  0.90704     C
C      0.01302  0.90704  0.34754     C
C      0.01302  0.90704  0.65254     C
O      0.01367  0.29059  0.41407     O
O      0.01367  0.29059  0.58607     O
O      0.01367  0.41407  0.29059     O
O      0.01367  0.41407  0.70959     O
O      0.01367  0.58607  0.29059     O
O      0.01367  0.58607  0.70959     O
O      0.01367  0.70959  0.41407     O
O      0.01367  0.70959  0.58607     O
H       0.0226   0.0855     0.36     H
H       0.0226   0.0855     0.64     H
H       0.0226     0.36   0.0855     H
H       0.0226     0.36   0.9145     H
H       0.0226     0.64   0.0855     H
H       0.0226     0.64   0.9145     H
H       0.0226   0.9145     0.36     H
H       0.0226   0.9145     0.64     H
C     0.0229117  0.10512  0.32742     C
C     0.0229117  0.10512  0.67262     C
C     0.0229117  0.32742  0.10512     C
C     0.0229117  0.32742  0.89492     C
C     0.0229117  0.67262  0.10512     C
C     0.0229117  0.67262  0.89492     C
C     0.0229117  0.89492  0.32742     C
C     0.0229117  0.89492  0.67262     C
O     0.0243211 0.1826411 0.474491     O
O     0.0243211 0.1826411 0.525511     O
O     0.0243211 0.474491 0.1826411     O
O     0.0243211 0.474491 0.8173611     O
O     0.0243211 0.525511 0.1826411     O
O     0.0243211 0.525511 0.8173611     O
O     0.0243211 0.8173611 0.474491     O
O     0.0243211 0.8173611 0.525511     O
O     0.025511 0.3173611 0.4756811     O
O     0.025511 0.3173611 0.5243211     O
O     0.025511 0.4756811 0.3173611     O
O     0.025511 0.4756811 0.6826411     O
O     0.025511 0.5243211 0.3173611     O
O     0.025511 0.5243211 0.6826411     O
O     0.025511 0.6826411 0.4756811     O
O     0.025511 0.6826411 0.5243211     O
O     0.0280613 0.2697113      0.5     O
O     0.0280613      0.5 0.2697113     O
O     0.0280613      0.5 0.7302913     O
O     0.0280613 0.7302913      0.5     O
H       0.0311   0.1381   0.4492     H
H       0.0311   0.1381   0.5508     H
H       0.0311   0.4492   0.1381     H
H       0.0311   0.4492   0.8619     H
H       0.0311   0.5508   0.1381     H
H       0.0311   0.5508   0.8619     H
H       0.0311   0.8619   0.4492     H
H       0.0311   0.8619   0.5508     H
O      0.03122 0.2530815 0.4268815     O
O      0.03122 0.2530815 0.5731215     O
O      0.03122 0.4268815 0.2530815     O
O      0.03122 0.4268815 0.7469215     O
O      0.03122 0.5731215 0.2530815     O
O      0.03122 0.5731215 0.7469215     O
O      0.03122 0.7469215 0.4268815     O
O      0.03122 0.7469215 0.5731215     O
C      0.03178  0.27308  0.41377     C
C      0.03178  0.27308  0.58637     C
C      0.03178  0.41377  0.27308     C
C      0.03178  0.41377  0.72708     C
C      0.03178  0.58637  0.27308     C
C      0.03178  0.58637  0.72708     C
C      0.03178  0.72708  0.41377     C
C      0.03178  0.72708  0.58637     C
Hf    0.0329206     0.25 0.4670806    Hf
Hf    0.0329206     0.25 0.5329206    Hf
Hf    0.0329206 0.4670806     0.25    Hf
Hf    0.0329206 0.4670806     0.75    Hf
Hf    0.0329206 0.5329206     0.25    Hf
Hf    0.0329206 0.5329206     0.75    Hf
Hf    0.0329206     0.75 0.4670806    Hf
Hf    0.0329206     0.75 0.5329206    Hf
C      0.03662 0.1901017 0.4563016     C
C      0.03662 0.1901017 0.5437016     C
C      0.03662 0.4563016 0.1901017     C
C      0.03662 0.4563016 0.8099017     C
C      0.03662 0.5437016 0.1901017     C
C      0.03662 0.5437016 0.8099017     C
C      0.03662 0.8099017 0.4563016     C
C      0.03662 0.8099017 0.5437016     C
O     0.0377714 0.2246816      0.5     O
O     0.0377714      0.5 0.2246816     O
O     0.0377714      0.5 0.7753216     O
O     0.0377714 0.7753216      0.5     O
C      0.04174  0.14602  0.43794     C
C      0.04174  0.14602  0.56214     C
C      0.04174  0.43794  0.14602     C
C      0.04174  0.43794  0.85402     C
C      0.04174  0.56214  0.14602     C
C      0.04174  0.56214  0.85402     C
C      0.04174  0.85402  0.43794     C
C      0.04174  0.85402  0.56214     C
O     0.0424415 0.2123312 0.4507214     O
O     0.0424415 0.2123312 0.5492814     O
O     0.0424415 0.4507214 0.2123312     O
O     0.0424415 0.4507214 0.7876712     O
O     0.0424415 0.5492814 0.2123312     O
O     0.0424415 0.5492814 0.7876712     O
O     0.0424415 0.7876712 0.4507214     O
O     0.0424415 0.7876712 0.5492814     O
C     0.0437016 0.3099017  0.46342     C
C     0.0437016 0.3099017  0.53662     C
C     0.0437016  0.46342 0.3099017     C
C     0.0437016  0.46342 0.6901017     C
C     0.0437016  0.53662 0.3099017     C
C     0.0437016  0.53662 0.6901017     C
C     0.0437016 0.6901017  0.46342     C
C     0.0437016 0.6901017  0.53662     C
C      0.04672 0.1710418  0.43832     C
C      0.04672 0.1710418  0.56172     C
C      0.04672  0.43832 0.1710418     C
C      0.04672  0.43832 0.8289618     C
C      0.04672  0.56172 0.1710418     C
C      0.04672  0.56172 0.8289618     C
C      0.04672 0.8289618  0.43832     C
C      0.04672 0.8289618  0.56172     C
O     0.0492814 0.2876712 0.4575616     O
O     0.0492814 0.2876712 0.5424416     O
O     0.0492814 0.4575615 0.7123312     O
O     0.0492814 0.4575616 0.2876712     O
O     0.0492814 0.5424415 0.7123312     O
O     0.0492814 0.5424416 0.2876712     O
O     0.0492814 0.7123312 0.4575615     O
O     0.0492814 0.7123312 0.5424415     O
C     0.0495716 0.1095018 0.3219117     C
C     0.0495716 0.1095018 0.6780917     C
C     0.0495716 0.3219117 0.1095018     C
C     0.0495716 0.3219117 0.8905018     C
C     0.0495716 0.6780917 0.1095018     C
C     0.0495716 0.6780917 0.8905018     C
C     0.0495716 0.8905018 0.3219117     C
C     0.0495716 0.8905018 0.6780917     C
H       0.0508   0.3619   0.4689     H
H       0.0508   0.3619   0.5311     H
H       0.0508   0.4689   0.3619     H
H       0.0508   0.4689   0.6381     H
H       0.0508   0.5311   0.3619     H
H       0.0508   0.5311   0.6381     H
H       0.0508   0.6381   0.4689     H
H       0.0508   0.6381   0.5311     H
H       0.0535   0.1162   0.4158     H
H       0.0535   0.1162   0.5842     H
H       0.0535   0.4158   0.1162     H
H       0.0535   0.4158   0.8838     H
H       0.0535   0.5842   0.1162     H
H       0.0535   0.5842   0.8838     H
H       0.0535   0.8838   0.4158     H
H       0.0535   0.8838   0.5842     H
C      0.05444  0.13332  0.41852     C
C      0.05444  0.13332  0.58152     C
C      0.05444  0.41852  0.13332     C
C      0.05444  0.41852  0.86672     C
C      0.05444  0.58152  0.13332     C
C      0.05444  0.58152  0.86672     C
C      0.05444  0.86672  0.41852     C
C      0.05444  0.86672  0.58152     C
O     0.0548311 0.1233114 0.3036013     O
O     0.0548311 0.1233114 0.6964013     O
O     0.0548311 0.3036013 0.1233114     O
O     0.0548311 0.3036013 0.8766914     O
O     0.0548311 0.6964013 0.1233114     O
O     0.0548311 0.6964013 0.8766914     O
O     0.0548311 0.8766914 0.3036013     O
O     0.0548311 0.8766914 0.6964013     O
C      0.05608  0.27888  0.40037     C
C      0.05608  0.27888  0.59977     C
C      0.05608  0.40037  0.27888     C
C      0.05608  0.40037  0.72128     C
C      0.05608  0.59977  0.27888     C
C      0.05608  0.59977  0.72128     C
C      0.05608  0.72128  0.40037     C
C      0.05608  0.72128  0.59977     C
S      0.05822  0.30764  0.38454     S
S      0.05822  0.30764  0.61554     S
S      0.05822  0.38454  0.30764     S
S      0.05822  0.38454  0.69244     S
S      0.05822  0.61554  0.30764     S
S      0.05822  0.61554  0.69244     S
S      0.05822  0.69244  0.38454     S
S      0.05822  0.69244  0.61554     S
C      0.06172 0.3289618  0.45332     C
C      0.06172 0.3289618  0.54672     C
C      0.06172  0.45332 0.3289618     C
C      0.06172  0.45332 0.6710418     C
C      0.06172  0.54672 0.3289618     C
C      0.06172  0.54672 0.6710418     C
C      0.06172 0.6710418  0.45332     C
C      0.06172 0.6710418  0.54672     C
C      0.06214  0.35402  0.45834     C
C      0.06214  0.35402  0.54174     C
C      0.06214  0.45834  0.35402     C
C      0.06214  0.45834  0.64602     C
C      0.06214  0.54174  0.35402     C
C      0.06214  0.54174  0.64602     C
C      0.06214  0.64602  0.45834     C
C      0.06214  0.64602  0.54174     C
O     0.064631 0.0993511 0.3371711     O
O     0.064631 0.0993511 0.6628311     O
O     0.064631 0.3371711 0.0993511     O
O     0.064631 0.3371711 0.9006511     O
O     0.064631 0.6628311 0.0993511     O
O     0.064631 0.6628311 0.9006511     O
O     0.064631 0.9006511 0.3371711     O
O     0.064631 0.9006511 0.6628311     O
O     0.0648516 0.1685217  0.28932     O
O     0.0648516 0.1685217  0.71072     O
O     0.0648516  0.28932 0.1685217     O
O     0.0648516  0.28932 0.8314817     O
O     0.0648516  0.71072 0.1685217     O
O     0.0648516  0.71072 0.8314817     O
O     0.0648516 0.8314817  0.28932     O
O     0.0648516 0.8314817  0.71072     O
S     0.065367 0.179525 0.414135     S
S     0.065367 0.179525 0.585875     S
S     0.065367 0.414135 0.179525     S
S     0.065367 0.414135 0.820485     S
S     0.065367 0.585875 0.179525     S
S     0.065367 0.585875 0.820485     S
S     0.065367 0.820485 0.414135     S
S     0.065367 0.820485 0.585875     S
C      0.06822 0.1492018  0.40412     C
C      0.06822 0.1492018  0.59592     C
C      0.06822  0.40412 0.1492018     C
C      0.06822  0.40412 0.8508018     C
C      0.06822  0.59592 0.1492018     C
C      0.06822  0.59592 0.8508018     C
C      0.06822 0.8508018  0.40412     C
C      0.06822 0.8508018  0.59592     C
H       0.0728   0.1825   0.2146     H
H       0.0728   0.1825   0.7854     H
H       0.0728   0.2146   0.1825     H
H       0.0728   0.2146   0.8175     H
H       0.0728   0.7854   0.1825     H
H       0.0728   0.7854   0.8175     H
H       0.0728   0.8175   0.2146     H
H       0.0728   0.8175   0.7854     H
O     0.0731215 0.2469215  0.46882     O
O     0.0731215 0.2469215  0.53122     O
O     0.0731215  0.46882 0.2469215     O
O     0.0731215  0.46882 0.7530815     O
O     0.0731215  0.53122 0.2469215     O
O     0.0731215  0.53122 0.7530815     O
O     0.0731215 0.7530815  0.46882     O
O     0.0731215 0.7530815  0.53122     O
O     0.0732916 0.1180716 0.2574814     O
O     0.0732916 0.1180716 0.7425214     O
O     0.0732916 0.2574814 0.1180716     O
O     0.0732916 0.2574814 0.8819316     O
O     0.0732916 0.7425214 0.1180716     O
O     0.0732916 0.7425214 0.8819316     O
O     0.0732916 0.8819316 0.2574814     O
O     0.0732916 0.8819316 0.7425214     O
C     0.079311 0.265811  0.39818     C
C     0.079311 0.265811  0.60198     C
C     0.079311  0.39818 0.265811     C
C     0.079311  0.39818 0.734211     C
C     0.079311  0.60198 0.265811     C
C     0.079311  0.60198 0.734211     C
C     0.079311 0.734211  0.39818     C
C     0.079311 0.734211  0.60198     C
C      0.08152  0.36672  0.44564     C
C      0.08152  0.36672  0.55444     C
C      0.08152  0.44564  0.36672     C
C      0.08152  0.44564  0.63332     C
C      0.08152  0.55444  0.36672     C
C      0.08152  0.55444  0.63332     C
C      0.08152  0.63332  0.44564     C
C      0.08152  0.63332  0.55444     C
H       0.0818   0.2497    0.404     H
H       0.0818   0.2497    0.596     H
H       0.0818    0.404   0.2497     H
H       0.0818    0.404   0.7503     H
H       0.0818    0.596   0.2497     H
H       0.0818    0.596   0.7503     H
H       0.0818   0.7503    0.404     H
H       0.0818   0.7503    0.596     H
C      0.08332 0.1437018 0.3817117     C
C      0.08332 0.1437018 0.6182917     C
C      0.08332 0.3817117 0.1437018     C
C      0.08332 0.3817117 0.8563018     C
C      0.08332 0.6182917 0.1437018     C
C      0.08332 0.6182917 0.8563018     C
C      0.08332 0.8563018 0.3817117     C
C      0.08332 0.8563018 0.6182917     C
H       0.0842   0.3838   0.4465     H
H       0.0842   0.3838   0.5535     H
H       0.0842   0.4465   0.3838     H
H       0.0842   0.4465   0.6162     H
H       0.0842   0.5535   0.3838     H
H       0.0842   0.5535   0.6162     H
H       0.0842   0.6162   0.4465     H
H       0.0842   0.6162   0.5535     H
O     0.0854711 0.1211011 0.3750511     O
O     0.0854711 0.1211011 0.6249511     O
O     0.0854711 0.3750511 0.1211011     O
O     0.0854711 0.3750511 0.8789011     O
O     0.0854711 0.6249511 0.1211011     O
O     0.0854711 0.6249511 0.8789011     O
O     0.0854711 0.8789011 0.3750511     O
O     0.0854711 0.8789011 0.6249511     O
H       0.0855   0.0226     0.36     H
H       0.0855   0.0226     0.64     H
H       0.0855     0.36   0.0226     H
H       0.0855     0.36   0.9774     H
H       0.0855     0.64   0.0226     H
H       0.0855     0.64   0.9774     H
H       0.0855   0.9774     0.36     H
H       0.0855   0.9774     0.64     H
S     0.085875 0.320485 0.434647     S
S     0.085875 0.320485 0.565367     S
S     0.085875 0.434647 0.320485     S
S     0.085875 0.434647 0.679525     S
S     0.085875 0.565367 0.320485     S
S     0.085875 0.565367 0.679525     S
S     0.085875 0.679525 0.434647     S
S     0.085875 0.679525 0.565367     S
O      0.08607  0.20959  0.48647     O
O      0.08607  0.20959  0.51367     O
O      0.08607  0.48647  0.20959     O
O      0.08607  0.48647  0.79059     O
O      0.08607  0.51367  0.20959     O
O      0.08607  0.51367  0.79059     O
O      0.08607  0.79059  0.48647     O
O      0.08607  0.79059  0.51367     O
C      0.08637  0.22708  0.46838     C
C      0.08637  0.22708  0.53178     C
C      0.08637  0.46838  0.22708     C
C      0.08637  0.46838  0.77308     C
C      0.08637  0.53178  0.22708     C
C      0.08637  0.53178  0.77308     C
C      0.08637  0.77308  0.46838     C
C      0.08637  0.77308  0.53178     C
C      0.08682  0.19204  0.21054     C
C      0.08682  0.19204  0.78954     C
C      0.08682  0.21054  0.19204     C
C      0.08682  0.21054  0.80804     C
C      0.08682  0.78954  0.19204     C
C      0.08682  0.78954  0.80804     C
C      0.08682  0.80804  0.21054     C
C      0.08682  0.80804  0.78954     C
C      0.09078  0.30351  0.37739     C
C      0.09078  0.30351  0.62279     C
C      0.09078  0.37739  0.30351     C
C      0.09078  0.37739  0.69651     C
C      0.09078  0.62279  0.30351     C
C      0.09078  0.62279  0.69651     C
C      0.09078  0.69651  0.37739     C
C      0.09078  0.69651  0.62279     C
Hf    0.0913196 0.1377496 0.2876486    Hf
Hf    0.0913196 0.1377496 0.7123526    Hf
Hf    0.0913196 0.2876486 0.1377496    Hf
Hf    0.0913196 0.2876486 0.8622516    Hf
Hf    0.0913196 0.7123526 0.1377496    Hf
Hf    0.0913196 0.7123526 0.8622516    Hf
Hf    0.0913196 0.8622516 0.2876486    Hf
Hf    0.0913196 0.8622516 0.7123526    Hf
O     0.0920918 0.1954716  0.33562     O
O     0.0920918 0.1954716  0.66442     O
O     0.0920918  0.33562 0.1954716     O
O     0.0920918  0.33562 0.8045316     O
O     0.0920918  0.66442 0.1954716     O
O     0.0920918  0.66442 0.8045316     O
O     0.0920918 0.8045316  0.33562     O
O     0.0920918 0.8045316  0.66442     O
C      0.09304  0.01302  0.34754     C
C      0.09304  0.01302  0.65254     C
C      0.09304  0.34754  0.01302     C
C      0.09304  0.34754  0.98702     C
C      0.09304  0.65254  0.01302     C
C      0.09304  0.65254  0.98702     C
C      0.09304  0.98702  0.34754     C
C      0.09304  0.98702  0.65254     C
O     0.0933916 0.1623312 0.3709314     O
O     0.0933916 0.1623312 0.6290714     O
O     0.0933916 0.3709314 0.1623312     O
O     0.0933916 0.3709314 0.8376712     O
O     0.0933916 0.6290714 0.1623312     O
O     0.0933916 0.6290714 0.8376712     O
O     0.0933916 0.8376712 0.3709314     O
O     0.0933916 0.8376712 0.6290714     O
O      0.09465  0.34507  0.36325     O
O      0.09465  0.34507  0.63685     O
O      0.09465  0.36325  0.34507     O
O      0.09465  0.36325  0.65507     O
O      0.09465  0.63685  0.34507     O
O      0.09465  0.63685  0.65507     O
O      0.09465  0.65507  0.36325     O
O      0.09465  0.65507  0.63685     O
C      0.09592 0.3508018  0.43182     C
C      0.09592 0.3508018  0.56822     C
C      0.09592  0.43182 0.3508018     C
C      0.09592  0.43182 0.6492018     C
C      0.09592  0.56822 0.3508018     C
C      0.09592  0.56822 0.6492018     C
C      0.09592 0.6492018  0.43182     C
C      0.09592 0.6492018  0.56822     C
H        0.096   0.2503   0.4182     H
H        0.096   0.2503   0.5818     H
H        0.096   0.4182   0.2503     H
H        0.096   0.4182   0.7497     H
H        0.096   0.5818   0.2503     H
H        0.096   0.5818   0.7497     H
H        0.096   0.7497   0.4182     H
H        0.096   0.7497   0.5818     H
C     0.096411  0.27861  0.38708     C
C     0.096411  0.27861  0.61308     C
C     0.096411  0.38708  0.27861     C
C     0.096411  0.38708  0.72141     C
C     0.096411  0.61308  0.27861     C
C     0.096411  0.61308  0.72141     C
C     0.096411  0.72141  0.38708     C
C     0.096411  0.72141  0.61308     C
O     0.0973213 0.1604314 0.2523713     O
O     0.0973213 0.1604314 0.7476313     O
O     0.0973213 0.2523713 0.1604314     O
O     0.0973213 0.2523713 0.8395714     O
O     0.0973213 0.7476313 0.1604314     O
O     0.0973213 0.7476313 0.8395714     O
O     0.0973213 0.8395714 0.2523713     O
O     0.0973213 0.8395714 0.7476313     O
O     0.0984111 0.138211 0.3253611     O
O     0.0984111 0.138211 0.6746411     O
O     0.0984111 0.3253611 0.138211     O
O     0.0984111 0.3253611 0.861791     O
O     0.0984111 0.6746411 0.138211     O
O     0.0984111 0.6746411 0.861791     O
O     0.0984111 0.861791 0.3253611     O
O     0.0984111 0.861791 0.6746411     O
O     0.0987512 0.0987512 0.2995117     O
O     0.0987512 0.0987512 0.7004917     O
O     0.0987512 0.2995117 0.0987512     O
O     0.0987512 0.2995117 0.9012512     O
O     0.0987512 0.7004917 0.0987512     O
O     0.0987512 0.7004917 0.9012512     O
O     0.0987512 0.9012512 0.2995117     O
O     0.0987512 0.9012512 0.7004917     O
O     0.0993511 0.064631 0.3371711     O
O     0.0993511 0.064631 0.6628311     O
O     0.0993511 0.3371711 0.064631     O
O     0.0993511 0.3371711 0.935371     O
O     0.0993511 0.6628311 0.064631     O
O     0.0993511 0.6628311 0.935371     O
O     0.0993511 0.935371 0.3371711     O
O     0.0993511 0.935371 0.6628311     O
C      0.09977  0.22128  0.44408     C
C      0.09977  0.22128  0.55608     C
C      0.09977  0.44408  0.22128     C
C      0.09977  0.44408  0.77888     C
C      0.09977  0.55608  0.22128     C
C      0.09977  0.55608  0.77888     C
C      0.09977  0.77888  0.44408     C
C      0.09977  0.77888  0.55608     C
C      0.10198 0.234211 0.420711     C
C      0.10198 0.234211 0.579311     C
C      0.10198 0.420711 0.234211     C
C      0.10198 0.420711 0.765811     C
C      0.10198 0.579311 0.234211     C
C      0.10198 0.579311 0.765811     C
C      0.10198 0.765811 0.420711     C
C      0.10198 0.765811 0.579311     C
Hf    0.1043555 0.1043555 0.3426258    Hf
Hf    0.1043555 0.1043555 0.6573758    Hf
Hf    0.1043555 0.3426258 0.1043555    Hf
Hf    0.1043555 0.3426258 0.8956455    Hf
Hf    0.1043555 0.6573758 0.1043555    Hf
Hf    0.1043555 0.6573758 0.8956455    Hf
Hf    0.1043555 0.8956455 0.3426258    Hf
Hf    0.1043555 0.8956455 0.6573758    Hf
C      0.10512 0.0229117  0.32742     C
C      0.10512 0.0229117  0.67262     C
C      0.10512  0.32742 0.0229117     C
C      0.10512  0.32742 0.9770917     C
C      0.10512  0.67262 0.0229117     C
C      0.10512  0.67262 0.9770917     C
C      0.10512 0.9770917  0.32742     C
C      0.10512 0.9770917  0.67262     C
C      0.10634  0.32487  0.36674     C
C      0.10634  0.32487  0.63334     C
C      0.10634  0.36674  0.32487     C
C      0.10634  0.36674  0.67527     C
C      0.10634  0.63334  0.32487     C
C      0.10634  0.63334  0.67527     C
C      0.10634  0.67527  0.36674     C
C      0.10634  0.67527  0.63334     C
C      0.10922  0.18932  0.22172     C
C      0.10922  0.18932  0.77832     C
C      0.10922  0.22172  0.18932     C
C      0.10922  0.22172  0.81072     C
C      0.10922  0.77832  0.18932     C
C      0.10922  0.77832  0.81072     C
C      0.10922  0.81072  0.22172     C
C      0.10922  0.81072  0.77832     C
C     0.1095018 0.0495716 0.3219117     C
C     0.1095018 0.0495716 0.6780917     C
C     0.1095018 0.3219117 0.0495716     C
C     0.1095018 0.3219117 0.9504316     C
C     0.1095018 0.6780917 0.0495716     C
C     0.1095018 0.6780917 0.9504316     C
C     0.1095018 0.9504316 0.3219117     C
C     0.1095018 0.9504316 0.6780917     C
H       0.1124    0.272   0.3852     H
H       0.1124    0.272   0.6148     H
H       0.1124   0.3852    0.272     H
H       0.1124   0.3852    0.728     H
H       0.1124   0.6148    0.272     H
H       0.1124   0.6148    0.728     H
H       0.1124    0.728   0.3852     H
H       0.1124    0.728   0.6148     H
C      0.11308  0.22141 0.403611     C
C      0.11308  0.22141 0.596411     C
C      0.11308 0.403611  0.22141     C
C      0.11308 0.403611  0.77861     C
C      0.11308 0.596411  0.22141     C
C      0.11308 0.596411  0.77861     C
C      0.11308  0.77861 0.403611     C
C      0.11308  0.77861 0.596411     C
H       0.1148    0.228   0.3876     H
H       0.1148    0.228   0.6124     H
H       0.1148   0.3876    0.228     H
H       0.1148   0.3876    0.772     H
H       0.1148   0.6124    0.228     H
H       0.1148   0.6124    0.772     H
H       0.1148    0.772   0.3876     H
H       0.1148    0.772   0.6124     H
S      0.11554  0.19244  0.44182     S
S      0.11554  0.19244  0.55822     S
S      0.11554  0.44182  0.19244     S
S      0.11554  0.44182  0.80764     S
S      0.11554  0.55822  0.19244     S
S      0.11554  0.55822  0.80764     S
S      0.11554  0.80764  0.44182     S
S      0.11554  0.80764  0.55822     S
C     0.1157517 0.1727317 0.2432717     C
C     0.1157517 0.1727317 0.7567317     C
C     0.1157517 0.2432717 0.1727317     C
C     0.1157517 0.2432717 0.8272717     C
C     0.1157517 0.7567317 0.1727317     C
C     0.1157517 0.7567317 0.8272717     C
C     0.1157517 0.8272717 0.2432717     C
C     0.1157517 0.8272717 0.7567317     C
H       0.1162   0.0535   0.4158     H
H       0.1162   0.0535   0.5842     H
H       0.1162   0.4158   0.0535     H
H       0.1162   0.4158   0.9465     H
H       0.1162   0.5842   0.0535     H
H       0.1162   0.5842   0.9465     H
H       0.1162   0.9465   0.4158     H
H       0.1162   0.9465   0.5842     H
O     0.1164812 0.1694112 0.2974312     O
O     0.1164812 0.1694112 0.7025712     O
O     0.1164812 0.2974312 0.1694112     O
O     0.1164812 0.2974312 0.8305912     O
O     0.1164812 0.7025712 0.1694112     O
O     0.1164812 0.7025712 0.8305912     O
O     0.1164812 0.8305912 0.2974312     O
O     0.1164812 0.8305912 0.7025712     O
S     0.116778      0.0 0.308367     S
S     0.116778      0.0 0.691647     S
S     0.116778 0.308367      0.0     S
S     0.116778 0.691647      0.0     S
O     0.1180716 0.0732916 0.2574814     O
O     0.1180716 0.0732916 0.7425214     O
O     0.1180716 0.2574814 0.0732916     O
O     0.1180716 0.2574814 0.9267116     O
O     0.1180716 0.7425214 0.0732916     O
O     0.1180716 0.7425214 0.9267116     O
O     0.1180716 0.9267116 0.2574814     O
O     0.1180716 0.9267116 0.7425214     O
C     0.1182917 0.3563018  0.41672     C
C     0.1182917 0.3563018  0.58332     C
C     0.1182917  0.41672 0.3563018     C
C     0.1182917  0.41672 0.6437018     C
C     0.1182917  0.58332 0.3563018     C
C     0.1182917  0.58332 0.6437018     C
C     0.1182917 0.6437018  0.41672     C
C     0.1182917 0.6437018  0.58332     C
Hf    0.1204527 0.1671016 0.3386946    Hf
Hf    0.1204527 0.1671016 0.6613066    Hf
Hf    0.1204527 0.3386946 0.1671016    Hf
Hf    0.1204527 0.3386946 0.8328996    Hf
Hf    0.1204527 0.6613066 0.1671016    Hf
Hf    0.1204527 0.6613066 0.8328996    Hf
Hf    0.1204527 0.8328996 0.3386946    Hf
Hf    0.1204527 0.8328996 0.6613066    Hf
O     0.1211011 0.0854711 0.3750511     O
O     0.1211011 0.0854711 0.6249511     O
O     0.1211011 0.3750511 0.0854711     O
O     0.1211011 0.3750511 0.9145311     O
O     0.1211011 0.6249511 0.0854711     O
O     0.1211011 0.6249511 0.9145311     O
O     0.1211011 0.9145311 0.3750511     O
O     0.1211011 0.9145311 0.6249511     O
C      0.12279  0.19651  0.40938     C
C      0.12279  0.19651  0.59078     C
C      0.12279  0.40938  0.19651     C
C      0.12279  0.40938  0.80351     C
C      0.12279  0.59078  0.19651     C
C      0.12279  0.59078  0.80351     C
C      0.12279  0.80351  0.40938     C
C      0.12279  0.80351  0.59078     C
O     0.1233114 0.0548311 0.3036013     O
O     0.1233114 0.0548311 0.6964013     O
O     0.1233114 0.3036013 0.0548311     O
O     0.1233114 0.3036013 0.9451711     O
O     0.1233114 0.6964013 0.0548311     O
O     0.1233114 0.6964013 0.9451711     O
O     0.1233114 0.9451711 0.3036013     O
O     0.1233114 0.9451711 0.6964013     O
O     0.1249511 0.3789011 0.4145311     O
O     0.1249511 0.3789011 0.5854711     O
O     0.1249511 0.4145311 0.3789011     O
O     0.1249511 0.4145311 0.6211011     O
O     0.1249511 0.5854711 0.3789011     O
O     0.1249511 0.5854711 0.6211011     O
O     0.1249511 0.6211011 0.4145311     O
O     0.1249511 0.6211011 0.5854711     O
O     0.127341 0.127341 0.2784816     O
O     0.127341 0.127341 0.7215216     O
O     0.127341 0.2784816 0.127341     O
O     0.127341 0.2784816 0.872661     O
O     0.127341 0.7215216 0.127341     O
O     0.127341 0.7215216 0.872661     O
O     0.127341 0.872661 0.2784816     O
O     0.127341 0.872661 0.7215216     O
O     0.1284014 0.3177216  0.36152     O
O     0.1284014 0.3177216  0.63852     O
O     0.1284014  0.36152 0.3177216     O
O     0.1284014  0.36152 0.6822816     O
O     0.1284014  0.63852 0.3177216     O
O     0.1284014  0.63852 0.6822816     O
O     0.1284014 0.6822816  0.36152     O
O     0.1284014 0.6822816  0.63852     O
O     0.1290714 0.3376712 0.4066116     O
O     0.1290714 0.3376712 0.5933916     O
O     0.1290714 0.4066116 0.3376712     O
O     0.1290714 0.4066116 0.6623312     O
O     0.1290714 0.5933916 0.3376712     O
O     0.1290714 0.5933916 0.6623312     O
O     0.1290714 0.6623312 0.4066116     O
O     0.1290714 0.6623312 0.5933916     O
S     0.130907 0.209226 0.209226     S
S     0.130907 0.209226 0.790786     S
S     0.130907 0.790786 0.209226     S
S     0.130907 0.790786 0.790786     S
O     0.1319611 0.1319611 0.3584917     O
O     0.1319611 0.1319611 0.6415117     O
O     0.1319611 0.3584917 0.1319611     O
O     0.1319611 0.3584917 0.8680411     O
O     0.1319611 0.6415117 0.1319611     O
O     0.1319611 0.6415117 0.8680411     O
O     0.1319611 0.8680411 0.3584917     O
O     0.1319611 0.8680411 0.6415117     O
C      0.13332  0.05444  0.41852     C
C      0.13332  0.05444  0.58152     C
C      0.13332  0.41852  0.05444     C
C      0.13332  0.41852  0.94564     C
C      0.13332  0.58152  0.05444     C
C      0.13332  0.58152  0.94564     C
C      0.13332  0.94564  0.41852     C
C      0.13332  0.94564  0.58152     C
C      0.13334  0.17527  0.39374     C
C      0.13334  0.17527  0.60634     C
C      0.13334  0.39374  0.17527     C
C      0.13334  0.39374  0.82487     C
C      0.13334  0.60634  0.17527     C
C      0.13334  0.60634  0.82487     C
C      0.13334  0.82487  0.39374     C
C      0.13334  0.82487  0.60634     C
O      0.13685  0.15507  0.40545     O
O      0.13685  0.15507  0.59465     O
O      0.13685  0.40545  0.15507     O
O      0.13685  0.40545  0.84507     O
O      0.13685  0.59465  0.15507     O
O      0.13685  0.59465  0.84507     O
O      0.13685  0.84507  0.40545     O
O      0.13685  0.84507  0.59465     O
O     0.1376111 0.1727711 0.2509211     O
O     0.1376111 0.1727711 0.7490811     O
O     0.1376111 0.2509211 0.1727711     O
O     0.1376111 0.2509211 0.8272311     O
O     0.1376111 0.7490811 0.1727711     O
O     0.1376111 0.7490811 0.8272311     O
O     0.1376111 0.8272311 0.2509211     O
O     0.1376111 0.8272311 0.7490811     O
Hf    0.1377496 0.0913196 0.2876486    Hf
Hf    0.1377496 0.0913196 0.7123526    Hf
Hf    0.1377496 0.2876486 0.0913196    Hf
Hf    0.1377496 0.2876486 0.9086816    Hf
Hf    0.1377496 0.7123526 0.0913196    Hf
Hf    0.1377496 0.7123526 0.9086816    Hf
Hf    0.1377496 0.9086816 0.2876486    Hf
Hf    0.1377496 0.9086816 0.7123526    Hf
H       0.1381   0.0311   0.4492     H
H       0.1381   0.0311   0.5508     H
H       0.1381   0.4492   0.0311     H
H       0.1381   0.4492   0.9689     H
H       0.1381   0.5508   0.0311     H
H       0.1381   0.5508   0.9689     H
H       0.1381   0.9689   0.4492     H
H       0.1381   0.9689   0.5508     H
O     0.138211 0.0984111 0.3253611     O
O     0.138211 0.0984111 0.6746411     O
O     0.138211 0.3253611 0.0984111     O
O     0.138211 0.3253611 0.9015911     O
O     0.138211 0.6746411 0.0984111     O
O     0.138211 0.6746411 0.9015911     O
O     0.138211 0.9015911 0.3253611     O
O     0.138211 0.9015911 0.6746411     O
O      0.13852 0.1822816 0.3716014     O
O      0.13852 0.1822816 0.6284014     O
O      0.13852 0.3716014 0.1822816     O
O      0.13852 0.3716014 0.8177216     O
O      0.13852 0.6284014 0.1822816     O
O      0.13852 0.6284014 0.8177216     O
O      0.13852 0.8177216 0.3716014     O
O      0.13852 0.8177216 0.6284014     O
H         0.14   0.4145   0.4774     H
H         0.14   0.4145   0.5226     H
H         0.14   0.4774   0.4145     H
H         0.14   0.4774   0.5855     H
H         0.14   0.5226   0.4145     H
H         0.14   0.5226   0.5855     H
H         0.14   0.5855   0.4774     H
H         0.14   0.5855   0.5226     H
O     0.1406816 0.2019112 0.3271514     O
O     0.1406816 0.2019112 0.6728514     O
O     0.1406816 0.3271514 0.2019112     O
O     0.1406816 0.3271514 0.7980912     O
O     0.1406816 0.6728514 0.2019112     O
O     0.1406816 0.6728514 0.7980912     O
O     0.1406816 0.7980912 0.3271514     O
O     0.1406816 0.7980912 0.6728514     O
O     0.1415117 0.3680411 0.3680411     O
O     0.1415117 0.3680411 0.6319611     O
O     0.1415117 0.6319611 0.3680411     O
O     0.1415117 0.6319611 0.6319611     O
C     0.1437018  0.08332 0.3817117     C
C     0.1437018  0.08332 0.6182917     C
C     0.1437018 0.3817117  0.08332     C
C     0.1437018 0.3817117  0.91672     C
C     0.1437018 0.6182917  0.08332     C
C     0.1437018 0.6182917  0.91672     C
C     0.1437018  0.91672 0.3817117     C
C     0.1437018  0.91672 0.6182917     C
C      0.14602  0.04174  0.43794     C
C      0.14602  0.04174  0.56214     C
C      0.14602  0.43794  0.04174     C
C      0.14602  0.43794  0.95834     C
C      0.14602  0.56214  0.04174     C
C      0.14602  0.56214  0.95834     C
C      0.14602  0.95834  0.43794     C
C      0.14602  0.95834  0.56214     C
C     0.1492018  0.06822  0.40412     C
C     0.1492018  0.06822  0.59592     C
C     0.1492018  0.40412  0.06822     C
C     0.1492018  0.40412  0.93182     C
C     0.1492018  0.59592  0.06822     C
C     0.1492018  0.59592  0.93182     C
C     0.1492018  0.93182  0.40412     C
C     0.1492018  0.93182  0.59592     C
C      0.15254  0.40704  0.48702     C
C      0.15254  0.40704  0.51302     C
C      0.15254  0.48702  0.40704     C
C      0.15254  0.48702  0.59304     C
C      0.15254  0.51302  0.40704     C
C      0.15254  0.51302  0.59304     C
C      0.15254  0.59304  0.48702     C
C      0.15254  0.59304  0.51302     C
O     0.1525712 0.1525712 0.3224116     O
O     0.1525712 0.1525712 0.6775916     O
O     0.1525712 0.3224116 0.1525712     O
O     0.1525712 0.3224116 0.8474312     O
O     0.1525712 0.6775916 0.1525712     O
O     0.1525712 0.6775916 0.8474312     O
O     0.1525712 0.8474312 0.3224116     O
O     0.1525712 0.8474312 0.6775916     O
Hf    0.1542625 0.1542625 0.2839718    Hf
Hf    0.1542625 0.1542625 0.7160298    Hf
Hf    0.1542625 0.2839718 0.1542625    Hf
Hf    0.1542625 0.2839718 0.8457385    Hf
Hf    0.1542625 0.7160298 0.1542625    Hf
Hf    0.1542625 0.7160298 0.8457385    Hf
Hf    0.1542625 0.8457385 0.2839718    Hf
Hf    0.1542625 0.8457385 0.7160298    Hf
O      0.15507  0.13685  0.40545     O
O      0.15507  0.13685  0.59465     O
O      0.15507  0.40545  0.13685     O
O      0.15507  0.40545  0.86325     O
O      0.15507  0.59465  0.13685     O
O      0.15507  0.59465  0.86325     O
O      0.15507  0.86325  0.40545     O
O      0.15507  0.86325  0.59465     O
C      0.15592 0.2070918  0.30982     C
C      0.15592 0.2070918  0.69022     C
C      0.15592  0.30982 0.2070918     C
C      0.15592  0.30982 0.7929118     C
C      0.15592  0.69022 0.2070918     C
C      0.15592  0.69022 0.7929118     C
C      0.15592 0.7929118  0.30982     C
C      0.15592 0.7929118  0.69022     C
Hf    0.1573758 0.3956455 0.3956455    Hf
Hf    0.1573758 0.3956455 0.6043555    Hf
Hf    0.1573758 0.6043555 0.3956455    Hf
Hf    0.1573758 0.6043555 0.6043555    Hf
O     0.1603413 0.1944511 0.2906012     O
O     0.1603413 0.1944511 0.7094012     O
O     0.1603413 0.2906012 0.1944511     O
O     0.1603413 0.2906012 0.8055511     O
O     0.1603413 0.7094012 0.1944511     O
O     0.1603413 0.7094012 0.8055511     O
O     0.1603413 0.8055511 0.2906012     O
O     0.1603413 0.8055511 0.7094012     O
O     0.1604314 0.0973213 0.2523713     O
O     0.1604314 0.0973213 0.7476313     O
O     0.1604314 0.2523713 0.0973213     O
O     0.1604314 0.2523713 0.9026813     O
O     0.1604314 0.7476313 0.0973213     O
O     0.1604314 0.7476313 0.9026813     O
O     0.1604314 0.9026813 0.2523713     O
O     0.1604314 0.9026813 0.7476313     O
Hf    0.1613066 0.3328996 0.3795487    Hf
Hf    0.1613066 0.3328996 0.6204527    Hf
Hf    0.1613066 0.3795487 0.3328996    Hf
Hf    0.1613066 0.3795487 0.6671016    Hf
Hf    0.1613066 0.6204527 0.3328996    Hf
Hf    0.1613066 0.6204527 0.6671016    Hf
Hf    0.1613066 0.6671016 0.3795487    Hf
Hf    0.1613066 0.6671016 0.6204527    Hf
O     0.1623312 0.0933916 0.3709314     O
O     0.1623312 0.0933916 0.6290714     O
O     0.1623312 0.3709314 0.0933916     O
O     0.1623312 0.3709314 0.9066116     O
O     0.1623312 0.6290714 0.0933916     O
O     0.1623312 0.6290714 0.9066116     O
O     0.1623312 0.9066116 0.3709314     O
O     0.1623312 0.9066116 0.6290714     O
S     0.162725     0.25 0.337285     S
S     0.162725     0.25 0.662725     S
S     0.162725 0.337285     0.25     S
S     0.162725 0.337285     0.75     S
S     0.162725 0.662725     0.25     S
S     0.162725 0.662725     0.75     S
S     0.162725     0.75 0.337285     S
S     0.162725     0.75 0.662725     S
O     0.1628311 0.4006511 0.435371     O
O     0.1628311 0.4006511 0.564631     O
O     0.1628311 0.435371 0.4006511     O
O     0.1628311 0.435371 0.5993511     O
O     0.1628311 0.564631 0.4006511     O
O     0.1628311 0.564631 0.5993511     O
O     0.1628311 0.5993511 0.435371     O
O     0.1628311 0.5993511 0.564631     O
O      0.16442 0.3045316 0.4079118     O
O      0.16442 0.3045316 0.5920918     O
O      0.16442 0.4079118 0.3045316     O
O      0.16442 0.4079118 0.6954716     O
O      0.16442 0.5920918 0.3045316     O
O      0.16442 0.5920918 0.6954716     O
O      0.16442 0.6954716 0.4079118     O
O      0.16442 0.6954716 0.5920918     O
Hf    0.1671016 0.1204527 0.3386946    Hf
Hf    0.1671016 0.1204527 0.6613066    Hf
Hf    0.1671016 0.3386946 0.1204527    Hf
Hf    0.1671016 0.3386946 0.8795487    Hf
Hf    0.1671016 0.6613066 0.1204527    Hf
Hf    0.1671016 0.6613066 0.8795487    Hf
Hf    0.1671016 0.8795487 0.3386946    Hf
Hf    0.1671016 0.8795487 0.6613066    Hf
O     0.1685217 0.0648516  0.28932     O
O     0.1685217 0.0648516  0.71072     O
O     0.1685217  0.28932 0.0648516     O
O     0.1685217  0.28932 0.9351516     O
O     0.1685217  0.71072 0.0648516     O
O     0.1685217  0.71072 0.9351516     O
O     0.1685217 0.9351516  0.28932     O
O     0.1685217 0.9351516  0.71072     O
O     0.1694112 0.1164812 0.2974312     O
O     0.1694112 0.1164812 0.7025712     O
O     0.1694112 0.2974312 0.1164812     O
O     0.1694112 0.2974312 0.8835212     O
O     0.1694112 0.7025712 0.1164812     O
O     0.1694112 0.7025712 0.8835212     O
O     0.1694112 0.8835212 0.2974312     O
O     0.1694112 0.8835212 0.7025712     O
C      0.17062 0.2303517  0.31262     C
C      0.17062 0.2303517  0.68742     C
C      0.17062  0.31262 0.2303517     C
C      0.17062  0.31262 0.7696517     C
C      0.17062  0.68742 0.2303517     C
C      0.17062  0.68742 0.7696517     C
C      0.17062 0.7696517  0.31262     C
C      0.17062 0.7696517  0.68742     C
C     0.1710418  0.04672  0.43832     C
C     0.1710418  0.04672  0.56172     C
C     0.1710418  0.43832  0.04672     C
C     0.1710418  0.43832  0.95332     C
C     0.1710418  0.56172  0.04672     C
C     0.1710418  0.56172  0.95332     C
C     0.1710418  0.95332  0.43832     C
C     0.1710418  0.95332  0.56172     C
C      0.17262  0.39492 0.4770917     C
C      0.17262  0.39492 0.5229117     C
C      0.17262 0.4770917  0.39492     C
C      0.17262 0.4770917  0.60512     C
C      0.17262 0.5229117  0.39492     C
C      0.17262 0.5229117  0.60512     C
C      0.17262  0.60512 0.4770917     C
C      0.17262  0.60512 0.5229117     C
C     0.1727317 0.1157517 0.2432717     C
C     0.1727317 0.1157517 0.7567317     C
C     0.1727317 0.2432717 0.1157517     C
C     0.1727317 0.2432717 0.8842517     C
C     0.1727317 0.7567317 0.1157517     C
C     0.1727317 0.7567317 0.8842517     C
C     0.1727317 0.8842517 0.2432717     C
C     0.1727317 0.8842517 0.7567317     C
O     0.1727711 0.1376111 0.2509211     O
O     0.1727711 0.1376111 0.7490811     O
O     0.1727711 0.2509211 0.1376111     O
O     0.1727711 0.2509211 0.8623911     O
O     0.1727711 0.7490811 0.1376111     O
O     0.1727711 0.7490811 0.8623911     O
O     0.1727711 0.8623911 0.2509211     O
O     0.1727711 0.8623911 0.7490811     O
O     0.1728514 0.2980912 0.3593216     O
O     0.1728514 0.2980912 0.6406816     O
O     0.1728514 0.3593216 0.2980912     O
O     0.1728514 0.3593216 0.7019112     O
O     0.1728514 0.6406816 0.2980912     O
O     0.1728514 0.6406816 0.7019112     O
O     0.1728514 0.7019112 0.3593216     O
O     0.1728514 0.7019112 0.6406816     O
O     0.1746411 0.361791 0.4015911     O
O     0.1746411 0.361791 0.5984111     O
O     0.1746411 0.4015911 0.361791     O
O     0.1746411 0.4015911 0.638211     O
O     0.1746411 0.5984111 0.361791     O
O     0.1746411 0.5984111 0.638211     O
O     0.1746411 0.638211 0.4015911     O
O     0.1746411 0.638211 0.5984111     O
C      0.17527  0.13334  0.39374     C
C      0.17527  0.13334  0.60634     C
C      0.17527  0.39374  0.13334     C
C      0.17527  0.39374  0.86674     C
C      0.17527  0.60634  0.13334     C
C      0.17527  0.60634  0.86674     C
C      0.17527  0.86674  0.39374     C
C      0.17527  0.86674  0.60634     C
O     0.1775916 0.3474312 0.3474312     O
O     0.1775916 0.3474312 0.6525712     O
O     0.1775916 0.6525712 0.3474312     O
O     0.1775916 0.6525712 0.6525712     O
C     0.1780917 0.3905018 0.4504316     C
C     0.1780917 0.3905018 0.5495716     C
C     0.1780917 0.4504316 0.3905018     C
C     0.1780917 0.4504316 0.6095018     C
C     0.1780917 0.5495716 0.3905018     C
C     0.1780917 0.5495716 0.6095018     C
C     0.1780917 0.6095018 0.4504316     C
C     0.1780917 0.6095018 0.5495716     C
S     0.179525 0.065367 0.414135     S
S     0.179525 0.065367 0.585875     S
S     0.179525 0.414135 0.065367     S
S     0.179525 0.414135 0.934647     S
S     0.179525 0.585875 0.065367     S
S     0.179525 0.585875 0.934647     S
S     0.179525 0.934647 0.414135     S
S     0.179525 0.934647 0.585875     S
O     0.1822816  0.13852 0.3716014     O
O     0.1822816  0.13852 0.6284014     O
O     0.1822816 0.3716014  0.13852     O
O     0.1822816 0.3716014  0.86152     O
O     0.1822816 0.6284014  0.13852     O
O     0.1822816 0.6284014  0.86152     O
O     0.1822816  0.86152 0.3716014     O
O     0.1822816  0.86152 0.6284014     O
H       0.1825   0.0728   0.2146     H
H       0.1825   0.0728   0.7854     H
H       0.1825   0.2146   0.0728     H
H       0.1825   0.2146   0.9272     H
H       0.1825   0.7854   0.0728     H
H       0.1825   0.7854   0.9272     H
H       0.1825   0.9272   0.2146     H
H       0.1825   0.9272   0.7854     H
O     0.1826411 0.0243211 0.474491     O
O     0.1826411 0.0243211 0.525511     O
O     0.1826411 0.474491 0.0243211     O
O     0.1826411 0.474491 0.9756811     O
O     0.1826411 0.525511 0.0243211     O
O     0.1826411 0.525511 0.9756811     O
O     0.1826411 0.9756811 0.474491     O
O     0.1826411 0.9756811 0.525511     O
C      0.18742 0.2696517  0.32942     C
C      0.18742 0.2696517  0.67062     C
C      0.18742  0.32942 0.2696517     C
C      0.18742  0.32942 0.7303517     C
C      0.18742  0.67062 0.2696517     C
C      0.18742  0.67062 0.7303517     C
C      0.18742 0.7303517  0.32942     C
C      0.18742 0.7303517  0.67062     C
C      0.18932  0.10922  0.22172     C
C      0.18932  0.10922  0.77832     C
C      0.18932  0.22172  0.10922     C
C      0.18932  0.22172  0.89082     C
C      0.18932  0.77832  0.10922     C
C      0.18932  0.77832  0.89082     C
C      0.18932  0.89082  0.22172     C
C      0.18932  0.89082  0.77832     C
C     0.1901017  0.03662 0.4563016     C
C     0.1901017  0.03662 0.5437016     C
C     0.1901017 0.4563016  0.03662     C
C     0.1901017 0.4563016  0.96342     C
C     0.1901017 0.5437016  0.03662     C
C     0.1901017 0.5437016  0.96342     C
C     0.1901017  0.96342 0.4563016     C
C     0.1901017  0.96342 0.5437016     C
C      0.19022 0.2929118  0.34412     C
C      0.19022 0.2929118  0.65592     C
C      0.19022  0.34412 0.2929118     C
C      0.19022  0.34412 0.7070918     C
C      0.19022  0.65592 0.2929118     C
C      0.19022  0.65592 0.7070918     C
C      0.19022 0.7070918  0.34412     C
C      0.19022 0.7070918  0.65592     C
C      0.19072  0.23892  0.30012     C
C      0.19072  0.23892  0.69992     C
C      0.19072  0.30012  0.23892     C
C      0.19072  0.30012  0.76112     C
C      0.19072  0.69992  0.23892     C
C      0.19072  0.69992  0.76112     C
C      0.19072  0.76112  0.30012     C
C      0.19072  0.76112  0.69992     C
S     0.191647 0.383238      0.5     S
S     0.191647      0.5 0.383238     S
S     0.191647      0.5 0.616778     S
S     0.191647 0.616778      0.5     S
C      0.19204  0.08682  0.21054     C
C      0.19204  0.08682  0.78954     C
C      0.19204  0.21054  0.08682     C
C      0.19204  0.21054  0.91322     C
C      0.19204  0.78954  0.08682     C
C      0.19204  0.78954  0.91322     C
C      0.19204  0.91322  0.21054     C
C      0.19204  0.91322  0.78954     C
S      0.19244  0.11554  0.44182     S
S      0.19244  0.11554  0.55822     S
S      0.19244  0.44182  0.11554     S
S      0.19244  0.44182  0.88454     S
S      0.19244  0.55822  0.11554     S
S      0.19244  0.55822  0.88454     S
S      0.19244  0.88454  0.44182     S
S      0.19244  0.88454  0.55822     S
O     0.1944511 0.1603413 0.2906012     O
O     0.1944511 0.1603413 0.7094012     O
O     0.1944511 0.2906012 0.1603413     O
O     0.1944511 0.2906012 0.8396613     O
O     0.1944511 0.7094012 0.1603413     O
O     0.1944511 0.7094012 0.8396613     O
O     0.1944511 0.8396613 0.2906012     O
O     0.1944511 0.8396613 0.7094012     O
O     0.1954716 0.0920918  0.33562     O
O     0.1954716 0.0920918  0.66442     O
O     0.1954716  0.33562 0.0920918     O
O     0.1954716  0.33562 0.9079118     O
O     0.1954716  0.66442 0.0920918     O
O     0.1954716  0.66442 0.9079118     O
O     0.1954716 0.9079118  0.33562     O
O     0.1954716 0.9079118  0.66442     O
O     0.1964013 0.3766914 0.4451711     O
O     0.1964013 0.3766914 0.5548311     O
O     0.1964013 0.4451711 0.3766914     O
O     0.1964013 0.4451711 0.6233114     O
O     0.1964013 0.5548311 0.3766914     O
O     0.1964013 0.5548311 0.6233114     O
O     0.1964013 0.6233114 0.4451711     O
O     0.1964013 0.6233114 0.5548311     O
C      0.19651  0.12279  0.40938     C
C      0.19651  0.12279  0.59078     C
C      0.19651  0.40938  0.12279     C
C      0.19651  0.40938  0.87739     C
C      0.19651  0.59078  0.12279     C
C      0.19651  0.59078  0.87739     C
C      0.19651  0.87739  0.40938     C
C      0.19651  0.87739  0.59078     C
H       0.1978   0.2305   0.2865     H
H       0.1978   0.2305   0.7135     H
H       0.1978   0.2865   0.2305     H
H       0.1978   0.2865   0.7695     H
H       0.1978   0.7135   0.2305     H
H       0.1978   0.7135   0.7695     H
H       0.1978   0.7695   0.2865     H
H       0.1978   0.7695   0.7135     H
C      0.19992  0.26112  0.30932     C
C      0.19992  0.26112  0.69072     C
C      0.19992  0.30932  0.26112     C
C      0.19992  0.30932  0.73892     C
C      0.19992  0.69072  0.26112     C
C      0.19992  0.69072  0.73892     C
C      0.19992  0.73892  0.30932     C
C      0.19992  0.73892  0.69072     C
O     0.2004917 0.4012512 0.4012512     O
O     0.2004917 0.4012512 0.5987512     O
O     0.2004917 0.5987512 0.4012512     O
O     0.2004917 0.5987512 0.5987512     O
O     0.2019112 0.1406816 0.3271514     O
O     0.2019112 0.1406816 0.6728514     O
O     0.2019112 0.3271514 0.1406816     O
O     0.2019112 0.3271514 0.8593216     O
O     0.2019112 0.6728514 0.1406816     O
O     0.2019112 0.6728514 0.8593216     O
O     0.2019112 0.8593216 0.3271514     O
O     0.2019112 0.8593216 0.6728514     O
O     0.2025712 0.3305912 0.3835212     O
O     0.2025712 0.3305912 0.6164812     O
O     0.2025712 0.3835212 0.3305912     O
O     0.2025712 0.3835212 0.6694112     O
O     0.2025712 0.6164812 0.3305912     O
O     0.2025712 0.6164812 0.6694112     O
O     0.2025712 0.6694112 0.3835212     O
O     0.2025712 0.6694112 0.6164812     O
Hf    0.20407211      0.0      0.5    Hf
Hf    0.20407211      0.5      0.0    Hf
C     0.2070918  0.15592  0.30982     C
C     0.2070918  0.15592  0.69022     C
C     0.2070918  0.30982  0.15592     C
C     0.2070918  0.30982  0.84412     C
C     0.2070918  0.69022  0.15592     C
C     0.2070918  0.69022  0.84412     C
C     0.2070918  0.84412  0.30982     C
C     0.2070918  0.84412  0.69022     C
S     0.209226 0.130907 0.209226     S
S     0.209226 0.130907 0.790786     S
S     0.209226 0.209226 0.130907     S
S     0.209226 0.209226 0.869107     S
S     0.209226 0.790786 0.130907     S
S     0.209226 0.790786 0.869107     S
S     0.209226 0.869107 0.209226     S
S     0.209226 0.869107 0.790786     S
O     0.2094012 0.3055511 0.3396613     O
O     0.2094012 0.3055511 0.6603413     O
O     0.2094012 0.3396613 0.3055511     O
O     0.2094012 0.3396613 0.6944511     O
O     0.2094012 0.6603413 0.3055511     O
O     0.2094012 0.6603413 0.6944511     O
O     0.2094012 0.6944511 0.3396613     O
O     0.2094012 0.6944511 0.6603413     O
O      0.20959  0.08607  0.48647     O
O      0.20959  0.08607  0.51367     O
O      0.20959  0.48647  0.08607     O
O      0.20959  0.48647  0.91407     O
O      0.20959  0.51367  0.08607     O
O      0.20959  0.51367  0.91407     O
O      0.20959  0.91407  0.48647     O
O      0.20959  0.91407  0.51367     O
C      0.21054  0.08682  0.19204     C
C      0.21054  0.08682  0.80804     C
C      0.21054  0.19204  0.08682     C
C      0.21054  0.19204  0.91322     C
C      0.21054  0.80804  0.08682     C
C      0.21054  0.80804  0.91322     C
C      0.21054  0.91322  0.19204     C
C      0.21054  0.91322  0.80804     C
O      0.21072 0.3314817 0.4351516     O
O      0.21072 0.3314817 0.5648516     O
O      0.21072 0.4351516 0.3314817     O
O      0.21072 0.4351516 0.6685217     O
O      0.21072 0.5648516 0.3314817     O
O      0.21072 0.5648516 0.6685217     O
O      0.21072 0.6685217 0.4351516     O
O      0.21072 0.6685217 0.5648516     O
O     0.2123312 0.0424415 0.4507214     O
O     0.2123312 0.0424415 0.5492814     O
O     0.2123312 0.4507214 0.0424415     O
O     0.2123312 0.4507214 0.9575615     O
O     0.2123312 0.5492814 0.0424415     O
O     0.2123312 0.5492814 0.9575615     O
O     0.2123312 0.9575615 0.4507214     O
O     0.2123312 0.9575615 0.5492814     O
Hf    0.2123526 0.3622516 0.4086816    Hf
Hf    0.2123526 0.3622516 0.5913196    Hf
Hf    0.2123526 0.4086816 0.3622516    Hf
Hf    0.2123526 0.4086816 0.6377496    Hf
Hf    0.2123526 0.5913196 0.3622516    Hf
Hf    0.2123526 0.5913196 0.6377496    Hf
Hf    0.2123526 0.6377496 0.4086816    Hf
Hf    0.2123526 0.6377496 0.5913196    Hf
H       0.2135   0.2695   0.3022     H
H       0.2135   0.2695   0.6978     H
H       0.2135   0.3022   0.2695     H
H       0.2135   0.3022   0.7305     H
H       0.2135   0.6978   0.2695     H
H       0.2135   0.6978   0.7305     H
H       0.2135   0.7305   0.3022     H
H       0.2135   0.7305   0.6978     H
H       0.2146   0.0728   0.1825     H
H       0.2146   0.0728   0.8175     H
H       0.2146   0.1825   0.0728     H
H       0.2146   0.1825   0.9272     H
H       0.2146   0.8175   0.0728     H
H       0.2146   0.8175   0.9272     H
H       0.2146   0.9272   0.1825     H
H       0.2146   0.9272   0.8175     H
Hf    0.2160298 0.3457385 0.3457385    Hf
Hf    0.2160298 0.3457385 0.6542625    Hf
Hf    0.2160298 0.6542625 0.3457385    Hf
Hf    0.2160298 0.6542625 0.6542625    Hf
C      0.22128  0.09977  0.44408     C
C      0.22128  0.09977  0.55608     C
C      0.22128  0.44408  0.09977     C
C      0.22128  0.44408  0.90037     C
C      0.22128  0.55608  0.09977     C
C      0.22128  0.55608  0.90037     C
C      0.22128  0.90037  0.44408     C
C      0.22128  0.90037  0.55608     C
C      0.22141  0.11308 0.403611     C
C      0.22141  0.11308 0.596411     C
C      0.22141 0.403611  0.11308     C
C      0.22141 0.403611  0.88708     C
C      0.22141 0.596411  0.11308     C
C      0.22141 0.596411  0.88708     C
C      0.22141  0.88708 0.403611     C
C      0.22141  0.88708 0.596411     C
O     0.2215216 0.372661 0.372661     O
O     0.2215216 0.372661 0.627341     O
O     0.2215216 0.627341 0.372661     O
O     0.2215216 0.627341 0.627341     O
C      0.22172  0.10922  0.18932     C
C      0.22172  0.10922  0.81072     C
C      0.22172  0.18932  0.10922     C
C      0.22172  0.18932  0.89082     C
C      0.22172  0.81072  0.10922     C
C      0.22172  0.81072  0.89082     C
C      0.22172  0.89082  0.18932     C
C      0.22172  0.89082  0.81072     C
O     0.2246816 0.0377714      0.5     O
O     0.2246816      0.5 0.0377714     O
O     0.2246816      0.5 0.9622314     O
O     0.2246816 0.9622314      0.5     O
C      0.22708  0.08637  0.46838     C
C      0.22708  0.08637  0.53178     C
C      0.22708  0.46838  0.08637     C
C      0.22708  0.46838  0.91377     C
C      0.22708  0.53178  0.08637     C
C      0.22708  0.53178  0.91377     C
C      0.22708  0.91377  0.46838     C
C      0.22708  0.91377  0.53178     C
H        0.228   0.1148   0.3876     H
H        0.228   0.1148   0.6124     H
H        0.228   0.3876   0.1148     H
H        0.228   0.3876   0.8852     H
H        0.228   0.6124   0.1148     H
H        0.228   0.6124   0.8852     H
H        0.228   0.8852   0.3876     H
H        0.228   0.8852   0.6124     H
O     0.2302913      0.0 0.4719413     O
O     0.2302913      0.0 0.5280613     O
O     0.2302913 0.4719413      0.0     O
O     0.2302913 0.5280613      0.0     O
C     0.2303517  0.17062  0.31262     C
C     0.2303517  0.17062  0.68742     C
C     0.2303517  0.31262  0.17062     C
C     0.2303517  0.31262  0.82942     C
C     0.2303517  0.68742  0.17062     C
C     0.2303517  0.68742  0.82942     C
C     0.2303517  0.82942  0.31262     C
C     0.2303517  0.82942  0.68742     C
H       0.2305   0.1978   0.2865     H
H       0.2305   0.1978   0.7135     H
H       0.2305   0.2865   0.1978     H
H       0.2305   0.2865   0.8022     H
H       0.2305   0.7135   0.1978     H
H       0.2305   0.7135   0.8022     H
H       0.2305   0.8022   0.2865     H
H       0.2305   0.8022   0.7135     H
C     0.234211  0.10198 0.420711     C
C     0.234211  0.10198 0.579311     C
C     0.234211 0.420711  0.10198     C
C     0.234211 0.420711  0.89818     C
C     0.234211 0.579311  0.10198     C
C     0.234211 0.579311  0.89818     C
C     0.234211  0.89818 0.420711     C
C     0.234211  0.89818 0.579311     C
C      0.23892  0.19072  0.30012     C
C      0.23892  0.19072  0.69992     C
C      0.23892  0.30012  0.19072     C
C      0.23892  0.30012  0.80932     C
C      0.23892  0.69992  0.19072     C
C      0.23892  0.69992  0.80932     C
C      0.23892  0.80932  0.30012     C
C      0.23892  0.80932  0.69992     C
O     0.2425214 0.3819316 0.4267116     O
O     0.2425214 0.3819316 0.5732916     O
O     0.2425214 0.4267116 0.3819316     O
O     0.2425214 0.4267116 0.6180716     O
O     0.2425214 0.5732916 0.3819316     O
O     0.2425214 0.5732916 0.6180716     O
O     0.2425214 0.6180716 0.4267116     O
O     0.2425214 0.6180716 0.5732916     O
C     0.2432717 0.1157517 0.1727317     C
C     0.2432717 0.1157517 0.8272717     C
C     0.2432717 0.1727317 0.1157517     C
C     0.2432717 0.1727317 0.8842517     C
C     0.2432717 0.8272717 0.1157517     C
C     0.2432717 0.8272717 0.8842517     C
C     0.2432717 0.8842517 0.1727317     C
C     0.2432717 0.8842517 0.8272717     C
O     0.2469215 0.0731215  0.46882     O
O     0.2469215 0.0731215  0.53122     O
O     0.2469215  0.46882 0.0731215     O
O     0.2469215  0.46882 0.9268815     O
O     0.2469215  0.53122 0.0731215     O
O     0.2469215  0.53122 0.9268815     O
O     0.2469215 0.9268815  0.46882     O
O     0.2469215 0.9268815  0.53122     O
O     0.2476313 0.3395714 0.4026813     O
O     0.2476313 0.3395714 0.5973213     O
O     0.2476313 0.4026813 0.3395714     O
O     0.2476313 0.4026813 0.6604314     O
O     0.2476313 0.5973213 0.3395714     O
O     0.2476313 0.5973213 0.6604314     O
O     0.2476313 0.6604314 0.4026813     O
O     0.2476313 0.6604314 0.5973213     O
O     0.2490811 0.3272311 0.3623911     O
O     0.2490811 0.3272311 0.6376111     O
O     0.2490811 0.3623911 0.3272311     O
O     0.2490811 0.3623911 0.6727711     O
O     0.2490811 0.6376111 0.3272311     O
O     0.2490811 0.6376111 0.6727711     O
O     0.2490811 0.6727711 0.3623911     O
O     0.2490811 0.6727711 0.6376111     O
H       0.2497   0.0818    0.404     H
H       0.2497   0.0818    0.596     H
H       0.2497    0.404   0.0818     H
H       0.2497    0.404   0.9182     H
H       0.2497    0.596   0.0818     H
H       0.2497    0.596   0.9182     H
H       0.2497   0.9182    0.404     H
H       0.2497   0.9182    0.596     H
Hf        0.25 0.0329206 0.4670806    Hf
Hf        0.25 0.0329206 0.5329206    Hf
S         0.25 0.162725 0.337285     S
S         0.25 0.162725 0.662725     S
S         0.25 0.337285 0.162725     S
S         0.25 0.337285 0.837285     S
Hf        0.25 0.4670806 0.0329206    Hf
Hf        0.25 0.4670806 0.9670806    Hf
Hf        0.25 0.5329206 0.0329206    Hf
Hf        0.25 0.5329206 0.9670806    Hf
S         0.25 0.662725 0.162725     S
S         0.25 0.662725 0.837285     S
S         0.25 0.837285 0.337285     S
S         0.25 0.837285 0.662725     S
Hf        0.25 0.9670806 0.4670806    Hf
Hf        0.25 0.9670806 0.5329206    Hf
H       0.2503    0.096   0.4182     H
H       0.2503    0.096   0.5818     H
H       0.2503   0.4182    0.096     H
H       0.2503   0.4182    0.904     H
H       0.2503   0.5818    0.096     H
H       0.2503   0.5818    0.904     H
H       0.2503    0.904   0.4182     H
H       0.2503    0.904   0.5818     H
O     0.2509211 0.1376111 0.1727711     O
O     0.2509211 0.1376111 0.8272311     O
O     0.2509211 0.1727711 0.1376111     O
O     0.2509211 0.1727711 0.8623911     O
O     0.2509211 0.8272311 0.1376111     O
O     0.2509211 0.8272311 0.8623911     O
O     0.2509211 0.8623911 0.1727711     O
O     0.2509211 0.8623911 0.8272311     O
O     0.2523713 0.0973213 0.1604314     O
O     0.2523713 0.0973213 0.8395714     O
O     0.2523713 0.1604314 0.0973213     O
O     0.2523713 0.1604314 0.9026813     O
O     0.2523713 0.8395714 0.0973213     O
O     0.2523713 0.8395714 0.9026813     O
O     0.2523713 0.9026813 0.1604314     O
O     0.2523713 0.9026813 0.8395714     O
O     0.2530815  0.03122 0.4268815     O
O     0.2530815  0.03122 0.5731215     O
O     0.2530815 0.4268815  0.03122     O
O     0.2530815 0.4268815  0.96882     O
O     0.2530815 0.5731215  0.03122     O
O     0.2530815 0.5731215  0.96882     O
O     0.2530815  0.96882 0.4268815     O
O     0.2530815  0.96882 0.5731215     O
C     0.2567317 0.3272717 0.3842517     C
C     0.2567317 0.3272717 0.6157517     C
C     0.2567317 0.3842517 0.3272717     C
C     0.2567317 0.3842517 0.6727317     C
C     0.2567317 0.6157517 0.3272717     C
C     0.2567317 0.6157517 0.6727317     C
C     0.2567317 0.6727317 0.3842517     C
C     0.2567317 0.6727317 0.6157517     C
O     0.2574814 0.0732916 0.1180716     O
O     0.2574814 0.0732916 0.8819316     O
O     0.2574814 0.1180716 0.0732916     O
O     0.2574814 0.1180716 0.9267116     O
O     0.2574814 0.8819316 0.0732916     O
O     0.2574814 0.8819316 0.9267116     O
O     0.2574814 0.9267116 0.1180716     O
O     0.2574814 0.9267116 0.8819316     O
C      0.26112  0.19992  0.30932     C
C      0.26112  0.19992  0.69072     C
C      0.26112  0.30932  0.19992     C
C      0.26112  0.30932  0.80012     C
C      0.26112  0.69072  0.19992     C
C      0.26112  0.69072  0.80012     C
C      0.26112  0.80012  0.30932     C
C      0.26112  0.80012  0.69072     C
C     0.265811 0.079311  0.39818     C
C     0.265811 0.079311  0.60198     C
C     0.265811  0.39818 0.079311     C
C     0.265811  0.39818 0.920711     C
C     0.265811  0.60198 0.079311     C
C     0.265811  0.60198 0.920711     C
C     0.265811 0.920711  0.39818     C
C     0.265811 0.920711  0.60198     C
H       0.2695   0.2135   0.3022     H
H       0.2695   0.2135   0.6978     H
H       0.2695   0.3022   0.2135     H
H       0.2695   0.3022   0.7865     H
H       0.2695   0.6978   0.2135     H
H       0.2695   0.6978   0.7865     H
H       0.2695   0.7865   0.3022     H
H       0.2695   0.7865   0.6978     H
C     0.2696517  0.18742  0.32942     C
C     0.2696517  0.18742  0.67062     C
C     0.2696517  0.32942  0.18742     C
C     0.2696517  0.32942  0.81262     C
C     0.2696517  0.67062  0.18742     C
C     0.2696517  0.67062  0.81262     C
C     0.2696517  0.81262  0.32942     C
C     0.2696517  0.81262  0.67062     C
O     0.2697113 0.0280613      0.5     O
O     0.2697113      0.5 0.0280613     O
O     0.2697113      0.5 0.9719413     O
O     0.2697113 0.9719413      0.5     O
H        0.272   0.1124   0.3852     H
H        0.272   0.1124   0.6148     H
H        0.272   0.3852   0.1124     H
H        0.272   0.3852   0.8876     H
H        0.272   0.6148   0.1124     H
H        0.272   0.6148   0.8876     H
H        0.272   0.8876   0.3852     H
H        0.272   0.8876   0.6148     H
C      0.27308  0.03178  0.41377     C
C      0.27308  0.03178  0.58637     C
C      0.27308  0.41377  0.03178     C
C      0.27308  0.41377  0.96838     C
C      0.27308  0.58637  0.03178     C
C      0.27308  0.58637  0.96838     C
C      0.27308  0.96838  0.41377     C
C      0.27308  0.96838  0.58637     C
O     0.2753216      0.0 0.4622314     O
O     0.2753216      0.0 0.5377714     O
O     0.2753216 0.4622314      0.0     O
O     0.2753216 0.5377714      0.0     O
C      0.27832  0.31072  0.39082     C
C      0.27832  0.31072  0.60922     C
C      0.27832  0.39082  0.31072     C
C      0.27832  0.39082  0.68932     C
C      0.27832  0.60922  0.31072     C
C      0.27832  0.60922  0.68932     C
C      0.27832  0.68932  0.39082     C
C      0.27832  0.68932  0.60922     C
O     0.2784816 0.127341 0.127341     O
O     0.2784816 0.127341 0.872661     O
O     0.2784816 0.872661 0.127341     O
O     0.2784816 0.872661 0.872661     O
C      0.27861 0.096411  0.38708     C
C      0.27861 0.096411  0.61308     C
C      0.27861  0.38708 0.096411     C
C      0.27861  0.38708 0.903611     C
C      0.27861  0.61308 0.096411     C
C      0.27861  0.61308 0.903611     C
C      0.27861 0.903611  0.38708     C
C      0.27861 0.903611  0.61308     C
C      0.27888  0.05608  0.40037     C
C      0.27888  0.05608  0.59977     C
C      0.27888  0.40037  0.05608     C
C      0.27888  0.40037  0.94408     C
C      0.27888  0.59977  0.05608     C
C      0.27888  0.59977  0.94408     C
C      0.27888  0.94408  0.40037     C
C      0.27888  0.94408  0.59977     C
Hf    0.2839718 0.1542625 0.1542625    Hf
Hf    0.2839718 0.1542625 0.8457385    Hf
Hf    0.2839718 0.8457385 0.1542625    Hf
Hf    0.2839718 0.8457385 0.8457385    Hf
H       0.2854   0.3175   0.4272     H
H       0.2854   0.3175   0.5728     H
H       0.2854   0.4272   0.3175     H
H       0.2854   0.4272   0.6825     H
H       0.2854   0.5728   0.3175     H
H       0.2854   0.5728   0.6825     H
H       0.2854   0.6825   0.4272     H
H       0.2854   0.6825   0.5728     H
H       0.2865   0.1978   0.2305     H
H       0.2865   0.1978   0.7695     H
H       0.2865   0.2305   0.1978     H
H       0.2865   0.2305   0.8022     H
H       0.2865   0.7695   0.1978     H
H       0.2865   0.7695   0.8022     H
H       0.2865   0.8022   0.2305     H
H       0.2865   0.8022   0.7695     H
Hf    0.2876486 0.0913196 0.1377496    Hf
Hf    0.2876486 0.0913196 0.8622516    Hf
Hf    0.2876486 0.1377496 0.0913196    Hf
Hf    0.2876486 0.1377496 0.9086816    Hf
Hf    0.2876486 0.8622516 0.0913196    Hf
Hf    0.2876486 0.8622516 0.9086816    Hf
Hf    0.2876486 0.9086816 0.1377496    Hf
Hf    0.2876486 0.9086816 0.8622516    Hf
O     0.2876712 0.0492814 0.4575616     O
O     0.2876712 0.0492814 0.5424416     O
O     0.2876712 0.4575616 0.0492814     O
O     0.2876712 0.4575616 0.9507214     O
O     0.2876712 0.5424416 0.0492814     O
O     0.2876712 0.5424416 0.9507214     O
O     0.2876712 0.9507214 0.4575616     O
O     0.2876712 0.9507214 0.5424416     O
O      0.28932 0.0648516 0.1685217     O
O      0.28932 0.0648516 0.8314817     O
O      0.28932 0.1685217 0.0648516     O
O      0.28932 0.1685217 0.9351516     O
O      0.28932 0.8314817 0.0648516     O
O      0.28932 0.8314817 0.9351516     O
O      0.28932 0.9351516 0.1685217     O
O      0.28932 0.9351516 0.8314817     O
C      0.28954  0.30804  0.41322     C
C      0.28954  0.30804  0.58682     C
C      0.28954  0.41322  0.30804     C
C      0.28954  0.41322  0.69204     C
C      0.28954  0.58682  0.30804     C
C      0.28954  0.58682  0.69204     C
C      0.28954  0.69204  0.41322     C
C      0.28954  0.69204  0.58682     C
O      0.29059  0.01367  0.41407     O
O      0.29059  0.01367  0.58607     O
O      0.29059  0.41407  0.01367     O
O      0.29059  0.41407  0.98647     O
O      0.29059  0.58607  0.01367     O
O      0.29059  0.58607  0.98647     O
O      0.29059  0.98647  0.41407     O
O      0.29059  0.98647  0.58607     O
O     0.2906012 0.1603413 0.1944511     O
O     0.2906012 0.1603413 0.8055511     O
O     0.2906012 0.1944511 0.1603413     O
O     0.2906012 0.1944511 0.8396613     O
O     0.2906012 0.8055511 0.1603413     O
O     0.2906012 0.8055511 0.8396613     O
O     0.2906012 0.8396613 0.1944511     O
O     0.2906012 0.8396613 0.8055511     O
S     0.290786 0.290786 0.369107     S
S     0.290786 0.290786 0.630907     S
S     0.290786 0.369107 0.290786     S
S     0.290786 0.369107 0.709226     S
S     0.290786 0.630907 0.290786     S
S     0.290786 0.630907 0.709226     S
S     0.290786 0.709226 0.369107     S
S     0.290786 0.709226 0.630907     S
C     0.2929118  0.19022  0.34412     C
C     0.2929118  0.19022  0.65592     C
C     0.2929118  0.34412  0.19022     C
C     0.2929118  0.34412  0.80982     C
C     0.2929118  0.65592  0.19022     C
C     0.2929118  0.65592  0.80982     C
C     0.2929118  0.80982  0.34412     C
C     0.2929118  0.80982  0.65592     C
Hf    0.29592811      0.0      0.5    Hf
Hf    0.29592811      0.5      0.0    Hf
O     0.2974312 0.1164812 0.1694112     O
O     0.2974312 0.1164812 0.8305912     O
O     0.2974312 0.1694112 0.1164812     O
O     0.2974312 0.1694112 0.8835212     O
O     0.2974312 0.8305912 0.1164812     O
O     0.2974312 0.8305912 0.8835212     O
O     0.2974312 0.8835212 0.1694112     O
O     0.2974312 0.8835212 0.8305912     O
O     0.2980912 0.1728514 0.3593216     O
O     0.2980912 0.1728514 0.6406816     O
O     0.2980912 0.3593216 0.1728514     O
O     0.2980912 0.3593216 0.8271514     O
O     0.2980912 0.6406816 0.1728514     O
O     0.2980912 0.6406816 0.8271514     O
O     0.2980912 0.8271514 0.3593216     O
O     0.2980912 0.8271514 0.6406816     O
O     0.2995117 0.0987512 0.0987512     O
O     0.2995117 0.0987512 0.9012512     O
O     0.2995117 0.9012512 0.0987512     O
O     0.2995117 0.9012512 0.9012512     O
C      0.30012  0.19072  0.23892     C
C      0.30012  0.19072  0.76112     C
C      0.30012  0.23892  0.19072     C
C      0.30012  0.23892  0.80932     C
C      0.30012  0.76112  0.19072     C
C      0.30012  0.76112  0.80932     C
C      0.30012  0.80932  0.23892     C
C      0.30012  0.80932  0.76112     C
H       0.3022   0.2135   0.2695     H
H       0.3022   0.2135   0.7305     H
H       0.3022   0.2695   0.2135     H
H       0.3022   0.2695   0.7865     H
H       0.3022   0.7305   0.2135     H
H       0.3022   0.7305   0.7865     H
H       0.3022   0.7865   0.2695     H
H       0.3022   0.7865   0.7305     H
C      0.30351  0.09078  0.37739     C
C      0.30351  0.09078  0.62279     C
C      0.30351  0.37739  0.09078     C
C      0.30351  0.37739  0.90938     C
C      0.30351  0.62279  0.09078     C
C      0.30351  0.62279  0.90938     C
C      0.30351  0.90938  0.37739     C
C      0.30351  0.90938  0.62279     C
O     0.3036013 0.0548311 0.1233114     O
O     0.3036013 0.0548311 0.8766914     O
O     0.3036013 0.1233114 0.0548311     O
O     0.3036013 0.1233114 0.9451711     O
O     0.3036013 0.8766914 0.0548311     O
O     0.3036013 0.8766914 0.9451711     O
O     0.3036013 0.9451711 0.1233114     O
O     0.3036013 0.9451711 0.8766914     O
O     0.3045316  0.16442 0.4079118     O
O     0.3045316  0.16442 0.5920918     O
O     0.3045316 0.4079118  0.16442     O
O     0.3045316 0.4079118  0.83562     O
O     0.3045316 0.5920918  0.16442     O
O     0.3045316 0.5920918  0.83562     O
O     0.3045316  0.83562 0.4079118     O
O     0.3045316  0.83562 0.5920918     O
O     0.3055511 0.2094012 0.3396613     O
O     0.3055511 0.2094012 0.6603413     O
O     0.3055511 0.3396613 0.2094012     O
O     0.3055511 0.3396613 0.7906012     O
O     0.3055511 0.6603413 0.2094012     O
O     0.3055511 0.6603413 0.7906012     O
O     0.3055511 0.7906012 0.3396613     O
O     0.3055511 0.7906012 0.6603413     O
S      0.30764  0.05822  0.38454     S
S      0.30764  0.05822  0.61554     S
S      0.30764  0.38454  0.05822     S
S      0.30764  0.38454  0.94182     S
S      0.30764  0.61554  0.05822     S
S      0.30764  0.61554  0.94182     S
S      0.30764  0.94182  0.38454     S
S      0.30764  0.94182  0.61554     S
C      0.30804  0.28954  0.41322     C
C      0.30804  0.28954  0.58682     C
C      0.30804  0.41322  0.28954     C
C      0.30804  0.41322  0.71054     C
C      0.30804  0.58682  0.28954     C
C      0.30804  0.58682  0.71054     C
C      0.30804  0.71054  0.41322     C
C      0.30804  0.71054  0.58682     C
S     0.308367      0.0 0.116778     S
S     0.308367      0.0 0.883238     S
S     0.308367 0.116778      0.0     S
S     0.308367 0.883238      0.0     S
C      0.30932  0.19992  0.26112     C
C      0.30932  0.19992  0.73892     C
C      0.30932  0.26112  0.19992     C
C      0.30932  0.26112  0.80012     C
C      0.30932  0.73892  0.19992     C
C      0.30932  0.73892  0.80012     C
C      0.30932  0.80012  0.26112     C
C      0.30932  0.80012  0.73892     C
C      0.30982  0.15592 0.2070918     C
C      0.30982  0.15592 0.7929118     C
C      0.30982 0.2070918  0.15592     C
C      0.30982 0.2070918  0.84412     C
C      0.30982 0.7929118  0.15592     C
C      0.30982 0.7929118  0.84412     C
C      0.30982  0.84412 0.2070918     C
C      0.30982  0.84412 0.7929118     C
C     0.3099017 0.0437016  0.46342     C
C     0.3099017 0.0437016  0.53662     C
C     0.3099017  0.46342 0.0437016     C
C     0.3099017  0.46342 0.9563016     C
C     0.3099017  0.53662 0.0437016     C
C     0.3099017  0.53662 0.9563016     C
C     0.3099017 0.9563016  0.46342     C
C     0.3099017 0.9563016  0.53662     C
C      0.31072  0.27832  0.39082     C
C      0.31072  0.27832  0.60922     C
C      0.31072  0.39082  0.27832     C
C      0.31072  0.39082  0.72172     C
C      0.31072  0.60922  0.27832     C
C      0.31072  0.60922  0.72172     C
C      0.31072  0.72172  0.39082     C
C      0.31072  0.72172  0.60922     C
C      0.31262  0.17062 0.2303517     C
C      0.31262  0.17062 0.7696517     C
C      0.31262 0.2303517  0.17062     C
C      0.31262 0.2303517  0.82942     C
C      0.31262 0.7696517  0.17062     C
C      0.31262 0.7696517  0.82942     C
C      0.31262  0.82942 0.2303517     C
C      0.31262  0.82942 0.7696517     C
O     0.3173611 0.025511 0.4756811     O
O     0.3173611 0.025511 0.5243211     O
O     0.3173611 0.4756811 0.025511     O
O     0.3173611 0.4756811 0.974491     O
O     0.3173611 0.5243211 0.025511     O
O     0.3173611 0.5243211 0.974491     O
O     0.3173611 0.974491 0.4756811     O
O     0.3173611 0.974491 0.5243211     O
H       0.3175   0.2854   0.4272     H
H       0.3175   0.2854   0.5728     H
H       0.3175   0.4272   0.2854     H
H       0.3175   0.4272   0.7146     H
H       0.3175   0.5728   0.2854     H
H       0.3175   0.5728   0.7146     H
H       0.3175   0.7146   0.4272     H
H       0.3175   0.7146   0.5728     H
O     0.3177216 0.1284014  0.36152     O
O     0.3177216 0.1284014  0.63852     O
O     0.3177216  0.36152 0.1284014     O
O     0.3177216  0.36152 0.8716014     O
O     0.3177216  0.63852 0.1284014     O
O     0.3177216  0.63852 0.8716014     O
O     0.3177216 0.8716014  0.36152     O
O     0.3177216 0.8716014  0.63852     O
S     0.320485 0.085875 0.434647     S
S     0.320485 0.085875 0.565367     S
S     0.320485 0.434647 0.085875     S
S     0.320485 0.434647 0.914135     S
S     0.320485 0.565367 0.085875     S
S     0.320485 0.565367 0.914135     S
S     0.320485 0.914135 0.434647     S
S     0.320485 0.914135 0.565367     S
C     0.3219117 0.0495716 0.1095018     C
C     0.3219117 0.0495716 0.8905018     C
C     0.3219117 0.1095018 0.0495716     C
C     0.3219117 0.1095018 0.9504316     C
C     0.3219117 0.8905018 0.0495716     C
C     0.3219117 0.8905018 0.9504316     C
C     0.3219117 0.9504316 0.1095018     C
C     0.3219117 0.9504316 0.8905018     C
O     0.3224116 0.1525712 0.1525712     O
O     0.3224116 0.1525712 0.8474312     O
O     0.3224116 0.8474312 0.1525712     O
O     0.3224116 0.8474312 0.8474312     O
C      0.32487  0.10634  0.36674     C
C      0.32487  0.10634  0.63334     C
C      0.32487  0.36674  0.10634     C
C      0.32487  0.36674  0.89374     C
C      0.32487  0.63334  0.10634     C
C      0.32487  0.63334  0.89374     C
C      0.32487  0.89374  0.36674     C
C      0.32487  0.89374  0.63334     C
O     0.3253611 0.0984111 0.138211     O
O     0.3253611 0.0984111 0.861791     O
O     0.3253611 0.138211 0.0984111     O
O     0.3253611 0.138211 0.9015911     O
O     0.3253611 0.861791 0.0984111     O
O     0.3253611 0.861791 0.9015911     O
O     0.3253611 0.9015911 0.138211     O
O     0.3253611 0.9015911 0.861791     O
O     0.3271514 0.1406816 0.2019112     O
O     0.3271514 0.1406816 0.7980912     O
O     0.3271514 0.2019112 0.1406816     O
O     0.3271514 0.2019112 0.8593216     O
O     0.3271514 0.7980912 0.1406816     O
O     0.3271514 0.7980912 0.8593216     O
O     0.3271514 0.8593216 0.2019112     O
O     0.3271514 0.8593216 0.7980912     O
O     0.3272311 0.2490811 0.3623911     O
O     0.3272311 0.2490811 0.6376111     O
O     0.3272311 0.3623911 0.2490811     O
O     0.3272311 0.3623911 0.7509211     O
O     0.3272311 0.6376111 0.2490811     O
O     0.3272311 0.6376111 0.7509211     O
O     0.3272311 0.7509211 0.3623911     O
O     0.3272311 0.7509211 0.6376111     O
C     0.3272717 0.2567317 0.3842517     C
C     0.3272717 0.2567317 0.6157517     C
C     0.3272717 0.3842517 0.2567317     C
C     0.3272717 0.3842517 0.7432717     C
C     0.3272717 0.6157517 0.2567317     C
C     0.3272717 0.6157517 0.7432717     C
C     0.3272717 0.7432717 0.3842517     C
C     0.3272717 0.7432717 0.6157517     C
C      0.32742 0.0229117  0.10512     C
C      0.32742 0.0229117  0.89492     C
C      0.32742  0.10512 0.0229117     C
C      0.32742  0.10512 0.9770917     C
C      0.32742  0.89492 0.0229117     C
C      0.32742  0.89492 0.9770917     C
C      0.32742 0.9770917  0.10512     C
C      0.32742 0.9770917  0.89492     C
C     0.3289618  0.06172  0.45332     C
C     0.3289618  0.06172  0.54672     C
C     0.3289618  0.45332  0.06172     C
C     0.3289618  0.45332  0.93832     C
C     0.3289618  0.54672  0.06172     C
C     0.3289618  0.54672  0.93832     C
C     0.3289618  0.93832  0.45332     C
C     0.3289618  0.93832  0.54672     C
C      0.32942  0.18742 0.2696517     C
C      0.32942  0.18742 0.7303517     C
C      0.32942 0.2696517  0.18742     C
C      0.32942 0.2696517  0.81262     C
C      0.32942 0.7303517  0.18742     C
C      0.32942 0.7303517  0.81262     C
C      0.32942  0.81262 0.2696517     C
C      0.32942  0.81262 0.7303517     C
O     0.3305912 0.2025712 0.3835212     O
O     0.3305912 0.2025712 0.6164812     O
O     0.3305912 0.3835212 0.2025712     O
O     0.3305912 0.3835212 0.7974312     O
O     0.3305912 0.6164812 0.2025712     O
O     0.3305912 0.6164812 0.7974312     O
O     0.3305912 0.7974312 0.3835212     O
O     0.3305912 0.7974312 0.6164812     O
O     0.3314817  0.21072 0.4351516     O
O     0.3314817  0.21072 0.5648516     O
O     0.3314817 0.4351516  0.21072     O
O     0.3314817 0.4351516  0.78932     O
O     0.3314817 0.5648516  0.21072     O
O     0.3314817 0.5648516  0.78932     O
O     0.3314817  0.78932 0.4351516     O
O     0.3314817  0.78932 0.5648516     O
Hf    0.3328996 0.1613066 0.3795487    Hf
Hf    0.3328996 0.1613066 0.6204527    Hf
Hf    0.3328996 0.3795487 0.1613066    Hf
Hf    0.3328996 0.3795487 0.8386946    Hf
Hf    0.3328996 0.6204527 0.1613066    Hf
Hf    0.3328996 0.6204527 0.8386946    Hf
Hf    0.3328996 0.8386946 0.3795487    Hf
Hf    0.3328996 0.8386946 0.6204527    Hf
O      0.33562 0.0920918 0.1954716     O
O      0.33562 0.0920918 0.8045316     O
O      0.33562 0.1954716 0.0920918     O
O      0.33562 0.1954716 0.9079118     O
O      0.33562 0.8045316 0.0920918     O
O      0.33562 0.8045316 0.9079118     O
O      0.33562 0.9079118 0.1954716     O
O      0.33562 0.9079118 0.8045316     O
O     0.3371711 0.064631 0.0993511     O
O     0.3371711 0.064631 0.9006511     O
O     0.3371711 0.0993511 0.064631     O
O     0.3371711 0.0993511 0.935371     O
O     0.3371711 0.9006511 0.064631     O
O     0.3371711 0.9006511 0.935371     O
O     0.3371711 0.935371 0.0993511     O
O     0.3371711 0.935371 0.9006511     O
S     0.337285 0.162725     0.25     S
S     0.337285 0.162725     0.75     S
S     0.337285     0.25 0.162725     S
S     0.337285     0.25 0.837285     S
S     0.337285     0.75 0.162725     S
S     0.337285     0.75 0.837285     S
S     0.337285 0.837285     0.25     S
S     0.337285 0.837285     0.75     S
O     0.3376712 0.1290714 0.4066116     O
O     0.3376712 0.1290714 0.5933916     O
O     0.3376712 0.4066116 0.1290714     O
O     0.3376712 0.4066116 0.8709314     O
O     0.3376712 0.5933916 0.1290714     O
O     0.3376712 0.5933916 0.8709314     O
O     0.3376712 0.8709314 0.4066116     O
O     0.3376712 0.8709314 0.5933916     O
Hf    0.3386946 0.1204527 0.1671016    Hf
Hf    0.3386946 0.1204527 0.8328996    Hf
Hf    0.3386946 0.1671016 0.1204527    Hf
Hf    0.3386946 0.1671016 0.8795487    Hf
Hf    0.3386946 0.8328996 0.1204527    Hf
Hf    0.3386946 0.8328996 0.8795487    Hf
Hf    0.3386946 0.8795487 0.1671016    Hf
Hf    0.3386946 0.8795487 0.8328996    Hf
O     0.3395714 0.2476313 0.4026813     O
O     0.3395714 0.2476313 0.5973213     O
O     0.3395714 0.4026813 0.2476313     O
O     0.3395714 0.4026813 0.7523713     O
O     0.3395714 0.5973213 0.2476313     O
O     0.3395714 0.5973213 0.7523713     O
O     0.3395714 0.7523713 0.4026813     O
O     0.3395714 0.7523713 0.5973213     O
O     0.3396613 0.2094012 0.3055511     O
O     0.3396613 0.2094012 0.6944511     O
O     0.3396613 0.3055511 0.2094012     O
O     0.3396613 0.3055511 0.7906012     O
O     0.3396613 0.6944511 0.2094012     O
O     0.3396613 0.6944511 0.7906012     O
O     0.3396613 0.7906012 0.3055511     O
O     0.3396613 0.7906012 0.6944511     O
Hf    0.3426258 0.1043555 0.1043555    Hf
Hf    0.3426258 0.1043555 0.8956455    Hf
Hf    0.3426258 0.8956455 0.1043555    Hf
Hf    0.3426258 0.8956455 0.8956455    Hf
C      0.34412  0.19022 0.2929118     C
C      0.34412  0.19022 0.7070918     C
C      0.34412 0.2929118  0.19022     C
C      0.34412 0.2929118  0.80982     C
C      0.34412 0.7070918  0.19022     C
C      0.34412 0.7070918  0.80982     C
C      0.34412  0.80982 0.2929118     C
C      0.34412  0.80982 0.7070918     C
O      0.34507  0.09465  0.36325     O
O      0.34507  0.09465  0.63685     O
O      0.34507  0.36325  0.09465     O
O      0.34507  0.36325  0.90545     O
O      0.34507  0.63685  0.09465     O
O      0.34507  0.63685  0.90545     O
O      0.34507  0.90545  0.36325     O
O      0.34507  0.90545  0.63685     O
Hf    0.3457385 0.2160298 0.3457385    Hf
Hf    0.3457385 0.2160298 0.6542625    Hf
Hf    0.3457385 0.3457385 0.2160298    Hf
Hf    0.3457385 0.3457385 0.7839718    Hf
Hf    0.3457385 0.6542625 0.2160298    Hf
Hf    0.3457385 0.6542625 0.7839718    Hf
Hf    0.3457385 0.7839718 0.3457385    Hf
Hf    0.3457385 0.7839718 0.6542625    Hf
O     0.3474312 0.1775916 0.3474312     O
O     0.3474312 0.1775916 0.6525712     O
O     0.3474312 0.3474312 0.1775916     O
O     0.3474312 0.3474312 0.8224116     O
O     0.3474312 0.6525712 0.1775916     O
O     0.3474312 0.6525712 0.8224116     O
O     0.3474312 0.8224116 0.3474312     O
O     0.3474312 0.8224116 0.6525712     O
C      0.34754  0.01302  0.09304     C
C      0.34754  0.01302  0.90704     C
C      0.34754  0.09304  0.01302     C
C      0.34754  0.09304  0.98702     C
C      0.34754  0.90704  0.01302     C
C      0.34754  0.90704  0.98702     C
C      0.34754  0.98702  0.09304     C
C      0.34754  0.98702  0.90704     C
C     0.3508018  0.09592  0.43182     C
C     0.3508018  0.09592  0.56822     C
C     0.3508018  0.43182  0.09592     C
C     0.3508018  0.43182  0.90412     C
C     0.3508018  0.56822  0.09592     C
C     0.3508018  0.56822  0.90412     C
C     0.3508018  0.90412  0.43182     C
C     0.3508018  0.90412  0.56822     C
C      0.35402  0.06214  0.45834     C
C      0.35402  0.06214  0.54174     C
C      0.35402  0.45834  0.06214     C
C      0.35402  0.45834  0.93794     C
C      0.35402  0.54174  0.06214     C
C      0.35402  0.54174  0.93794     C
C      0.35402  0.93794  0.45834     C
C      0.35402  0.93794  0.54174     C
C     0.3563018 0.1182917  0.41672     C
C     0.3563018 0.1182917  0.58332     C
C     0.3563018  0.41672 0.1182917     C
C     0.3563018  0.41672 0.8817117     C
C     0.3563018  0.58332 0.1182917     C
C     0.3563018  0.58332 0.8817117     C
C     0.3563018 0.8817117  0.41672     C
C     0.3563018 0.8817117  0.58332     C
O     0.3584917 0.1319611 0.1319611     O
O     0.3584917 0.1319611 0.8680411     O
O     0.3584917 0.8680411 0.1319611     O
O     0.3584917 0.8680411 0.8680411     O
O     0.3593216 0.1728514 0.2980912     O
O     0.3593216 0.1728514 0.7019112     O
O     0.3593216 0.2980912 0.1728514     O
O     0.3593216 0.2980912 0.8271514     O
O     0.3593216 0.7019112 0.1728514     O
O     0.3593216 0.7019112 0.8271514     O
O     0.3593216 0.8271514 0.2980912     O
O     0.3593216 0.8271514 0.7019112     O
H         0.36   0.0226   0.0855     H
H         0.36   0.0226   0.9145     H
H         0.36   0.0855   0.0226     H
H         0.36   0.0855   0.9774     H
H         0.36   0.9145   0.0226     H
H         0.36   0.9145   0.9774     H
H         0.36   0.9774   0.0855     H
H         0.36   0.9774   0.9145     H
O      0.36152 0.1284014 0.3177216     O
O      0.36152 0.1284014 0.6822816     O
O      0.36152 0.3177216 0.1284014     O
O      0.36152 0.3177216 0.8716014     O
O      0.36152 0.6822816 0.1284014     O
O      0.36152 0.6822816 0.8716014     O
O      0.36152 0.8716014 0.3177216     O
O      0.36152 0.8716014 0.6822816     O
O     0.361791 0.1746411 0.4015911     O
O     0.361791 0.1746411 0.5984111     O
O     0.361791 0.4015911 0.1746411     O
O     0.361791 0.4015911 0.8253611     O
O     0.361791 0.5984111 0.1746411     O
O     0.361791 0.5984111 0.8253611     O
O     0.361791 0.8253611 0.4015911     O
O     0.361791 0.8253611 0.5984111     O
H       0.3619   0.0508   0.4689     H
H       0.3619   0.0508   0.5311     H
H       0.3619   0.4689   0.0508     H
H       0.3619   0.4689   0.9492     H
H       0.3619   0.5311   0.0508     H
H       0.3619   0.5311   0.9492     H
H       0.3619   0.9492   0.4689     H
H       0.3619   0.9492   0.5311     H
Hf    0.3622516 0.2123526 0.4086816    Hf
Hf    0.3622516 0.2123526 0.5913196    Hf
Hf    0.3622516 0.4086816 0.2123526    Hf
Hf    0.3622516 0.4086816 0.7876486    Hf
Hf    0.3622516 0.5913196 0.2123526    Hf
Hf    0.3622516 0.5913196 0.7876486    Hf
Hf    0.3622516 0.7876486 0.4086816    Hf
Hf    0.3622516 0.7876486 0.5913196    Hf
O     0.3623911 0.2490811 0.3272311     O
O     0.3623911 0.2490811 0.6727711     O
O     0.3623911 0.3272311 0.2490811     O
O     0.3623911 0.3272311 0.7509211     O
O     0.3623911 0.6727711 0.2490811     O
O     0.3623911 0.6727711 0.7509211     O
O     0.3623911 0.7509211 0.3272311     O
O     0.3623911 0.7509211 0.6727711     O
O      0.36325  0.09465  0.34507     O
O      0.36325  0.09465  0.65507     O
O      0.36325  0.34507  0.09465     O
O      0.36325  0.34507  0.90545     O
O      0.36325  0.65507  0.09465     O
O      0.36325  0.65507  0.90545     O
O      0.36325  0.90545  0.34507     O
O      0.36325  0.90545  0.65507     O
C      0.36672  0.08152  0.44564     C
C      0.36672  0.08152  0.55444     C
C      0.36672  0.44564  0.08152     C
C      0.36672  0.44564  0.91852     C
C      0.36672  0.55444  0.08152     C
C      0.36672  0.55444  0.91852     C
C      0.36672  0.91852  0.44564     C
C      0.36672  0.91852  0.55444     C
C      0.36674  0.10634  0.32487     C
C      0.36674  0.10634  0.67527     C
C      0.36674  0.32487  0.10634     C
C      0.36674  0.32487  0.89374     C
C      0.36674  0.67527  0.10634     C
C      0.36674  0.67527  0.89374     C
C      0.36674  0.89374  0.32487     C
C      0.36674  0.89374  0.67527     C
O     0.3680411 0.1415117 0.3680411     O
O     0.3680411 0.1415117 0.6319611     O
O     0.3680411 0.3680411 0.1415117     O
O     0.3680411 0.3680411 0.8584917     O
O     0.3680411 0.6319611 0.1415117     O
O     0.3680411 0.6319611 0.8584917     O
O     0.3680411 0.8584917 0.3680411     O
O     0.3680411 0.8584917 0.6319611     O
S     0.369107 0.290786 0.290786     S
S     0.369107 0.290786 0.709226     S
S     0.369107 0.709226 0.290786     S
S     0.369107 0.709226 0.709226     S
O     0.3709314 0.0933916 0.1623312     O
O     0.3709314 0.0933916 0.8376712     O
O     0.3709314 0.1623312 0.0933916     O
O     0.3709314 0.1623312 0.9066116     O
O     0.3709314 0.8376712 0.0933916     O
O     0.3709314 0.8376712 0.9066116     O
O     0.3709314 0.9066116 0.1623312     O
O     0.3709314 0.9066116 0.8376712     O
O     0.3716014  0.13852 0.1822816     O
O     0.3716014  0.13852 0.8177216     O
O     0.3716014 0.1822816  0.13852     O
O     0.3716014 0.1822816  0.86152     O
O     0.3716014 0.8177216  0.13852     O
O     0.3716014 0.8177216  0.86152     O
O     0.3716014  0.86152 0.1822816     O
O     0.3716014  0.86152 0.8177216     O
O     0.372661 0.2215216 0.372661     O
O     0.372661 0.2215216 0.627341     O
O     0.372661 0.372661 0.2215216     O
O     0.372661 0.372661 0.7784816     O
O     0.372661 0.627341 0.2215216     O
O     0.372661 0.627341 0.7784816     O
O     0.372661 0.7784816 0.372661     O
O     0.372661 0.7784816 0.627341     O
O     0.3750511 0.0854711 0.1211011     O
O     0.3750511 0.0854711 0.8789011     O
O     0.3750511 0.1211011 0.0854711     O
O     0.3750511 0.1211011 0.9145311     O
O     0.3750511 0.8789011 0.0854711     O
O     0.3750511 0.8789011 0.9145311     O
O     0.3750511 0.9145311 0.1211011     O
O     0.3750511 0.9145311 0.8789011     O
O     0.3766914 0.1964013 0.4451711     O
O     0.3766914 0.1964013 0.5548311     O
O     0.3766914 0.4451711 0.1964013     O
O     0.3766914 0.4451711 0.8036013     O
O     0.3766914 0.5548311 0.1964013     O
O     0.3766914 0.5548311 0.8036013     O
O     0.3766914 0.8036013 0.4451711     O
O     0.3766914 0.8036013 0.5548311     O
C      0.37739  0.09078  0.30351     C
C      0.37739  0.09078  0.69651     C
C      0.37739  0.30351  0.09078     C
C      0.37739  0.30351  0.90938     C
C      0.37739  0.69651  0.09078     C
C      0.37739  0.69651  0.90938     C
C      0.37739  0.90938  0.30351     C
C      0.37739  0.90938  0.69651     C
O     0.3789011 0.1249511 0.4145311     O
O     0.3789011 0.1249511 0.5854711     O
O     0.3789011 0.4145311 0.1249511     O
O     0.3789011 0.4145311 0.8750511     O
O     0.3789011 0.5854711 0.1249511     O
O     0.3789011 0.5854711 0.8750511     O
O     0.3789011 0.8750511 0.4145311     O
O     0.3789011 0.8750511 0.5854711     O
Hf    0.3795487 0.1613066 0.3328996    Hf
Hf    0.3795487 0.1613066 0.6671016    Hf
Hf    0.3795487 0.3328996 0.1613066    Hf
Hf    0.3795487 0.3328996 0.8386946    Hf
Hf    0.3795487 0.6671016 0.1613066    Hf
Hf    0.3795487 0.6671016 0.8386946    Hf
Hf    0.3795487 0.8386946 0.3328996    Hf
Hf    0.3795487 0.8386946 0.6671016    Hf
C     0.3817117  0.08332 0.1437018     C
C     0.3817117  0.08332 0.8563018     C
C     0.3817117 0.1437018  0.08332     C
C     0.3817117 0.1437018  0.91672     C
C     0.3817117 0.8563018  0.08332     C
C     0.3817117 0.8563018  0.91672     C
C     0.3817117  0.91672 0.1437018     C
C     0.3817117  0.91672 0.8563018     C
O     0.3819316 0.2425214 0.4267116     O
O     0.3819316 0.2425214 0.5732916     O
O     0.3819316 0.4267116 0.2425214     O
O     0.3819316 0.4267116 0.7574814     O
O     0.3819316 0.5732916 0.2425214     O
O     0.3819316 0.5732916 0.7574814     O
O     0.3819316 0.7574814 0.4267116     O
O     0.3819316 0.7574814 0.5732916     O
S     0.383238 0.191647      0.5     S
S     0.383238      0.5 0.191647     S
S     0.383238      0.5 0.808367     S
S     0.383238 0.808367      0.5     S
O     0.3835212 0.2025712 0.3305912     O
O     0.3835212 0.2025712 0.6694112     O
O     0.3835212 0.3305912 0.2025712     O
O     0.3835212 0.3305912 0.7974312     O
O     0.3835212 0.6694112 0.2025712     O
O     0.3835212 0.6694112 0.7974312     O
O     0.3835212 0.7974312 0.3305912     O
O     0.3835212 0.7974312 0.6694112     O
H       0.3838   0.0842   0.4465     H
H       0.3838   0.0842   0.5535     H
H       0.3838   0.4465   0.0842     H
H       0.3838   0.4465   0.9158     H
H       0.3838   0.5535   0.0842     H
H       0.3838   0.5535   0.9158     H
H       0.3838   0.9158   0.4465     H
H       0.3838   0.9158   0.5535     H
C     0.3842517 0.2567317 0.3272717     C
C     0.3842517 0.2567317 0.6727317     C
C     0.3842517 0.3272717 0.2567317     C
C     0.3842517 0.3272717 0.7432717     C
C     0.3842517 0.6727317 0.2567317     C
C     0.3842517 0.6727317 0.7432717     C
C     0.3842517 0.7432717 0.3272717     C
C     0.3842517 0.7432717 0.6727317     C
S      0.38454  0.05822  0.30764     S
S      0.38454  0.05822  0.69244     S
S      0.38454  0.30764  0.05822     S
S      0.38454  0.30764  0.94182     S
S      0.38454  0.69244  0.05822     S
S      0.38454  0.69244  0.94182     S
S      0.38454  0.94182  0.30764     S
S      0.38454  0.94182  0.69244     S
H       0.3852   0.1124    0.272     H
H       0.3852   0.1124    0.728     H
H       0.3852    0.272   0.1124     H
H       0.3852    0.272   0.8876     H
H       0.3852    0.728   0.1124     H
H       0.3852    0.728   0.8876     H
H       0.3852   0.8876    0.272     H
H       0.3852   0.8876    0.728     H
C      0.38708 0.096411  0.27861     C
C      0.38708 0.096411  0.72141     C
C      0.38708  0.27861 0.096411     C
C      0.38708  0.27861 0.903611     C
C      0.38708  0.72141 0.096411     C
C      0.38708  0.72141 0.903611     C
C      0.38708 0.903611  0.27861     C
C      0.38708 0.903611  0.72141     C
H       0.3876   0.1148    0.228     H
H       0.3876   0.1148    0.772     H
H       0.3876    0.228   0.1148     H
H       0.3876    0.228   0.8852     H
H       0.3876    0.772   0.1148     H
H       0.3876    0.772   0.8852     H
H       0.3876   0.8852    0.228     H
H       0.3876   0.8852    0.772     H
C     0.3905018 0.1780917 0.4504316     C
C     0.3905018 0.1780917 0.5495716     C
C     0.3905018 0.4504316 0.1780917     C
C     0.3905018 0.4504316 0.8219117     C
C     0.3905018 0.5495716 0.1780917     C
C     0.3905018 0.5495716 0.8219117     C
C     0.3905018 0.8219117 0.4504316     C
C     0.3905018 0.8219117 0.5495716     C
C      0.39082  0.27832  0.31072     C
C      0.39082  0.27832  0.68932     C
C      0.39082  0.31072  0.27832     C
C      0.39082  0.31072  0.72172     C
C      0.39082  0.68932  0.27832     C
C      0.39082  0.68932  0.72172     C
C      0.39082  0.72172  0.31072     C
C      0.39082  0.72172  0.68932     C
C      0.39374  0.13334  0.17527     C
C      0.39374  0.13334  0.82487     C
C      0.39374  0.17527  0.13334     C
C      0.39374  0.17527  0.86674     C
C      0.39374  0.82487  0.13334     C
C      0.39374  0.82487  0.86674     C
C      0.39374  0.86674  0.17527     C
C      0.39374  0.86674  0.82487     C
C      0.39492  0.17262 0.4770917     C
C      0.39492  0.17262 0.5229117     C
C      0.39492 0.4770917  0.17262     C
C      0.39492 0.4770917  0.82742     C
C      0.39492 0.5229117  0.17262     C
C      0.39492 0.5229117  0.82742     C
C      0.39492  0.82742 0.4770917     C
C      0.39492  0.82742 0.5229117     C
Hf    0.3956455 0.1573758 0.3956455    Hf
Hf    0.3956455 0.1573758 0.6043555    Hf
Hf    0.3956455 0.3956455 0.1573758    Hf
Hf    0.3956455 0.3956455 0.8426258    Hf
Hf    0.3956455 0.6043555 0.1573758    Hf
Hf    0.3956455 0.6043555 0.8426258    Hf
Hf    0.3956455 0.8426258 0.3956455    Hf
Hf    0.3956455 0.8426258 0.6043555    Hf
C      0.39818 0.079311 0.265811     C
C      0.39818 0.079311 0.734211     C
C      0.39818 0.265811 0.079311     C
C      0.39818 0.265811 0.920711     C
C      0.39818 0.734211 0.079311     C
C      0.39818 0.734211 0.920711     C
C      0.39818 0.920711 0.265811     C
C      0.39818 0.920711 0.734211     C
C      0.40037  0.05608  0.27888     C
C      0.40037  0.05608  0.72128     C
C      0.40037  0.27888  0.05608     C
C      0.40037  0.27888  0.94408     C
C      0.40037  0.72128  0.05608     C
C      0.40037  0.72128  0.94408     C
C      0.40037  0.94408  0.27888     C
C      0.40037  0.94408  0.72128     C
O     0.4006511 0.1628311 0.435371     O
O     0.4006511 0.1628311 0.564631     O
O     0.4006511 0.435371 0.1628311     O
O     0.4006511 0.435371 0.8371711     O
O     0.4006511 0.564631 0.1628311     O
O     0.4006511 0.564631 0.8371711     O
O     0.4006511 0.8371711 0.435371     O
O     0.4006511 0.8371711 0.564631     O
O     0.4012512 0.2004917 0.4012512     O
O     0.4012512 0.2004917 0.5987512     O
O     0.4012512 0.4012512 0.2004917     O
O     0.4012512 0.4012512 0.7995117     O
O     0.4012512 0.5987512 0.2004917     O
O     0.4012512 0.5987512 0.7995117     O
O     0.4012512 0.7995117 0.4012512     O
O     0.4012512 0.7995117 0.5987512     O
O     0.4015911 0.1746411 0.361791     O
O     0.4015911 0.1746411 0.638211     O
O     0.4015911 0.361791 0.1746411     O
O     0.4015911 0.361791 0.8253611     O
O     0.4015911 0.638211 0.1746411     O
O     0.4015911 0.638211 0.8253611     O
O     0.4015911 0.8253611 0.361791     O
O     0.4015911 0.8253611 0.638211     O
O     0.4026813 0.2476313 0.3395714     O
O     0.4026813 0.2476313 0.6604314     O
O     0.4026813 0.3395714 0.2476313     O
O     0.4026813 0.3395714 0.7523713     O
O     0.4026813 0.6604314 0.2476313     O
O     0.4026813 0.6604314 0.7523713     O
O     0.4026813 0.7523713 0.3395714     O
O     0.4026813 0.7523713 0.6604314     O
C     0.403611  0.11308  0.22141     C
C     0.403611  0.11308  0.77861     C
C     0.403611  0.22141  0.11308     C
C     0.403611  0.22141  0.88708     C
C     0.403611  0.77861  0.11308     C
C     0.403611  0.77861  0.88708     C
C     0.403611  0.88708  0.22141     C
C     0.403611  0.88708  0.77861     C
H        0.404   0.0818   0.2497     H
H        0.404   0.0818   0.7503     H
H        0.404   0.2497   0.0818     H
H        0.404   0.2497   0.9182     H
H        0.404   0.7503   0.0818     H
H        0.404   0.7503   0.9182     H
H        0.404   0.9182   0.2497     H
H        0.404   0.9182   0.7503     H
C      0.40412  0.06822 0.1492018     C
C      0.40412  0.06822 0.8508018     C
C      0.40412 0.1492018  0.06822     C
C      0.40412 0.1492018  0.93182     C
C      0.40412 0.8508018  0.06822     C
C      0.40412 0.8508018  0.93182     C
C      0.40412  0.93182 0.1492018     C
C      0.40412  0.93182 0.8508018     C
O      0.40545  0.13685  0.15507     O
O      0.40545  0.13685  0.84507     O
O      0.40545  0.15507  0.13685     O
O      0.40545  0.15507  0.86325     O
O      0.40545  0.84507  0.13685     O
O      0.40545  0.84507  0.86325     O
O      0.40545  0.86325  0.15507     O
O      0.40545  0.86325  0.84507     O
O     0.4066116 0.1290714 0.3376712     O
O     0.4066116 0.1290714 0.6623312     O
O     0.4066116 0.3376712 0.1290714     O
O     0.4066116 0.3376712 0.8709314     O
O     0.4066116 0.6623312 0.1290714     O
O     0.4066116 0.6623312 0.8709314     O
O     0.4066116 0.8709314 0.3376712     O
O     0.4066116 0.8709314 0.6623312     O
C      0.40704  0.15254  0.48702     C
C      0.40704  0.15254  0.51302     C
C      0.40704  0.48702  0.15254     C
C      0.40704  0.48702  0.84754     C
C      0.40704  0.51302  0.15254     C
C      0.40704  0.51302  0.84754     C
C      0.40704  0.84754  0.48702     C
C      0.40704  0.84754  0.51302     C
O     0.4079118  0.16442 0.3045316     O
O     0.4079118  0.16442 0.6954716     O
O     0.4079118 0.3045316  0.16442     O
O     0.4079118 0.3045316  0.83562     O
O     0.4079118 0.6954716  0.16442     O
O     0.4079118 0.6954716  0.83562     O
O     0.4079118  0.83562 0.3045316     O
O     0.4079118  0.83562 0.6954716     O
Hf    0.4086816 0.2123526 0.3622516    Hf
Hf    0.4086816 0.2123526 0.6377496    Hf
Hf    0.4086816 0.3622516 0.2123526    Hf
Hf    0.4086816 0.3622516 0.7876486    Hf
Hf    0.4086816 0.6377496 0.2123526    Hf
Hf    0.4086816 0.6377496 0.7876486    Hf
Hf    0.4086816 0.7876486 0.3622516    Hf
Hf    0.4086816 0.7876486 0.6377496    Hf
C      0.40938  0.12279  0.19651     C
C      0.40938  0.12279  0.80351     C
C      0.40938  0.19651  0.12279     C
C      0.40938  0.19651  0.87739     C
C      0.40938  0.80351  0.12279     C
C      0.40938  0.80351  0.87739     C
C      0.40938  0.87739  0.19651     C
C      0.40938  0.87739  0.80351     C
C      0.41322  0.28954  0.30804     C
C      0.41322  0.28954  0.69204     C
C      0.41322  0.30804  0.28954     C
C      0.41322  0.30804  0.71054     C
C      0.41322  0.69204  0.28954     C
C      0.41322  0.69204  0.71054     C
C      0.41322  0.71054  0.30804     C
C      0.41322  0.71054  0.69204     C
C      0.41377  0.03178  0.27308     C
C      0.41377  0.03178  0.72708     C
C      0.41377  0.27308  0.03178     C
C      0.41377  0.27308  0.96838     C
C      0.41377  0.72708  0.03178     C
C      0.41377  0.72708  0.96838     C
C      0.41377  0.96838  0.27308     C
C      0.41377  0.96838  0.72708     C
O      0.41407  0.01367  0.29059     O
O      0.41407  0.01367  0.70959     O
O      0.41407  0.29059  0.01367     O
O      0.41407  0.29059  0.98647     O
O      0.41407  0.70959  0.01367     O
O      0.41407  0.70959  0.98647     O
O      0.41407  0.98647  0.29059     O
O      0.41407  0.98647  0.70959     O
S     0.414135 0.065367 0.179525     S
S     0.414135 0.065367 0.820485     S
S     0.414135 0.179525 0.065367     S
S     0.414135 0.179525 0.934647     S
S     0.414135 0.820485 0.065367     S
S     0.414135 0.820485 0.934647     S
S     0.414135 0.934647 0.179525     S
S     0.414135 0.934647 0.820485     S
H       0.4145     0.14   0.4774     H
H       0.4145     0.14   0.5226     H
H       0.4145   0.4774     0.14     H
H       0.4145   0.4774     0.86     H
H       0.4145   0.5226     0.14     H
H       0.4145   0.5226     0.86     H
H       0.4145     0.86   0.4774     H
H       0.4145     0.86   0.5226     H
O     0.4145311 0.1249511 0.3789011     O
O     0.4145311 0.1249511 0.6211011     O
O     0.4145311 0.3789011 0.1249511     O
O     0.4145311 0.3789011 0.8750511     O
O     0.4145311 0.6211011 0.1249511     O
O     0.4145311 0.6211011 0.8750511     O
O     0.4145311 0.8750511 0.3789011     O
O     0.4145311 0.8750511 0.6211011     O
H       0.4158   0.0535   0.1162     H
H       0.4158   0.0535   0.8838     H
H       0.4158   0.1162   0.0535     H
H       0.4158   0.1162   0.9465     H
H       0.4158   0.8838   0.0535     H
H       0.4158   0.8838   0.9465     H
H       0.4158   0.9465   0.1162     H
H       0.4158   0.9465   0.8838     H
C      0.41672 0.1182917 0.3563018     C
C      0.41672 0.1182917 0.6437018     C
C      0.41672 0.3563018 0.1182917     C
C      0.41672 0.3563018 0.8817117     C
C      0.41672 0.6437018 0.1182917     C
C      0.41672 0.6437018 0.8817117     C
C      0.41672 0.8817117 0.3563018     C
C      0.41672 0.8817117 0.6437018     C
H       0.4182    0.096   0.2503     H
H       0.4182    0.096   0.7497     H
H       0.4182   0.2503    0.096     H
H       0.4182   0.2503    0.904     H
H       0.4182   0.7497    0.096     H
H       0.4182   0.7497    0.904     H
H       0.4182    0.904   0.2503     H
H       0.4182    0.904   0.7497     H
C      0.41852  0.05444  0.13332     C
C      0.41852  0.05444  0.86672     C
C      0.41852  0.13332  0.05444     C
C      0.41852  0.13332  0.94564     C
C      0.41852  0.86672  0.05444     C
C      0.41852  0.86672  0.94564     C
C      0.41852  0.94564  0.13332     C
C      0.41852  0.94564  0.86672     C
C     0.420711  0.10198 0.234211     C
C     0.420711  0.10198 0.765811     C
C     0.420711 0.234211  0.10198     C
C     0.420711 0.234211  0.89818     C
C     0.420711 0.765811  0.10198     C
C     0.420711 0.765811  0.89818     C
C     0.420711  0.89818 0.234211     C
C     0.420711  0.89818 0.765811     C
O     0.4267116 0.2425214 0.3819316     O
O     0.4267116 0.2425214 0.6180716     O
O     0.4267116 0.3819316 0.2425214     O
O     0.4267116 0.3819316 0.7574814     O
O     0.4267116 0.6180716 0.2425214     O
O     0.4267116 0.6180716 0.7574814     O
O     0.4267116 0.7574814 0.3819316     O
O     0.4267116 0.7574814 0.6180716     O
O     0.4268815  0.03122 0.2530815     O
O     0.4268815  0.03122 0.7469215     O
O     0.4268815 0.2530815  0.03122     O
O     0.4268815 0.2530815  0.96882     O
O     0.4268815 0.7469215  0.03122     O
O     0.4268815 0.7469215  0.96882     O
O     0.4268815  0.96882 0.2530815     O
O     0.4268815  0.96882 0.7469215     O
H       0.4272   0.2854   0.3175     H
H       0.4272   0.2854   0.6825     H
H       0.4272   0.3175   0.2854     H
H       0.4272   0.3175   0.7146     H
H       0.4272   0.6825   0.2854     H
H       0.4272   0.6825   0.7146     H
H       0.4272   0.7146   0.3175     H
H       0.4272   0.7146   0.6825     H
C      0.43182  0.09592 0.3508018     C
C      0.43182  0.09592 0.6492018     C
C      0.43182 0.3508018  0.09592     C
C      0.43182 0.3508018  0.90412     C
C      0.43182 0.6492018  0.09592     C
C      0.43182 0.6492018  0.90412     C
C      0.43182  0.90412 0.3508018     C
C      0.43182  0.90412 0.6492018     C
S     0.434647 0.085875 0.320485     S
S     0.434647 0.085875 0.679525     S
S     0.434647 0.320485 0.085875     S
S     0.434647 0.320485 0.914135     S
S     0.434647 0.679525 0.085875     S
S     0.434647 0.679525 0.914135     S
S     0.434647 0.914135 0.320485     S
S     0.434647 0.914135 0.679525     S
O     0.4351516  0.21072 0.3314817     O
O     0.4351516  0.21072 0.6685217     O
O     0.4351516 0.3314817  0.21072     O
O     0.4351516 0.3314817  0.78932     O
O     0.4351516 0.6685217  0.21072     O
O     0.4351516 0.6685217  0.78932     O
O     0.4351516  0.78932 0.3314817     O
O     0.4351516  0.78932 0.6685217     O
O     0.435371 0.1628311 0.4006511     O
O     0.435371 0.1628311 0.5993511     O
O     0.435371 0.4006511 0.1628311     O
O     0.435371 0.4006511 0.8371711     O
O     0.435371 0.5993511 0.1628311     O
O     0.435371 0.5993511 0.8371711     O
O     0.435371 0.8371711 0.4006511     O
O     0.435371 0.8371711 0.5993511     O
C      0.43794  0.04174  0.14602     C
C      0.43794  0.04174  0.85402     C
C      0.43794  0.14602  0.04174     C
C      0.43794  0.14602  0.95834     C
C      0.43794  0.85402  0.04174     C
C      0.43794  0.85402  0.95834     C
C      0.43794  0.95834  0.14602     C
C      0.43794  0.95834  0.85402     C
C      0.43832  0.04672 0.1710418     C
C      0.43832  0.04672 0.8289618     C
C      0.43832 0.1710418  0.04672     C
C      0.43832 0.1710418  0.95332     C
C      0.43832 0.8289618  0.04672     C
C      0.43832 0.8289618  0.95332     C
C      0.43832  0.95332 0.1710418     C
C      0.43832  0.95332 0.8289618     C
S      0.44182  0.11554  0.19244     S
S      0.44182  0.11554  0.80764     S
S      0.44182  0.19244  0.11554     S
S      0.44182  0.19244  0.88454     S
S      0.44182  0.80764  0.11554     S
S      0.44182  0.80764  0.88454     S
S      0.44182  0.88454  0.19244     S
S      0.44182  0.88454  0.80764     S
C      0.44408  0.09977  0.22128     C
C      0.44408  0.09977  0.77888     C
C      0.44408  0.22128  0.09977     C
C      0.44408  0.22128  0.90037     C
C      0.44408  0.77888  0.09977     C
C      0.44408  0.77888  0.90037     C
C      0.44408  0.90037  0.22128     C
C      0.44408  0.90037  0.77888     C
O     0.4451711 0.1964013 0.3766914     O
O     0.4451711 0.1964013 0.6233114     O
O     0.4451711 0.3766914 0.1964013     O
O     0.4451711 0.3766914 0.8036013     O
O     0.4451711 0.6233114 0.1964013     O
O     0.4451711 0.6233114 0.8036013     O
O     0.4451711 0.8036013 0.3766914     O
O     0.4451711 0.8036013 0.6233114     O
C      0.44564  0.08152  0.36672     C
C      0.44564  0.08152  0.63332     C
C      0.44564  0.36672  0.08152     C
C      0.44564  0.36672  0.91852     C
C      0.44564  0.63332  0.08152     C
C      0.44564  0.63332  0.91852     C
C      0.44564  0.91852  0.36672     C
C      0.44564  0.91852  0.63332     C
H       0.4465   0.0842   0.3838     H
H       0.4465   0.0842   0.6162     H
H       0.4465   0.3838   0.0842     H
H       0.4465   0.3838   0.9158     H
H       0.4465   0.6162   0.0842     H
H       0.4465   0.6162   0.9158     H
H       0.4465   0.9158   0.3838     H
H       0.4465   0.9158   0.6162     H
H       0.4492   0.0311   0.1381     H
H       0.4492   0.0311   0.8619     H
H       0.4492   0.1381   0.0311     H
H       0.4492   0.1381   0.9689     H
H       0.4492   0.8619   0.0311     H
H       0.4492   0.8619   0.9689     H
H       0.4492   0.9689   0.1381     H
H       0.4492   0.9689   0.8619     H
C     0.4504316 0.1780917 0.3905018     C
C     0.4504316 0.1780917 0.6095018     C
C     0.4504316 0.3905018 0.1780917     C
C     0.4504316 0.3905018 0.8219117     C
C     0.4504316 0.6095018 0.1780917     C
C     0.4504316 0.6095018 0.8219117     C
C     0.4504316 0.8219117 0.3905018     C
C     0.4504316 0.8219117 0.6095018     C
O     0.4507214 0.0424415 0.2123312     O
O     0.4507214 0.0424415 0.7876712     O
O     0.4507214 0.2123312 0.0424415     O
O     0.4507214 0.2123312 0.9575615     O
O     0.4507214 0.7876712 0.0424415     O
O     0.4507214 0.7876712 0.9575615     O
O     0.4507214 0.9575615 0.2123312     O
O     0.4507214 0.9575615 0.7876712     O
C      0.45332  0.06172 0.3289618     C
C      0.45332  0.06172 0.6710418     C
C      0.45332 0.3289618  0.06172     C
C      0.45332 0.3289618  0.93832     C
C      0.45332 0.6710418  0.06172     C
C      0.45332 0.6710418  0.93832     C
C      0.45332  0.93832 0.3289618     C
C      0.45332  0.93832 0.6710418     C
C     0.4563016  0.03662 0.1901017     C
C     0.4563016  0.03662 0.8099017     C
C     0.4563016 0.1901017  0.03662     C
C     0.4563016 0.1901017  0.96342     C
C     0.4563016 0.8099017  0.03662     C
C     0.4563016 0.8099017  0.96342     C
C     0.4563016  0.96342 0.1901017     C
C     0.4563016  0.96342 0.8099017     C
O     0.4575615 0.0492814 0.7123312     O
O     0.4575615 0.7123312 0.0492814     O
O     0.4575615 0.7123312 0.9507214     O
O     0.4575615 0.9507214 0.7123312     O
O     0.4575616 0.0492814 0.2876712     O
O     0.4575616 0.2876712 0.0492814     O
O     0.4575616 0.2876712 0.9507214     O
O     0.4575616 0.9507214 0.2876712     O
C      0.45834  0.06214  0.35402     C
C      0.45834  0.06214  0.64602     C
C      0.45834  0.35402  0.06214     C
C      0.45834  0.35402  0.93794     C
C      0.45834  0.64602  0.06214     C
C      0.45834  0.64602  0.93794     C
C      0.45834  0.93794  0.35402     C
C      0.45834  0.93794  0.64602     C
O     0.4622314      0.0 0.2753216     O
O     0.4622314      0.0 0.7246816     O
O     0.4622314 0.2753216      0.0     O
O     0.4622314 0.7246816      0.0     O
C      0.46342 0.0437016 0.3099017     C
C      0.46342 0.0437016 0.6901017     C
C      0.46342 0.3099017 0.0437016     C
C      0.46342 0.3099017 0.9563016     C
C      0.46342 0.6901017 0.0437016     C
C      0.46342 0.6901017 0.9563016     C
C      0.46342 0.9563016 0.3099017     C
C      0.46342 0.9563016 0.6901017     C
Hf    0.4670806 0.0329206     0.25    Hf
Hf    0.4670806 0.0329206     0.75    Hf
Hf    0.4670806     0.25 0.0329206    Hf
Hf    0.4670806     0.25 0.9670806    Hf
Hf    0.4670806     0.75 0.0329206    Hf
Hf    0.4670806     0.75 0.9670806    Hf
Hf    0.4670806 0.9670806     0.25    Hf
Hf    0.4670806 0.9670806     0.75    Hf
C      0.46838  0.08637  0.22708     C
C      0.46838  0.08637  0.77308     C
C      0.46838  0.22708  0.08637     C
C      0.46838  0.22708  0.91377     C
C      0.46838  0.77308  0.08637     C
C      0.46838  0.77308  0.91377     C
C      0.46838  0.91377  0.22708     C
C      0.46838  0.91377  0.77308     C
O      0.46882 0.0731215 0.2469215     O
O      0.46882 0.0731215 0.7530815     O
O      0.46882 0.2469215 0.0731215     O
O      0.46882 0.2469215 0.9268815     O
O      0.46882 0.7530815 0.0731215     O
O      0.46882 0.7530815 0.9268815     O
O      0.46882 0.9268815 0.2469215     O
O      0.46882 0.9268815 0.7530815     O
H       0.4689   0.0508   0.3619     H
H       0.4689   0.0508   0.6381     H
H       0.4689   0.3619   0.0508     H
H       0.4689   0.3619   0.9492     H
H       0.4689   0.6381   0.0508     H
H       0.4689   0.6381   0.9492     H
H       0.4689   0.9492   0.3619     H
H       0.4689   0.9492   0.6381     H
O     0.4719413      0.0 0.2302913     O
O     0.4719413      0.0 0.7697113     O
O     0.4719413 0.2302913      0.0     O
O     0.4719413 0.7697113      0.0     O
O     0.474491 0.0243211 0.1826411     O
O     0.474491 0.0243211 0.8173611     O
O     0.474491 0.1826411 0.0243211     O
O     0.474491 0.1826411 0.9756811     O
O     0.474491 0.8173611 0.0243211     O
O     0.474491 0.8173611 0.9756811     O
O     0.474491 0.9756811 0.1826411     O
O     0.474491 0.9756811 0.8173611     O
O     0.4756811 0.025511 0.3173611     O
O     0.4756811 0.025511 0.6826411     O
O     0.4756811 0.3173611 0.025511     O
O     0.4756811 0.3173611 0.974491     O
O     0.4756811 0.6826411 0.025511     O
O     0.4756811 0.6826411 0.974491     O
O     0.4756811 0.974491 0.3173611     O
O     0.4756811 0.974491 0.6826411     O
C     0.4770917  0.17262  0.39492     C
C     0.4770917  0.17262  0.60512     C
C     0.4770917  0.39492  0.17262     C
C     0.4770917  0.39492  0.82742     C
C     0.4770917  0.60512  0.17262     C
C     0.4770917  0.60512  0.82742     C
C     0.4770917  0.82742  0.39492     C
C     0.4770917  0.82742  0.60512     C
H       0.4774     0.14   0.4145     H
H       0.4774     0.14   0.5855     H
H       0.4774   0.4145     0.14     H
H       0.4774   0.4145     0.86     H
H       0.4774   0.5855     0.14     H
H       0.4774   0.5855     0.86     H
H       0.4774     0.86   0.4145     H
H       0.4774     0.86   0.5855     H
O      0.48647  0.08607  0.20959     O
O      0.48647  0.08607  0.79059     O
O      0.48647  0.20959  0.08607     O
O      0.48647  0.20959  0.91407     O
O      0.48647  0.79059  0.08607     O
O      0.48647  0.79059  0.91407     O
O      0.48647  0.91407  0.20959     O
O      0.48647  0.91407  0.79059     O
C      0.48702  0.15254  0.40704     C
C      0.48702  0.15254  0.59304     C
C      0.48702  0.40704  0.15254     C
C      0.48702  0.40704  0.84754     C
C      0.48702  0.59304  0.15254     C
C      0.48702  0.59304  0.84754     C
C      0.48702  0.84754  0.40704     C
C      0.48702  0.84754  0.59304     C
Hf         0.5      0.0 0.20407211    Hf
Hf         0.5      0.0 0.29592811    Hf
Hf         0.5      0.0 0.70407211    Hf
Hf         0.5      0.0 0.79592811    Hf
O          0.5 0.0280613 0.2697113     O
O          0.5 0.0280613 0.7302913     O
O          0.5 0.0377714 0.2246816     O
O          0.5 0.0377714 0.7753216     O
S          0.5 0.191647 0.383238     S
S          0.5 0.191647 0.616778     S
Hf         0.5 0.20407211      0.0    Hf
O          0.5 0.2246816 0.0377714     O
O          0.5 0.2246816 0.9622314     O
O          0.5 0.2697113 0.0280613     O
O          0.5 0.2697113 0.9719413     O
Hf         0.5 0.29592811      0.0    Hf
S          0.5 0.383238 0.191647     S
S          0.5 0.383238 0.808367     S
S          0.5 0.616778 0.191647     S
S          0.5 0.616778 0.808367     S
Hf         0.5 0.70407211      0.0    Hf
O          0.5 0.7302913 0.0280613     O
O          0.5 0.7302913 0.9719413     O
O          0.5 0.7753216 0.0377714     O
O          0.5 0.7753216 0.9622314     O
Hf         0.5 0.79592811      0.0    Hf
S          0.5 0.808367 0.383238     S
S          0.5 0.808367 0.616778     S
O          0.5 0.9622314 0.2246816     O
O          0.5 0.9622314 0.7753216     O
O          0.5 0.9719413 0.2697113     O
O          0.5 0.9719413 0.7302913     O
C      0.51302  0.15254  0.40704     C
C      0.51302  0.15254  0.59304     C
C      0.51302  0.40704  0.15254     C
C      0.51302  0.40704  0.84754     C
C      0.51302  0.59304  0.15254     C
C      0.51302  0.59304  0.84754     C
C      0.51302  0.84754  0.40704     C
C      0.51302  0.84754  0.59304     C
O      0.51367  0.08607  0.20959     O
O      0.51367  0.08607  0.79059     O
O      0.51367  0.20959  0.08607     O
O      0.51367  0.20959  0.91407     O
O      0.51367  0.79059  0.08607     O
O      0.51367  0.79059  0.91407     O
O      0.51367  0.91407  0.20959     O
O      0.51367  0.91407  0.79059     O
H       0.5226     0.14   0.4145     H
H       0.5226     0.14   0.5855     H
H       0.5226   0.4145     0.14     H
H       0.5226   0.4145     0.86     H
H       0.5226   0.5855     0.14     H
H       0.5226   0.5855     0.86     H
H       0.5226     0.86   0.4145     H
H       0.5226     0.86   0.5855     H
C     0.5229117  0.17262  0.39492     C
C     0.5229117  0.17262  0.60512     C
C     0.5229117  0.39492  0.17262     C
C     0.5229117  0.39492  0.82742     C
C     0.5229117  0.60512  0.17262     C
C     0.5229117  0.60512  0.82742     C
C     0.5229117  0.82742  0.39492     C
C     0.5229117  0.82742  0.60512     C
O     0.5243211 0.025511 0.3173611     O
O     0.5243211 0.025511 0.6826411     O
O     0.5243211 0.3173611 0.025511     O
O     0.5243211 0.3173611 0.974491     O
O     0.5243211 0.6826411 0.025511     O
O     0.5243211 0.6826411 0.974491     O
O     0.5243211 0.974491 0.3173611     O
O     0.5243211 0.974491 0.6826411     O
O     0.525511 0.0243211 0.1826411     O
O     0.525511 0.0243211 0.8173611     O
O     0.525511 0.1826411 0.0243211     O
O     0.525511 0.1826411 0.9756811     O
O     0.525511 0.8173611 0.0243211     O
O     0.525511 0.8173611 0.9756811     O
O     0.525511 0.9756811 0.1826411     O
O     0.525511 0.9756811 0.8173611     O
O     0.5280613      0.0 0.2302913     O
O     0.5280613      0.0 0.7697113     O
O     0.5280613 0.2302913      0.0     O
O     0.5280613 0.7697113      0.0     O
H       0.5311   0.0508   0.3619     H
H       0.5311   0.0508   0.6381     H
H       0.5311   0.3619   0.0508     H
H       0.5311   0.3619   0.9492     H
H       0.5311   0.6381   0.0508     H
H       0.5311   0.6381   0.9492     H
H       0.5311   0.9492   0.3619     H
H       0.5311   0.9492   0.6381     H
O      0.53122 0.0731215 0.2469215     O
O      0.53122 0.0731215 0.7530815     O
O      0.53122 0.2469215 0.0731215     O
O      0.53122 0.2469215 0.9268815     O
O      0.53122 0.7530815 0.0731215     O
O      0.53122 0.7530815 0.9268815     O
O      0.53122 0.9268815 0.2469215     O
O      0.53122 0.9268815 0.7530815     O
C      0.53178  0.08637  0.22708     C
C      0.53178  0.08637  0.77308     C
C      0.53178  0.22708  0.08637     C
C      0.53178  0.22708  0.91377     C
C      0.53178  0.77308  0.08637     C
C      0.53178  0.77308  0.91377     C
C      0.53178  0.91377  0.22708     C
C      0.53178  0.91377  0.77308     C
Hf    0.5329206 0.0329206     0.25    Hf
Hf    0.5329206 0.0329206     0.75    Hf
Hf    0.5329206     0.25 0.0329206    Hf
Hf    0.5329206     0.25 0.9670806    Hf
Hf    0.5329206     0.75 0.0329206    Hf
Hf    0.5329206     0.75 0.9670806    Hf
Hf    0.5329206 0.9670806     0.25    Hf
Hf    0.5329206 0.9670806     0.75    Hf
C      0.53662 0.0437016 0.3099017     C
C      0.53662 0.0437016 0.6901017     C
C      0.53662 0.3099017 0.0437016     C
C      0.53662 0.3099017 0.9563016     C
C      0.53662 0.6901017 0.0437016     C
C      0.53662 0.6901017 0.9563016     C
C      0.53662 0.9563016 0.3099017     C
C      0.53662 0.9563016 0.6901017     C
O     0.5377714      0.0 0.2753216     O
O     0.5377714      0.0 0.7246816     O
O     0.5377714 0.2753216      0.0     O
O     0.5377714 0.7246816      0.0     O
C      0.54174  0.06214  0.35402     C
C      0.54174  0.06214  0.64602     C
C      0.54174  0.35402  0.06214     C
C      0.54174  0.35402  0.93794     C
C      0.54174  0.64602  0.06214     C
C      0.54174  0.64602  0.93794     C
C      0.54174  0.93794  0.35402     C
C      0.54174  0.93794  0.64602     C
O     0.5424415 0.0492814 0.7123312     O
O     0.5424415 0.7123312 0.0492814     O
O     0.5424415 0.7123312 0.9507214     O
O     0.5424415 0.9507214 0.7123312     O
O     0.5424416 0.0492814 0.2876712     O
O     0.5424416 0.2876712 0.0492814     O
O     0.5424416 0.2876712 0.9507214     O
O     0.5424416 0.9507214 0.2876712     O
C     0.5437016  0.03662 0.1901017     C
C     0.5437016  0.03662 0.8099017     C
C     0.5437016 0.1901017  0.03662     C
C     0.5437016 0.1901017  0.96342     C
C     0.5437016 0.8099017  0.03662     C
C     0.5437016 0.8099017  0.96342     C
C     0.5437016  0.96342 0.1901017     C
C     0.5437016  0.96342 0.8099017     C
C      0.54672  0.06172 0.3289618     C
C      0.54672  0.06172 0.6710418     C
C      0.54672 0.3289618  0.06172     C
C      0.54672 0.3289618  0.93832     C
C      0.54672 0.6710418  0.06172     C
C      0.54672 0.6710418  0.93832     C
C      0.54672  0.93832 0.3289618     C
C      0.54672  0.93832 0.6710418     C
O     0.5492814 0.0424415 0.2123312     O
O     0.5492814 0.0424415 0.7876712     O
O     0.5492814 0.2123312 0.0424415     O
O     0.5492814 0.2123312 0.9575615     O
O     0.5492814 0.7876712 0.0424415     O
O     0.5492814 0.7876712 0.9575615     O
O     0.5492814 0.9575615 0.2123312     O
O     0.5492814 0.9575615 0.7876712     O
C     0.5495716 0.1780917 0.3905018     C
C     0.5495716 0.1780917 0.6095018     C
C     0.5495716 0.3905018 0.1780917     C
C     0.5495716 0.3905018 0.8219117     C
C     0.5495716 0.6095018 0.1780917     C
C     0.5495716 0.6095018 0.8219117     C
C     0.5495716 0.8219117 0.3905018     C
C     0.5495716 0.8219117 0.6095018     C
H       0.5508   0.0311   0.1381     H
H       0.5508   0.0311   0.8619     H
H       0.5508   0.1381   0.0311     H
H       0.5508   0.1381   0.9689     H
H       0.5508   0.8619   0.0311     H
H       0.5508   0.8619   0.9689     H
H       0.5508   0.9689   0.1381     H
H       0.5508   0.9689   0.8619     H
H       0.5535   0.0842   0.3838     H
H       0.5535   0.0842   0.6162     H
H       0.5535   0.3838   0.0842     H
H       0.5535   0.3838   0.9158     H
H       0.5535   0.6162   0.0842     H
H       0.5535   0.6162   0.9158     H
H       0.5535   0.9158   0.3838     H
H       0.5535   0.9158   0.6162     H
C      0.55444  0.08152  0.36672     C
C      0.55444  0.08152  0.63332     C
C      0.55444  0.36672  0.08152     C
C      0.55444  0.36672  0.91852     C
C      0.55444  0.63332  0.08152     C
C      0.55444  0.63332  0.91852     C
C      0.55444  0.91852  0.36672     C
C      0.55444  0.91852  0.63332     C
O     0.5548311 0.1964013 0.3766914     O
O     0.5548311 0.1964013 0.6233114     O
O     0.5548311 0.3766914 0.1964013     O
O     0.5548311 0.3766914 0.8036013     O
O     0.5548311 0.6233114 0.1964013     O
O     0.5548311 0.6233114 0.8036013     O
O     0.5548311 0.8036013 0.3766914     O
O     0.5548311 0.8036013 0.6233114     O
C      0.55608  0.09977  0.22128     C
C      0.55608  0.09977  0.77888     C
C      0.55608  0.22128  0.09977     C
C      0.55608  0.22128  0.90037     C
C      0.55608  0.77888  0.09977     C
C      0.55608  0.77888  0.90037     C
C      0.55608  0.90037  0.22128     C
C      0.55608  0.90037  0.77888     C
S      0.55822  0.11554  0.19244     S
S      0.55822  0.11554  0.80764     S
S      0.55822  0.19244  0.11554     S
S      0.55822  0.19244  0.88454     S
S      0.55822  0.80764  0.11554     S
S      0.55822  0.80764  0.88454     S
S      0.55822  0.88454  0.19244     S
S      0.55822  0.88454  0.80764     S
C      0.56172  0.04672 0.1710418     C
C      0.56172  0.04672 0.8289618     C
C      0.56172 0.1710418  0.04672     C
C      0.56172 0.1710418  0.95332     C
C      0.56172 0.8289618  0.04672     C
C      0.56172 0.8289618  0.95332     C
C      0.56172  0.95332 0.1710418     C
C      0.56172  0.95332 0.8289618     C
C      0.56214  0.04174  0.14602     C
C      0.56214  0.04174  0.85402     C
C      0.56214  0.14602  0.04174     C
C      0.56214  0.14602  0.95834     C
C      0.56214  0.85402  0.04174     C
C      0.56214  0.85402  0.95834     C
C      0.56214  0.95834  0.14602     C
C      0.56214  0.95834  0.85402     C
O     0.564631 0.1628311 0.4006511     O
O     0.564631 0.1628311 0.5993511     O
O     0.564631 0.4006511 0.1628311     O
O     0.564631 0.4006511 0.8371711     O
O     0.564631 0.5993511 0.1628311     O
O     0.564631 0.5993511 0.8371711     O
O     0.564631 0.8371711 0.4006511     O
O     0.564631 0.8371711 0.5993511     O
O     0.5648516  0.21072 0.3314817     O
O     0.5648516  0.21072 0.6685217     O
O     0.5648516 0.3314817  0.21072     O
O     0.5648516 0.3314817  0.78932     O
O     0.5648516 0.6685217  0.21072     O
O     0.5648516 0.6685217  0.78932     O
O     0.5648516  0.78932 0.3314817     O
O     0.5648516  0.78932 0.6685217     O
S     0.565367 0.085875 0.320485     S
S     0.565367 0.085875 0.679525     S
S     0.565367 0.320485 0.085875     S
S     0.565367 0.320485 0.914135     S
S     0.565367 0.679525 0.085875     S
S     0.565367 0.679525 0.914135     S
S     0.565367 0.914135 0.320485     S
S     0.565367 0.914135 0.679525     S
C      0.56822  0.09592 0.3508018     C
C      0.56822  0.09592 0.6492018     C
C      0.56822 0.3508018  0.09592     C
C      0.56822 0.3508018  0.90412     C
C      0.56822 0.6492018  0.09592     C
C      0.56822 0.6492018  0.90412     C
C      0.56822  0.90412 0.3508018     C
C      0.56822  0.90412 0.6492018     C
H       0.5728   0.2854   0.3175     H
H       0.5728   0.2854   0.6825     H
H       0.5728   0.3175   0.2854     H
H       0.5728   0.3175   0.7146     H
H       0.5728   0.6825   0.2854     H
H       0.5728   0.6825   0.7146     H
H       0.5728   0.7146   0.3175     H
H       0.5728   0.7146   0.6825     H
O     0.5731215  0.03122 0.2530815     O
O     0.5731215  0.03122 0.7469215     O
O     0.5731215 0.2530815  0.03122     O
O     0.5731215 0.2530815  0.96882     O
O     0.5731215 0.7469215  0.03122     O
O     0.5731215 0.7469215  0.96882     O
O     0.5731215  0.96882 0.2530815     O
O     0.5731215  0.96882 0.7469215     O
O     0.5732916 0.2425214 0.3819316     O
O     0.5732916 0.2425214 0.6180716     O
O     0.5732916 0.3819316 0.2425214     O
O     0.5732916 0.3819316 0.7574814     O
O     0.5732916 0.6180716 0.2425214     O
O     0.5732916 0.6180716 0.7574814     O
O     0.5732916 0.7574814 0.3819316     O
O     0.5732916 0.7574814 0.6180716     O
C     0.579311  0.10198 0.234211     C
C     0.579311  0.10198 0.765811     C
C     0.579311 0.234211  0.10198     C
C     0.579311 0.234211  0.89818     C
C     0.579311 0.765811  0.10198     C
C     0.579311 0.765811  0.89818     C
C     0.579311  0.89818 0.234211     C
C     0.579311  0.89818 0.765811     C
C      0.58152  0.05444  0.13332     C
C      0.58152  0.05444  0.86672     C
C      0.58152  0.13332  0.05444     C
C      0.58152  0.13332  0.94564     C
C      0.58152  0.86672  0.05444     C
C      0.58152  0.86672  0.94564     C
C      0.58152  0.94564  0.13332     C
C      0.58152  0.94564  0.86672     C
H       0.5818    0.096   0.2503     H
H       0.5818    0.096   0.7497     H
H       0.5818   0.2503    0.096     H
H       0.5818   0.2503    0.904     H
H       0.5818   0.7497    0.096     H
H       0.5818   0.7497    0.904     H
H       0.5818    0.904   0.2503     H
H       0.5818    0.904   0.7497     H
C      0.58332 0.1182917 0.3563018     C
C      0.58332 0.1182917 0.6437018     C
C      0.58332 0.3563018 0.1182917     C
C      0.58332 0.3563018 0.8817117     C
C      0.58332 0.6437018 0.1182917     C
C      0.58332 0.6437018 0.8817117     C
C      0.58332 0.8817117 0.3563018     C
C      0.58332 0.8817117 0.6437018     C
H       0.5842   0.0535   0.1162     H
H       0.5842   0.0535   0.8838     H
H       0.5842   0.1162   0.0535     H
H       0.5842   0.1162   0.9465     H
H       0.5842   0.8838   0.0535     H
H       0.5842   0.8838   0.9465     H
H       0.5842   0.9465   0.1162     H
H       0.5842   0.9465   0.8838     H
O     0.5854711 0.1249511 0.3789011     O
O     0.5854711 0.1249511 0.6211011     O
O     0.5854711 0.3789011 0.1249511     O
O     0.5854711 0.3789011 0.8750511     O
O     0.5854711 0.6211011 0.1249511     O
O     0.5854711 0.6211011 0.8750511     O
O     0.5854711 0.8750511 0.3789011     O
O     0.5854711 0.8750511 0.6211011     O
H       0.5855     0.14   0.4774     H
H       0.5855     0.14   0.5226     H
H       0.5855   0.4774     0.14     H
H       0.5855   0.4774     0.86     H
H       0.5855   0.5226     0.14     H
H       0.5855   0.5226     0.86     H
H       0.5855     0.86   0.4774     H
H       0.5855     0.86   0.5226     H
S     0.585875 0.065367 0.179525     S
S     0.585875 0.065367 0.820485     S
S     0.585875 0.179525 0.065367     S
S     0.585875 0.179525 0.934647     S
S     0.585875 0.820485 0.065367     S
S     0.585875 0.820485 0.934647     S
S     0.585875 0.934647 0.179525     S
S     0.585875 0.934647 0.820485     S
O      0.58607  0.01367  0.29059     O
O      0.58607  0.01367  0.70959     O
O      0.58607  0.29059  0.01367     O
O      0.58607  0.29059  0.98647     O
O      0.58607  0.70959  0.01367     O
O      0.58607  0.70959  0.98647     O
O      0.58607  0.98647  0.29059     O
O      0.58607  0.98647  0.70959     O
C      0.58637  0.03178  0.27308     C
C      0.58637  0.03178  0.72708     C
C      0.58637  0.27308  0.03178     C
C      0.58637  0.27308  0.96838     C
C      0.58637  0.72708  0.03178     C
C      0.58637  0.72708  0.96838     C
C      0.58637  0.96838  0.27308     C
C      0.58637  0.96838  0.72708     C
C      0.58682  0.28954  0.30804     C
C      0.58682  0.28954  0.69204     C
C      0.58682  0.30804  0.28954     C
C      0.58682  0.30804  0.71054     C
C      0.58682  0.69204  0.28954     C
C      0.58682  0.69204  0.71054     C
C      0.58682  0.71054  0.30804     C
C      0.58682  0.71054  0.69204     C
C      0.59078  0.12279  0.19651     C
C      0.59078  0.12279  0.80351     C
C      0.59078  0.19651  0.12279     C
C      0.59078  0.19651  0.87739     C
C      0.59078  0.80351  0.12279     C
C      0.59078  0.80351  0.87739     C
C      0.59078  0.87739  0.19651     C
C      0.59078  0.87739  0.80351     C
Hf    0.5913196 0.2123526 0.3622516    Hf
Hf    0.5913196 0.2123526 0.6377496    Hf
Hf    0.5913196 0.3622516 0.2123526    Hf
Hf    0.5913196 0.3622516 0.7876486    Hf
Hf    0.5913196 0.6377496 0.2123526    Hf
Hf    0.5913196 0.6377496 0.7876486    Hf
Hf    0.5913196 0.7876486 0.3622516    Hf
Hf    0.5913196 0.7876486 0.6377496    Hf
O     0.5920918  0.16442 0.3045316     O
O     0.5920918  0.16442 0.6954716     O
O     0.5920918 0.3045316  0.16442     O
O     0.5920918 0.3045316  0.83562     O
O     0.5920918 0.6954716  0.16442     O
O     0.5920918 0.6954716  0.83562     O
O     0.5920918  0.83562 0.3045316     O
O     0.5920918  0.83562 0.6954716     O
C      0.59304  0.15254  0.48702     C
C      0.59304  0.15254  0.51302     C
C      0.59304  0.48702  0.15254     C
C      0.59304  0.48702  0.84754     C
C      0.59304  0.51302  0.15254     C
C      0.59304  0.51302  0.84754     C
C      0.59304  0.84754  0.48702     C
C      0.59304  0.84754  0.51302     C
O     0.5933916 0.1290714 0.3376712     O
O     0.5933916 0.1290714 0.6623312     O
O     0.5933916 0.3376712 0.1290714     O
O     0.5933916 0.3376712 0.8709314     O
O     0.5933916 0.6623312 0.1290714     O
O     0.5933916 0.6623312 0.8709314     O
O     0.5933916 0.8709314 0.3376712     O
O     0.5933916 0.8709314 0.6623312     O
O      0.59465  0.13685  0.15507     O
O      0.59465  0.13685  0.84507     O
O      0.59465  0.15507  0.13685     O
O      0.59465  0.15507  0.86325     O
O      0.59465  0.84507  0.13685     O
O      0.59465  0.84507  0.86325     O
O      0.59465  0.86325  0.15507     O
O      0.59465  0.86325  0.84507     O
C      0.59592  0.06822 0.1492018     C
C      0.59592  0.06822 0.8508018     C
C      0.59592 0.1492018  0.06822     C
C      0.59592 0.1492018  0.93182     C
C      0.59592 0.8508018  0.06822     C
C      0.59592 0.8508018  0.93182     C
C      0.59592  0.93182 0.1492018     C
C      0.59592  0.93182 0.8508018     C
H        0.596   0.0818   0.2497     H
H        0.596   0.0818   0.7503     H
H        0.596   0.2497   0.0818     H
H        0.596   0.2497   0.9182     H
H        0.596   0.7503   0.0818     H
H        0.596   0.7503   0.9182     H
H        0.596   0.9182   0.2497     H
H        0.596   0.9182   0.7503     H
C     0.596411  0.11308  0.22141     C
C     0.596411  0.11308  0.77861     C
C     0.596411  0.22141  0.11308     C
C     0.596411  0.22141  0.88708     C
C     0.596411  0.77861  0.11308     C
C     0.596411  0.77861  0.88708     C
C     0.596411  0.88708  0.22141     C
C     0.596411  0.88708  0.77861     C
O     0.5973213 0.2476313 0.3395714     O
O     0.5973213 0.2476313 0.6604314     O
O     0.5973213 0.3395714 0.2476313     O
O     0.5973213 0.3395714 0.7523713     O
O     0.5973213 0.6604314 0.2476313     O
O     0.5973213 0.6604314 0.7523713     O
O     0.5973213 0.7523713 0.3395714     O
O     0.5973213 0.7523713 0.6604314     O
O     0.5984111 0.1746411 0.361791     O
O     0.5984111 0.1746411 0.638211     O
O     0.5984111 0.361791 0.1746411     O
O     0.5984111 0.361791 0.8253611     O
O     0.5984111 0.638211 0.1746411     O
O     0.5984111 0.638211 0.8253611     O
O     0.5984111 0.8253611 0.361791     O
O     0.5984111 0.8253611 0.638211     O
O     0.5987512 0.2004917 0.4012512     O
O     0.5987512 0.2004917 0.5987512     O
O     0.5987512 0.4012512 0.2004917     O
O     0.5987512 0.4012512 0.7995117     O
O     0.5987512 0.5987512 0.2004917     O
O     0.5987512 0.5987512 0.7995117     O
O     0.5987512 0.7995117 0.4012512     O
O     0.5987512 0.7995117 0.5987512     O
O     0.5993511 0.1628311 0.435371     O
O     0.5993511 0.1628311 0.564631     O
O     0.5993511 0.435371 0.1628311     O
O     0.5993511 0.435371 0.8371711     O
O     0.5993511 0.564631 0.1628311     O
O     0.5993511 0.564631 0.8371711     O
O     0.5993511 0.8371711 0.435371     O
O     0.5993511 0.8371711 0.564631     O
C      0.59977  0.05608  0.27888     C
C      0.59977  0.05608  0.72128     C
C      0.59977  0.27888  0.05608     C
C      0.59977  0.27888  0.94408     C
C      0.59977  0.72128  0.05608     C
C      0.59977  0.72128  0.94408     C
C      0.59977  0.94408  0.27888     C
C      0.59977  0.94408  0.72128     C
C      0.60198 0.079311 0.265811     C
C      0.60198 0.079311 0.734211     C
C      0.60198 0.265811 0.079311     C
C      0.60198 0.265811 0.920711     C
C      0.60198 0.734211 0.079311     C
C      0.60198 0.734211 0.920711     C
C      0.60198 0.920711 0.265811     C
C      0.60198 0.920711 0.734211     C
Hf    0.6043555 0.1573758 0.3956455    Hf
Hf    0.6043555 0.1573758 0.6043555    Hf
Hf    0.6043555 0.3956455 0.1573758    Hf
Hf    0.6043555 0.3956455 0.8426258    Hf
Hf    0.6043555 0.6043555 0.1573758    Hf
Hf    0.6043555 0.6043555 0.8426258    Hf
Hf    0.6043555 0.8426258 0.3956455    Hf
Hf    0.6043555 0.8426258 0.6043555    Hf
C      0.60512  0.17262 0.4770917     C
C      0.60512  0.17262 0.5229117     C
C      0.60512 0.4770917  0.17262     C
C      0.60512 0.4770917  0.82742     C
C      0.60512 0.5229117  0.17262     C
C      0.60512 0.5229117  0.82742     C
C      0.60512  0.82742 0.4770917     C
C      0.60512  0.82742 0.5229117     C
C      0.60634  0.13334  0.17527     C
C      0.60634  0.13334  0.82487     C
C      0.60634  0.17527  0.13334     C
C      0.60634  0.17527  0.86674     C
C      0.60634  0.82487  0.13334     C
C      0.60634  0.82487  0.86674     C
C      0.60634  0.86674  0.17527     C
C      0.60634  0.86674  0.82487     C
C      0.60922  0.27832  0.31072     C
C      0.60922  0.27832  0.68932     C
C      0.60922  0.31072  0.27832     C
C      0.60922  0.31072  0.72172     C
C      0.60922  0.68932  0.27832     C
C      0.60922  0.68932  0.72172     C
C      0.60922  0.72172  0.31072     C
C      0.60922  0.72172  0.68932     C
C     0.6095018 0.1780917 0.4504316     C
C     0.6095018 0.1780917 0.5495716     C
C     0.6095018 0.4504316 0.1780917     C
C     0.6095018 0.4504316 0.8219117     C
C     0.6095018 0.5495716 0.1780917     C
C     0.6095018 0.5495716 0.8219117     C
C     0.6095018 0.8219117 0.4504316     C
C     0.6095018 0.8219117 0.5495716     C
H       0.6124   0.1148    0.228     H
H       0.6124   0.1148    0.772     H
H       0.6124    0.228   0.1148     H
H       0.6124    0.228   0.8852     H
H       0.6124    0.772   0.1148     H
H       0.6124    0.772   0.8852     H
H       0.6124   0.8852    0.228     H
H       0.6124   0.8852    0.772     H
C      0.61308 0.096411  0.27861     C
C      0.61308 0.096411  0.72141     C
C      0.61308  0.27861 0.096411     C
C      0.61308  0.27861 0.903611     C
C      0.61308  0.72141 0.096411     C
C      0.61308  0.72141 0.903611     C
C      0.61308 0.903611  0.27861     C
C      0.61308 0.903611  0.72141     C
H       0.6148   0.1124    0.272     H
H       0.6148   0.1124    0.728     H
H       0.6148    0.272   0.1124     H
H       0.6148    0.272   0.8876     H
H       0.6148    0.728   0.1124     H
H       0.6148    0.728   0.8876     H
H       0.6148   0.8876    0.272     H
H       0.6148   0.8876    0.728     H
S      0.61554  0.05822  0.30764     S
S      0.61554  0.05822  0.69244     S
S      0.61554  0.30764  0.05822     S
S      0.61554  0.30764  0.94182     S
S      0.61554  0.69244  0.05822     S
S      0.61554  0.69244  0.94182     S
S      0.61554  0.94182  0.30764     S
S      0.61554  0.94182  0.69244     S
C     0.6157517 0.2567317 0.3272717     C
C     0.6157517 0.2567317 0.6727317     C
C     0.6157517 0.3272717 0.2567317     C
C     0.6157517 0.3272717 0.7432717     C
C     0.6157517 0.6727317 0.2567317     C
C     0.6157517 0.6727317 0.7432717     C
C     0.6157517 0.7432717 0.3272717     C
C     0.6157517 0.7432717 0.6727317     C
H       0.6162   0.0842   0.4465     H
H       0.6162   0.0842   0.5535     H
H       0.6162   0.4465   0.0842     H
H       0.6162   0.4465   0.9158     H
H       0.6162   0.5535   0.0842     H
H       0.6162   0.5535   0.9158     H
H       0.6162   0.9158   0.4465     H
H       0.6162   0.9158   0.5535     H
O     0.6164812 0.2025712 0.3305912     O
O     0.6164812 0.2025712 0.6694112     O
O     0.6164812 0.3305912 0.2025712     O
O     0.6164812 0.3305912 0.7974312     O
O     0.6164812 0.6694112 0.2025712     O
O     0.6164812 0.6694112 0.7974312     O
O     0.6164812 0.7974312 0.3305912     O
O     0.6164812 0.7974312 0.6694112     O
S     0.616778 0.191647      0.5     S
S     0.616778      0.5 0.191647     S
S     0.616778      0.5 0.808367     S
S     0.616778 0.808367      0.5     S
O     0.6180716 0.2425214 0.4267116     O
O     0.6180716 0.2425214 0.5732916     O
O     0.6180716 0.4267116 0.2425214     O
O     0.6180716 0.4267116 0.7574814     O
O     0.6180716 0.5732916 0.2425214     O
O     0.6180716 0.5732916 0.7574814     O
O     0.6180716 0.7574814 0.4267116     O
O     0.6180716 0.7574814 0.5732916     O
C     0.6182917  0.08332 0.1437018     C
C     0.6182917  0.08332 0.8563018     C
C     0.6182917 0.1437018  0.08332     C
C     0.6182917 0.1437018  0.91672     C
C     0.6182917 0.8563018  0.08332     C
C     0.6182917 0.8563018  0.91672     C
C     0.6182917  0.91672 0.1437018     C
C     0.6182917  0.91672 0.8563018     C
Hf    0.6204527 0.1613066 0.3328996    Hf
Hf    0.6204527 0.1613066 0.6671016    Hf
Hf    0.6204527 0.3328996 0.1613066    Hf
Hf    0.6204527 0.3328996 0.8386946    Hf
Hf    0.6204527 0.6671016 0.1613066    Hf
Hf    0.6204527 0.6671016 0.8386946    Hf
Hf    0.6204527 0.8386946 0.3328996    Hf
Hf    0.6204527 0.8386946 0.6671016    Hf
O     0.6211011 0.1249511 0.4145311     O
O     0.6211011 0.1249511 0.5854711     O
O     0.6211011 0.4145311 0.1249511     O
O     0.6211011 0.4145311 0.8750511     O
O     0.6211011 0.5854711 0.1249511     O
O     0.6211011 0.5854711 0.8750511     O
O     0.6211011 0.8750511 0.4145311     O
O     0.6211011 0.8750511 0.5854711     O
C      0.62279  0.09078  0.30351     C
C      0.62279  0.09078  0.69651     C
C      0.62279  0.30351  0.09078     C
C      0.62279  0.30351  0.90938     C
C      0.62279  0.69651  0.09078     C
C      0.62279  0.69651  0.90938     C
C      0.62279  0.90938  0.30351     C
C      0.62279  0.90938  0.69651     C
O     0.6233114 0.1964013 0.4451711     O
O     0.6233114 0.1964013 0.5548311     O
O     0.6233114 0.4451711 0.1964013     O
O     0.6233114 0.4451711 0.8036013     O
O     0.6233114 0.5548311 0.1964013     O
O     0.6233114 0.5548311 0.8036013     O
O     0.6233114 0.8036013 0.4451711     O
O     0.6233114 0.8036013 0.5548311     O
O     0.6249511 0.0854711 0.1211011     O
O     0.6249511 0.0854711 0.8789011     O
O     0.6249511 0.1211011 0.0854711     O
O     0.6249511 0.1211011 0.9145311     O
O     0.6249511 0.8789011 0.0854711     O
O     0.6249511 0.8789011 0.9145311     O
O     0.6249511 0.9145311 0.1211011     O
O     0.6249511 0.9145311 0.8789011     O
O     0.627341 0.2215216 0.372661     O
O     0.627341 0.2215216 0.627341     O
O     0.627341 0.372661 0.2215216     O
O     0.627341 0.372661 0.7784816     O
O     0.627341 0.627341 0.2215216     O
O     0.627341 0.627341 0.7784816     O
O     0.627341 0.7784816 0.372661     O
O     0.627341 0.7784816 0.627341     O
O     0.6284014  0.13852 0.1822816     O
O     0.6284014  0.13852 0.8177216     O
O     0.6284014 0.1822816  0.13852     O
O     0.6284014 0.1822816  0.86152     O
O     0.6284014 0.8177216  0.13852     O
O     0.6284014 0.8177216  0.86152     O
O     0.6284014  0.86152 0.1822816     O
O     0.6284014  0.86152 0.8177216     O
O     0.6290714 0.0933916 0.1623312     O
O     0.6290714 0.0933916 0.8376712     O
O     0.6290714 0.1623312 0.0933916     O
O     0.6290714 0.1623312 0.9066116     O
O     0.6290714 0.8376712 0.0933916     O
O     0.6290714 0.8376712 0.9066116     O
O     0.6290714 0.9066116 0.1623312     O
O     0.6290714 0.9066116 0.8376712     O
S     0.630907 0.290786 0.290786     S
S     0.630907 0.290786 0.709226     S
S     0.630907 0.709226 0.290786     S
S     0.630907 0.709226 0.709226     S
O     0.6319611 0.1415117 0.3680411     O
O     0.6319611 0.1415117 0.6319611     O
O     0.6319611 0.3680411 0.1415117     O
O     0.6319611 0.3680411 0.8584917     O
O     0.6319611 0.6319611 0.1415117     O
O     0.6319611 0.6319611 0.8584917     O
O     0.6319611 0.8584917 0.3680411     O
O     0.6319611 0.8584917 0.6319611     O
C      0.63332  0.08152  0.44564     C
C      0.63332  0.08152  0.55444     C
C      0.63332  0.44564  0.08152     C
C      0.63332  0.44564  0.91852     C
C      0.63332  0.55444  0.08152     C
C      0.63332  0.55444  0.91852     C
C      0.63332  0.91852  0.44564     C
C      0.63332  0.91852  0.55444     C
C      0.63334  0.10634  0.32487     C
C      0.63334  0.10634  0.67527     C
C      0.63334  0.32487  0.10634     C
C      0.63334  0.32487  0.89374     C
C      0.63334  0.67527  0.10634     C
C      0.63334  0.67527  0.89374     C
C      0.63334  0.89374  0.32487     C
C      0.63334  0.89374  0.67527     C
O      0.63685  0.09465  0.34507     O
O      0.63685  0.09465  0.65507     O
O      0.63685  0.34507  0.09465     O
O      0.63685  0.34507  0.90545     O
O      0.63685  0.65507  0.09465     O
O      0.63685  0.65507  0.90545     O
O      0.63685  0.90545  0.34507     O
O      0.63685  0.90545  0.65507     O
O     0.6376111 0.2490811 0.3272311     O
O     0.6376111 0.2490811 0.6727711     O
O     0.6376111 0.3272311 0.2490811     O
O     0.6376111 0.3272311 0.7509211     O
O     0.6376111 0.6727711 0.2490811     O
O     0.6376111 0.6727711 0.7509211     O
O     0.6376111 0.7509211 0.3272311     O
O     0.6376111 0.7509211 0.6727711     O
Hf    0.6377496 0.2123526 0.4086816    Hf
Hf    0.6377496 0.2123526 0.5913196    Hf
Hf    0.6377496 0.4086816 0.2123526    Hf
Hf    0.6377496 0.4086816 0.7876486    Hf
Hf    0.6377496 0.5913196 0.2123526    Hf
Hf    0.6377496 0.5913196 0.7876486    Hf
Hf    0.6377496 0.7876486 0.4086816    Hf
Hf    0.6377496 0.7876486 0.5913196    Hf
H       0.6381   0.0508   0.4689     H
H       0.6381   0.0508   0.5311     H
H       0.6381   0.4689   0.0508     H
H       0.6381   0.4689   0.9492     H
H       0.6381   0.5311   0.0508     H
H       0.6381   0.5311   0.9492     H
H       0.6381   0.9492   0.4689     H
H       0.6381   0.9492   0.5311     H
O     0.638211 0.1746411 0.4015911     O
O     0.638211 0.1746411 0.5984111     O
O     0.638211 0.4015911 0.1746411     O
O     0.638211 0.4015911 0.8253611     O
O     0.638211 0.5984111 0.1746411     O
O     0.638211 0.5984111 0.8253611     O
O     0.638211 0.8253611 0.4015911     O
O     0.638211 0.8253611 0.5984111     O
O      0.63852 0.1284014 0.3177216     O
O      0.63852 0.1284014 0.6822816     O
O      0.63852 0.3177216 0.1284014     O
O      0.63852 0.3177216 0.8716014     O
O      0.63852 0.6822816 0.1284014     O
O      0.63852 0.6822816 0.8716014     O
O      0.63852 0.8716014 0.3177216     O
O      0.63852 0.8716014 0.6822816     O
H         0.64   0.0226   0.0855     H
H         0.64   0.0226   0.9145     H
H         0.64   0.0855   0.0226     H
H         0.64   0.0855   0.9774     H
H         0.64   0.9145   0.0226     H
H         0.64   0.9145   0.9774     H
H         0.64   0.9774   0.0855     H
H         0.64   0.9774   0.9145     H
O     0.6406816 0.1728514 0.2980912     O
O     0.6406816 0.1728514 0.7019112     O
O     0.6406816 0.2980912 0.1728514     O
O     0.6406816 0.2980912 0.8271514     O
O     0.6406816 0.7019112 0.1728514     O
O     0.6406816 0.7019112 0.8271514     O
O     0.6406816 0.8271514 0.2980912     O
O     0.6406816 0.8271514 0.7019112     O
O     0.6415117 0.1319611 0.1319611     O
O     0.6415117 0.1319611 0.8680411     O
O     0.6415117 0.8680411 0.1319611     O
O     0.6415117 0.8680411 0.8680411     O
C     0.6437018 0.1182917  0.41672     C
C     0.6437018 0.1182917  0.58332     C
C     0.6437018  0.41672 0.1182917     C
C     0.6437018  0.41672 0.8817117     C
C     0.6437018  0.58332 0.1182917     C
C     0.6437018  0.58332 0.8817117     C
C     0.6437018 0.8817117  0.41672     C
C     0.6437018 0.8817117  0.58332     C
C      0.64602  0.06214  0.45834     C
C      0.64602  0.06214  0.54174     C
C      0.64602  0.45834  0.06214     C
C      0.64602  0.45834  0.93794     C
C      0.64602  0.54174  0.06214     C
C      0.64602  0.54174  0.93794     C
C      0.64602  0.93794  0.45834     C
C      0.64602  0.93794  0.54174     C
C     0.6492018  0.09592  0.43182     C
C     0.6492018  0.09592  0.56822     C
C     0.6492018  0.43182  0.09592     C
C     0.6492018  0.43182  0.90412     C
C     0.6492018  0.56822  0.09592     C
C     0.6492018  0.56822  0.90412     C
C     0.6492018  0.90412  0.43182     C
C     0.6492018  0.90412  0.56822     C
C      0.65254  0.01302  0.09304     C
C      0.65254  0.01302  0.90704     C
C      0.65254  0.09304  0.01302     C
C      0.65254  0.09304  0.98702     C
C      0.65254  0.90704  0.01302     C
C      0.65254  0.90704  0.98702     C
C      0.65254  0.98702  0.09304     C
C      0.65254  0.98702  0.90704     C
O     0.6525712 0.1775916 0.3474312     O
O     0.6525712 0.1775916 0.6525712     O
O     0.6525712 0.3474312 0.1775916     O
O     0.6525712 0.3474312 0.8224116     O
O     0.6525712 0.6525712 0.1775916     O
O     0.6525712 0.6525712 0.8224116     O
O     0.6525712 0.8224116 0.3474312     O
O     0.6525712 0.8224116 0.6525712     O
Hf    0.6542625 0.2160298 0.3457385    Hf
Hf    0.6542625 0.2160298 0.6542625    Hf
Hf    0.6542625 0.3457385 0.2160298    Hf
Hf    0.6542625 0.3457385 0.7839718    Hf
Hf    0.6542625 0.6542625 0.2160298    Hf
Hf    0.6542625 0.6542625 0.7839718    Hf
Hf    0.6542625 0.7839718 0.3457385    Hf
Hf    0.6542625 0.7839718 0.6542625    Hf
O      0.65507  0.09465  0.36325     O
O      0.65507  0.09465  0.63685     O
O      0.65507  0.36325  0.09465     O
O      0.65507  0.36325  0.90545     O
O      0.65507  0.63685  0.09465     O
O      0.65507  0.63685  0.90545     O
O      0.65507  0.90545  0.36325     O
O      0.65507  0.90545  0.63685     O
C      0.65592  0.19022 0.2929118     C
C      0.65592  0.19022 0.7070918     C
C      0.65592 0.2929118  0.19022     C
C      0.65592 0.2929118  0.80982     C
C      0.65592 0.7070918  0.19022     C
C      0.65592 0.7070918  0.80982     C
C      0.65592  0.80982 0.2929118     C
C      0.65592  0.80982 0.7070918     C
Hf    0.6573758 0.1043555 0.1043555    Hf
Hf    0.6573758 0.1043555 0.8956455    Hf
Hf    0.6573758 0.8956455 0.1043555    Hf
Hf    0.6573758 0.8956455 0.8956455    Hf
O     0.6603413 0.2094012 0.3055511     O
O     0.6603413 0.2094012 0.6944511     O
O     0.6603413 0.3055511 0.2094012     O
O     0.6603413 0.3055511 0.7906012     O
O     0.6603413 0.6944511 0.2094012     O
O     0.6603413 0.6944511 0.7906012     O
O     0.6603413 0.7906012 0.3055511     O
O     0.6603413 0.7906012 0.6944511     O
O     0.6604314 0.2476313 0.4026813     O
O     0.6604314 0.2476313 0.5973213     O
O     0.6604314 0.4026813 0.2476313     O
O     0.6604314 0.4026813 0.7523713     O
O     0.6604314 0.5973213 0.2476313     O
O     0.6604314 0.5973213 0.7523713     O
O     0.6604314 0.7523713 0.4026813     O
O     0.6604314 0.7523713 0.5973213     O
Hf    0.6613066 0.1204527 0.1671016    Hf
Hf    0.6613066 0.1204527 0.8328996    Hf
Hf    0.6613066 0.1671016 0.1204527    Hf
Hf    0.6613066 0.1671016 0.8795487    Hf
Hf    0.6613066 0.8328996 0.1204527    Hf
Hf    0.6613066 0.8328996 0.8795487    Hf
Hf    0.6613066 0.8795487 0.1671016    Hf
Hf    0.6613066 0.8795487 0.8328996    Hf
O     0.6623312 0.1290714 0.4066116     O
O     0.6623312 0.1290714 0.5933916     O
O     0.6623312 0.4066116 0.1290714     O
O     0.6623312 0.4066116 0.8709314     O
O     0.6623312 0.5933916 0.1290714     O
O     0.6623312 0.5933916 0.8709314     O
O     0.6623312 0.8709314 0.4066116     O
O     0.6623312 0.8709314 0.5933916     O
S     0.662725 0.162725     0.25     S
S     0.662725 0.162725     0.75     S
S     0.662725     0.25 0.162725     S
S     0.662725     0.25 0.837285     S
S     0.662725     0.75 0.162725     S
S     0.662725     0.75 0.837285     S
S     0.662725 0.837285     0.25     S
S     0.662725 0.837285     0.75     S
O     0.6628311 0.064631 0.0993511     O
O     0.6628311 0.064631 0.9006511     O
O     0.6628311 0.0993511 0.064631     O
O     0.6628311 0.0993511 0.935371     O
O     0.6628311 0.9006511 0.064631     O
O     0.6628311 0.9006511 0.935371     O
O     0.6628311 0.935371 0.0993511     O
O     0.6628311 0.935371 0.9006511     O
O      0.66442 0.0920918 0.1954716     O
O      0.66442 0.0920918 0.8045316     O
O      0.66442 0.1954716 0.0920918     O
O      0.66442 0.1954716 0.9079118     O
O      0.66442 0.8045316 0.0920918     O
O      0.66442 0.8045316 0.9079118     O
O      0.66442 0.9079118 0.1954716     O
O      0.66442 0.9079118 0.8045316     O
Hf    0.6671016 0.1613066 0.3795487    Hf
Hf    0.6671016 0.1613066 0.6204527    Hf
Hf    0.6671016 0.3795487 0.1613066    Hf
Hf    0.6671016 0.3795487 0.8386946    Hf
Hf    0.6671016 0.6204527 0.1613066    Hf
Hf    0.6671016 0.6204527 0.8386946    Hf
Hf    0.6671016 0.8386946 0.3795487    Hf
Hf    0.6671016 0.8386946 0.6204527    Hf
O     0.6685217  0.21072 0.4351516     O
O     0.6685217  0.21072 0.5648516     O
O     0.6685217 0.4351516  0.21072     O
O     0.6685217 0.4351516  0.78932     O
O     0.6685217 0.5648516  0.21072     O
O     0.6685217 0.5648516  0.78932     O
O     0.6685217  0.78932 0.4351516     O
O     0.6685217  0.78932 0.5648516     O
O     0.6694112 0.2025712 0.3835212     O
O     0.6694112 0.2025712 0.6164812     O
O     0.6694112 0.3835212 0.2025712     O
O     0.6694112 0.3835212 0.7974312     O
O     0.6694112 0.6164812 0.2025712     O
O     0.6694112 0.6164812 0.7974312     O
O     0.6694112 0.7974312 0.3835212     O
O     0.6694112 0.7974312 0.6164812     O
C      0.67062  0.18742 0.2696517     C
C      0.67062  0.18742 0.7303517     C
C      0.67062 0.2696517  0.18742     C
C      0.67062 0.2696517  0.81262     C
C      0.67062 0.7303517  0.18742     C
C      0.67062 0.7303517  0.81262     C
C      0.67062  0.81262 0.2696517     C
C      0.67062  0.81262 0.7303517     C
C     0.6710418  0.06172  0.45332     C
C     0.6710418  0.06172  0.54672     C
C     0.6710418  0.45332  0.06172     C
C     0.6710418  0.45332  0.93832     C
C     0.6710418  0.54672  0.06172     C
C     0.6710418  0.54672  0.93832     C
C     0.6710418  0.93832  0.45332     C
C     0.6710418  0.93832  0.54672     C
C      0.67262 0.0229117  0.10512     C
C      0.67262 0.0229117  0.89492     C
C      0.67262  0.10512 0.0229117     C
C      0.67262  0.10512 0.9770917     C
C      0.67262  0.89492 0.0229117     C
C      0.67262  0.89492 0.9770917     C
C      0.67262 0.9770917  0.10512     C
C      0.67262 0.9770917  0.89492     C
C     0.6727317 0.2567317 0.3842517     C
C     0.6727317 0.2567317 0.6157517     C
C     0.6727317 0.3842517 0.2567317     C
C     0.6727317 0.3842517 0.7432717     C
C     0.6727317 0.6157517 0.2567317     C
C     0.6727317 0.6157517 0.7432717     C
C     0.6727317 0.7432717 0.3842517     C
C     0.6727317 0.7432717 0.6157517     C
O     0.6727711 0.2490811 0.3623911     O
O     0.6727711 0.2490811 0.6376111     O
O     0.6727711 0.3623911 0.2490811     O
O     0.6727711 0.3623911 0.7509211     O
O     0.6727711 0.6376111 0.2490811     O
O     0.6727711 0.6376111 0.7509211     O
O     0.6727711 0.7509211 0.3623911     O
O     0.6727711 0.7509211 0.6376111     O
O     0.6728514 0.1406816 0.2019112     O
O     0.6728514 0.1406816 0.7980912     O
O     0.6728514 0.2019112 0.1406816     O
O     0.6728514 0.2019112 0.8593216     O
O     0.6728514 0.7980912 0.1406816     O
O     0.6728514 0.7980912 0.8593216     O
O     0.6728514 0.8593216 0.2019112     O
O     0.6728514 0.8593216 0.7980912     O
O     0.6746411 0.0984111 0.138211     O
O     0.6746411 0.0984111 0.861791     O
O     0.6746411 0.138211 0.0984111     O
O     0.6746411 0.138211 0.9015911     O
O     0.6746411 0.861791 0.0984111     O
O     0.6746411 0.861791 0.9015911     O
O     0.6746411 0.9015911 0.138211     O
O     0.6746411 0.9015911 0.861791     O
C      0.67527  0.10634  0.36674     C
C      0.67527  0.10634  0.63334     C
C      0.67527  0.36674  0.10634     C
C      0.67527  0.36674  0.89374     C
C      0.67527  0.63334  0.10634     C
C      0.67527  0.63334  0.89374     C
C      0.67527  0.89374  0.36674     C
C      0.67527  0.89374  0.63334     C
O     0.6775916 0.1525712 0.1525712     O
O     0.6775916 0.1525712 0.8474312     O
O     0.6775916 0.8474312 0.1525712     O
O     0.6775916 0.8474312 0.8474312     O
C     0.6780917 0.0495716 0.1095018     C
C     0.6780917 0.0495716 0.8905018     C
C     0.6780917 0.1095018 0.0495716     C
C     0.6780917 0.1095018 0.9504316     C
C     0.6780917 0.8905018 0.0495716     C
C     0.6780917 0.8905018 0.9504316     C
C     0.6780917 0.9504316 0.1095018     C
C     0.6780917 0.9504316 0.8905018     C
S     0.679525 0.085875 0.434647     S
S     0.679525 0.085875 0.565367     S
S     0.679525 0.434647 0.085875     S
S     0.679525 0.434647 0.914135     S
S     0.679525 0.565367 0.085875     S
S     0.679525 0.565367 0.914135     S
S     0.679525 0.914135 0.434647     S
S     0.679525 0.914135 0.565367     S
O     0.6822816 0.1284014  0.36152     O
O     0.6822816 0.1284014  0.63852     O
O     0.6822816  0.36152 0.1284014     O
O     0.6822816  0.36152 0.8716014     O
O     0.6822816  0.63852 0.1284014     O
O     0.6822816  0.63852 0.8716014     O
O     0.6822816 0.8716014  0.36152     O
O     0.6822816 0.8716014  0.63852     O
H       0.6825   0.2854   0.4272     H
H       0.6825   0.2854   0.5728     H
H       0.6825   0.4272   0.2854     H
H       0.6825   0.4272   0.7146     H
H       0.6825   0.5728   0.2854     H
H       0.6825   0.5728   0.7146     H
H       0.6825   0.7146   0.4272     H
H       0.6825   0.7146   0.5728     H
O     0.6826411 0.025511 0.4756811     O
O     0.6826411 0.025511 0.5243211     O
O     0.6826411 0.4756811 0.025511     O
O     0.6826411 0.4756811 0.974491     O
O     0.6826411 0.5243211 0.025511     O
O     0.6826411 0.5243211 0.974491     O
O     0.6826411 0.974491 0.4756811     O
O     0.6826411 0.974491 0.5243211     O
C      0.68742  0.17062 0.2303517     C
C      0.68742  0.17062 0.7696517     C
C      0.68742 0.2303517  0.17062     C
C      0.68742 0.2303517  0.82942     C
C      0.68742 0.7696517  0.17062     C
C      0.68742 0.7696517  0.82942     C
C      0.68742  0.82942 0.2303517     C
C      0.68742  0.82942 0.7696517     C
C      0.68932  0.27832  0.39082     C
C      0.68932  0.27832  0.60922     C
C      0.68932  0.39082  0.27832     C
C      0.68932  0.39082  0.72172     C
C      0.68932  0.60922  0.27832     C
C      0.68932  0.60922  0.72172     C
C      0.68932  0.72172  0.39082     C
C      0.68932  0.72172  0.60922     C
C     0.6901017 0.0437016  0.46342     C
C     0.6901017 0.0437016  0.53662     C
C     0.6901017  0.46342 0.0437016     C
C     0.6901017  0.46342 0.9563016     C
C     0.6901017  0.53662 0.0437016     C
C     0.6901017  0.53662 0.9563016     C
C     0.6901017 0.9563016  0.46342     C
C     0.6901017 0.9563016  0.53662     C
C      0.69022  0.15592 0.2070918     C
C      0.69022  0.15592 0.7929118     C
C      0.69022 0.2070918  0.15592     C
C      0.69022 0.2070918  0.84412     C
C      0.69022 0.7929118  0.15592     C
C      0.69022 0.7929118  0.84412     C
C      0.69022  0.84412 0.2070918     C
C      0.69022  0.84412 0.7929118     C
C      0.69072  0.19992  0.26112     C
C      0.69072  0.19992  0.73892     C
C      0.69072  0.26112  0.19992     C
C      0.69072  0.26112  0.80012     C
C      0.69072  0.73892  0.19992     C
C      0.69072  0.73892  0.80012     C
C      0.69072  0.80012  0.26112     C
C      0.69072  0.80012  0.73892     C
S     0.691647      0.0 0.116778     S
S     0.691647      0.0 0.883238     S
S     0.691647 0.116778      0.0     S
S     0.691647 0.883238      0.0     S
C      0.69204  0.28954  0.41322     C
C      0.69204  0.28954  0.58682     C
C      0.69204  0.41322  0.28954     C
C      0.69204  0.41322  0.71054     C
C      0.69204  0.58682  0.28954     C
C      0.69204  0.58682  0.71054     C
C      0.69204  0.71054  0.41322     C
C      0.69204  0.71054  0.58682     C
S      0.69244  0.05822  0.38454     S
S      0.69244  0.05822  0.61554     S
S      0.69244  0.38454  0.05822     S
S      0.69244  0.38454  0.94182     S
S      0.69244  0.61554  0.05822     S
S      0.69244  0.61554  0.94182     S
S      0.69244  0.94182  0.38454     S
S      0.69244  0.94182  0.61554     S
O     0.6944511 0.2094012 0.3396613     O
O     0.6944511 0.2094012 0.6603413     O
O     0.6944511 0.3396613 0.2094012     O
O     0.6944511 0.3396613 0.7906012     O
O     0.6944511 0.6603413 0.2094012     O
O     0.6944511 0.6603413 0.7906012     O
O     0.6944511 0.7906012 0.3396613     O
O     0.6944511 0.7906012 0.6603413     O
O     0.6954716  0.16442 0.4079118     O
O     0.6954716  0.16442 0.5920918     O
O     0.6954716 0.4079118  0.16442     O
O     0.6954716 0.4079118  0.83562     O
O     0.6954716 0.5920918  0.16442     O
O     0.6954716 0.5920918  0.83562     O
O     0.6954716  0.83562 0.4079118     O
O     0.6954716  0.83562 0.5920918     O
O     0.6964013 0.0548311 0.1233114     O
O     0.6964013 0.0548311 0.8766914     O
O     0.6964013 0.1233114 0.0548311     O
O     0.6964013 0.1233114 0.9451711     O
O     0.6964013 0.8766914 0.0548311     O
O     0.6964013 0.8766914 0.9451711     O
O     0.6964013 0.9451711 0.1233114     O
O     0.6964013 0.9451711 0.8766914     O
C      0.69651  0.09078  0.37739     C
C      0.69651  0.09078  0.62279     C
C      0.69651  0.37739  0.09078     C
C      0.69651  0.37739  0.90938     C
C      0.69651  0.62279  0.09078     C
C      0.69651  0.62279  0.90938     C
C      0.69651  0.90938  0.37739     C
C      0.69651  0.90938  0.62279     C
H       0.6978   0.2135   0.2695     H
H       0.6978   0.2135   0.7305     H
H       0.6978   0.2695   0.2135     H
H       0.6978   0.2695   0.7865     H
H       0.6978   0.7305   0.2135     H
H       0.6978   0.7305   0.7865     H
H       0.6978   0.7865   0.2695     H
H       0.6978   0.7865   0.7305     H
C      0.69992  0.19072  0.23892     C
C      0.69992  0.19072  0.76112     C
C      0.69992  0.23892  0.19072     C
C      0.69992  0.23892  0.80932     C
C      0.69992  0.76112  0.19072     C
C      0.69992  0.76112  0.80932     C
C      0.69992  0.80932  0.23892     C
C      0.69992  0.80932  0.76112     C
O     0.7004917 0.0987512 0.0987512     O
O     0.7004917 0.0987512 0.9012512     O
O     0.7004917 0.9012512 0.0987512     O
O     0.7004917 0.9012512 0.9012512     O
O     0.7019112 0.1728514 0.3593216     O
O     0.7019112 0.1728514 0.6406816     O
O     0.7019112 0.3593216 0.1728514     O
O     0.7019112 0.3593216 0.8271514     O
O     0.7019112 0.6406816 0.1728514     O
O     0.7019112 0.6406816 0.8271514     O
O     0.7019112 0.8271514 0.3593216     O
O     0.7019112 0.8271514 0.6406816     O
O     0.7025712 0.1164812 0.1694112     O
O     0.7025712 0.1164812 0.8305912     O
O     0.7025712 0.1694112 0.1164812     O
O     0.7025712 0.1694112 0.8835212     O
O     0.7025712 0.8305912 0.1164812     O
O     0.7025712 0.8305912 0.8835212     O
O     0.7025712 0.8835212 0.1694112     O
O     0.7025712 0.8835212 0.8305912     O
Hf    0.70407211      0.0      0.5    Hf
Hf    0.70407211      0.5      0.0    Hf
C     0.7070918  0.19022  0.34412     C
C     0.7070918  0.19022  0.65592     C
C     0.7070918  0.34412  0.19022     C
C     0.7070918  0.34412  0.80982     C
C     0.7070918  0.65592  0.19022     C
C     0.7070918  0.65592  0.80982     C
C     0.7070918  0.80982  0.34412     C
C     0.7070918  0.80982  0.65592     C
S     0.709226 0.290786 0.369107     S
S     0.709226 0.290786 0.630907     S
S     0.709226 0.369107 0.290786     S
S     0.709226 0.369107 0.709226     S
S     0.709226 0.630907 0.290786     S
S     0.709226 0.630907 0.709226     S
S     0.709226 0.709226 0.369107     S
S     0.709226 0.709226 0.630907     S
O     0.7094012 0.1603413 0.1944511     O
O     0.7094012 0.1603413 0.8055511     O
O     0.7094012 0.1944511 0.1603413     O
O     0.7094012 0.1944511 0.8396613     O
O     0.7094012 0.8055511 0.1603413     O
O     0.7094012 0.8055511 0.8396613     O
O     0.7094012 0.8396613 0.1944511     O
O     0.7094012 0.8396613 0.8055511     O
O      0.70959  0.01367  0.41407     O
O      0.70959  0.01367  0.58607     O
O      0.70959  0.41407  0.01367     O
O      0.70959  0.41407  0.98647     O
O      0.70959  0.58607  0.01367     O
O      0.70959  0.58607  0.98647     O
O      0.70959  0.98647  0.41407     O
O      0.70959  0.98647  0.58607     O
C      0.71054  0.30804  0.41322     C
C      0.71054  0.30804  0.58682     C
C      0.71054  0.41322  0.30804     C
C      0.71054  0.41322  0.69204     C
C      0.71054  0.58682  0.30804     C
C      0.71054  0.58682  0.69204     C
C      0.71054  0.69204  0.41322     C
C      0.71054  0.69204  0.58682     C
O      0.71072 0.0648516 0.1685217     O
O      0.71072 0.0648516 0.8314817     O
O      0.71072 0.1685217 0.0648516     O
O      0.71072 0.1685217 0.9351516     O
O      0.71072 0.8314817 0.0648516     O
O      0.71072 0.8314817 0.9351516     O
O      0.71072 0.9351516 0.1685217     O
O      0.71072 0.9351516 0.8314817     O
O     0.7123312 0.0492814 0.4575615     O
O     0.7123312 0.0492814 0.5424415     O
O     0.7123312 0.4575615 0.0492814     O
O     0.7123312 0.4575615 0.9507214     O
O     0.7123312 0.5424415 0.0492814     O
O     0.7123312 0.5424415 0.9507214     O
O     0.7123312 0.9507214 0.4575615     O
O     0.7123312 0.9507214 0.5424415     O
Hf    0.7123526 0.0913196 0.1377496    Hf
Hf    0.7123526 0.0913196 0.8622516    Hf
Hf    0.7123526 0.1377496 0.0913196    Hf
Hf    0.7123526 0.1377496 0.9086816    Hf
Hf    0.7123526 0.8622516 0.0913196    Hf
Hf    0.7123526 0.8622516 0.9086816    Hf
Hf    0.7123526 0.9086816 0.1377496    Hf
Hf    0.7123526 0.9086816 0.8622516    Hf
H       0.7135   0.1978   0.2305     H
H       0.7135   0.1978   0.7695     H
H       0.7135   0.2305   0.1978     H
H       0.7135   0.2305   0.8022     H
H       0.7135   0.7695   0.1978     H
H       0.7135   0.7695   0.8022     H
H       0.7135   0.8022   0.2305     H
H       0.7135   0.8022   0.7695     H
H       0.7146   0.3175   0.4272     H
H       0.7146   0.3175   0.5728     H
H       0.7146   0.4272   0.3175     H
H       0.7146   0.4272   0.6825     H
H       0.7146   0.5728   0.3175     H
H       0.7146   0.5728   0.6825     H
H       0.7146   0.6825   0.4272     H
H       0.7146   0.6825   0.5728     H
Hf    0.7160298 0.1542625 0.1542625    Hf
Hf    0.7160298 0.1542625 0.8457385    Hf
Hf    0.7160298 0.8457385 0.1542625    Hf
Hf    0.7160298 0.8457385 0.8457385    Hf
C      0.72128  0.05608  0.40037     C
C      0.72128  0.05608  0.59977     C
C      0.72128  0.40037  0.05608     C
C      0.72128  0.40037  0.94408     C
C      0.72128  0.59977  0.05608     C
C      0.72128  0.59977  0.94408     C
C      0.72128  0.94408  0.40037     C
C      0.72128  0.94408  0.59977     C
C      0.72141 0.096411  0.38708     C
C      0.72141 0.096411  0.61308     C
C      0.72141  0.38708 0.096411     C
C      0.72141  0.38708 0.903611     C
C      0.72141  0.61308 0.096411     C
C      0.72141  0.61308 0.903611     C
C      0.72141 0.903611  0.38708     C
C      0.72141 0.903611  0.61308     C
O     0.7215216 0.127341 0.127341     O
O     0.7215216 0.127341 0.872661     O
O     0.7215216 0.872661 0.127341     O
O     0.7215216 0.872661 0.872661     O
C      0.72172  0.31072  0.39082     C
C      0.72172  0.31072  0.60922     C
C      0.72172  0.39082  0.31072     C
C      0.72172  0.39082  0.68932     C
C      0.72172  0.60922  0.31072     C
C      0.72172  0.60922  0.68932     C
C      0.72172  0.68932  0.39082     C
C      0.72172  0.68932  0.60922     C
O     0.7246816      0.0 0.4622314     O
O     0.7246816      0.0 0.5377714     O
O     0.7246816 0.4622314      0.0     O
O     0.7246816 0.5377714      0.0     O
C      0.72708  0.03178  0.41377     C
C      0.72708  0.03178  0.58637     C
C      0.72708  0.41377  0.03178     C
C      0.72708  0.41377  0.96838     C
C      0.72708  0.58637  0.03178     C
C      0.72708  0.58637  0.96838     C
C      0.72708  0.96838  0.41377     C
C      0.72708  0.96838  0.58637     C
H        0.728   0.1124   0.3852     H
H        0.728   0.1124   0.6148     H
H        0.728   0.3852   0.1124     H
H        0.728   0.3852   0.8876     H
H        0.728   0.6148   0.1124     H
H        0.728   0.6148   0.8876     H
H        0.728   0.8876   0.3852     H
H        0.728   0.8876   0.6148     H
O     0.7302913 0.0280613      0.5     O
O     0.7302913      0.5 0.0280613     O
O     0.7302913      0.5 0.9719413     O
O     0.7302913 0.9719413      0.5     O
C     0.7303517  0.18742  0.32942     C
C     0.7303517  0.18742  0.67062     C
C     0.7303517  0.32942  0.18742     C
C     0.7303517  0.32942  0.81262     C
C     0.7303517  0.67062  0.18742     C
C     0.7303517  0.67062  0.81262     C
C     0.7303517  0.81262  0.32942     C
C     0.7303517  0.81262  0.67062     C
H       0.7305   0.2135   0.3022     H
H       0.7305   0.2135   0.6978     H
H       0.7305   0.3022   0.2135     H
H       0.7305   0.3022   0.7865     H
H       0.7305   0.6978   0.2135     H
H       0.7305   0.6978   0.7865     H
H       0.7305   0.7865   0.3022     H
H       0.7305   0.7865   0.6978     H
C     0.734211 0.079311  0.39818     C
C     0.734211 0.079311  0.60198     C
C     0.734211  0.39818 0.079311     C
C     0.734211  0.39818 0.920711     C
C     0.734211  0.60198 0.079311     C
C     0.734211  0.60198 0.920711     C
C     0.734211 0.920711  0.39818     C
C     0.734211 0.920711  0.60198     C
C      0.73892  0.19992  0.30932     C
C      0.73892  0.19992  0.69072     C
C      0.73892  0.30932  0.19992     C
C      0.73892  0.30932  0.80012     C
C      0.73892  0.69072  0.19992     C
C      0.73892  0.69072  0.80012     C
C      0.73892  0.80012  0.30932     C
C      0.73892  0.80012  0.69072     C
O     0.7425214 0.0732916 0.1180716     O
O     0.7425214 0.0732916 0.8819316     O
O     0.7425214 0.1180716 0.0732916     O
O     0.7425214 0.1180716 0.9267116     O
O     0.7425214 0.8819316 0.0732916     O
O     0.7425214 0.8819316 0.9267116     O
O     0.7425214 0.9267116 0.1180716     O
O     0.7425214 0.9267116 0.8819316     O
C     0.7432717 0.3272717 0.3842517     C
C     0.7432717 0.3272717 0.6157517     C
C     0.7432717 0.3842517 0.3272717     C
C     0.7432717 0.3842517 0.6727317     C
C     0.7432717 0.6157517 0.3272717     C
C     0.7432717 0.6157517 0.6727317     C
C     0.7432717 0.6727317 0.3842517     C
C     0.7432717 0.6727317 0.6157517     C
O     0.7469215  0.03122 0.4268815     O
O     0.7469215  0.03122 0.5731215     O
O     0.7469215 0.4268815  0.03122     O
O     0.7469215 0.4268815  0.96882     O
O     0.7469215 0.5731215  0.03122     O
O     0.7469215 0.5731215  0.96882     O
O     0.7469215  0.96882 0.4268815     O
O     0.7469215  0.96882 0.5731215     O
O     0.7476313 0.0973213 0.1604314     O
O     0.7476313 0.0973213 0.8395714     O
O     0.7476313 0.1604314 0.0973213     O
O     0.7476313 0.1604314 0.9026813     O
O     0.7476313 0.8395714 0.0973213     O
O     0.7476313 0.8395714 0.9026813     O
O     0.7476313 0.9026813 0.1604314     O
O     0.7476313 0.9026813 0.8395714     O
O     0.7490811 0.1376111 0.1727711     O
O     0.7490811 0.1376111 0.8272311     O
O     0.7490811 0.1727711 0.1376111     O
O     0.7490811 0.1727711 0.8623911     O
O     0.7490811 0.8272311 0.1376111     O
O     0.7490811 0.8272311 0.8623911     O
O     0.7490811 0.8623911 0.1727711     O
O     0.7490811 0.8623911 0.8272311     O
H       0.7497    0.096   0.4182     H
H       0.7497    0.096   0.5818     H
H       0.7497   0.4182    0.096     H
H       0.7497   0.4182    0.904     H
H       0.7497   0.5818    0.096     H
H       0.7497   0.5818    0.904     H
H       0.7497    0.904   0.4182     H
H       0.7497    0.904   0.5818     H
Hf        0.75 0.0329206 0.4670806    Hf
Hf        0.75 0.0329206 0.5329206    Hf
S         0.75 0.162725 0.337285     S
S         0.75 0.162725 0.662725     S
S         0.75 0.337285 0.162725     S
S         0.75 0.337285 0.837285     S
Hf        0.75 0.4670806 0.0329206    Hf
Hf        0.75 0.4670806 0.9670806    Hf
Hf        0.75 0.5329206 0.0329206    Hf
Hf        0.75 0.5329206 0.9670806    Hf
S         0.75 0.662725 0.162725     S
S         0.75 0.662725 0.837285     S
S         0.75 0.837285 0.337285     S
S         0.75 0.837285 0.662725     S
Hf        0.75 0.9670806 0.4670806    Hf
Hf        0.75 0.9670806 0.5329206    Hf
H       0.7503   0.0818    0.404     H
H       0.7503   0.0818    0.596     H
H       0.7503    0.404   0.0818     H
H       0.7503    0.404   0.9182     H
H       0.7503    0.596   0.0818     H
H       0.7503    0.596   0.9182     H
H       0.7503   0.9182    0.404     H
H       0.7503   0.9182    0.596     H
O     0.7509211 0.3272311 0.3623911     O
O     0.7509211 0.3272311 0.6376111     O
O     0.7509211 0.3623911 0.3272311     O
O     0.7509211 0.3623911 0.6727711     O
O     0.7509211 0.6376111 0.3272311     O
O     0.7509211 0.6376111 0.6727711     O
O     0.7509211 0.6727711 0.3623911     O
O     0.7509211 0.6727711 0.6376111     O
O     0.7523713 0.3395714 0.4026813     O
O     0.7523713 0.3395714 0.5973213     O
O     0.7523713 0.4026813 0.3395714     O
O     0.7523713 0.4026813 0.6604314     O
O     0.7523713 0.5973213 0.3395714     O
O     0.7523713 0.5973213 0.6604314     O
O     0.7523713 0.6604314 0.4026813     O
O     0.7523713 0.6604314 0.5973213     O
O     0.7530815 0.0731215  0.46882     O
O     0.7530815 0.0731215  0.53122     O
O     0.7530815  0.46882 0.0731215     O
O     0.7530815  0.46882 0.9268815     O
O     0.7530815  0.53122 0.0731215     O
O     0.7530815  0.53122 0.9268815     O
O     0.7530815 0.9268815  0.46882     O
O     0.7530815 0.9268815  0.53122     O
C     0.7567317 0.1157517 0.1727317     C
C     0.7567317 0.1157517 0.8272717     C
C     0.7567317 0.1727317 0.1157517     C
C     0.7567317 0.1727317 0.8842517     C
C     0.7567317 0.8272717 0.1157517     C
C     0.7567317 0.8272717 0.8842517     C
C     0.7567317 0.8842517 0.1727317     C
C     0.7567317 0.8842517 0.8272717     C
O     0.7574814 0.3819316 0.4267116     O
O     0.7574814 0.3819316 0.5732916     O
O     0.7574814 0.4267116 0.3819316     O
O     0.7574814 0.4267116 0.6180716     O
O     0.7574814 0.5732916 0.3819316     O
O     0.7574814 0.5732916 0.6180716     O
O     0.7574814 0.6180716 0.4267116     O
O     0.7574814 0.6180716 0.5732916     O
C      0.76112  0.19072  0.30012     C
C      0.76112  0.19072  0.69992     C
C      0.76112  0.30012  0.19072     C
C      0.76112  0.30012  0.80932     C
C      0.76112  0.69992  0.19072     C
C      0.76112  0.69992  0.80932     C
C      0.76112  0.80932  0.30012     C
C      0.76112  0.80932  0.69992     C
C     0.765811  0.10198 0.420711     C
C     0.765811  0.10198 0.579311     C
C     0.765811 0.420711  0.10198     C
C     0.765811 0.420711  0.89818     C
C     0.765811 0.579311  0.10198     C
C     0.765811 0.579311  0.89818     C
C     0.765811  0.89818 0.420711     C
C     0.765811  0.89818 0.579311     C
H       0.7695   0.1978   0.2865     H
H       0.7695   0.1978   0.7135     H
H       0.7695   0.2865   0.1978     H
H       0.7695   0.2865   0.8022     H
H       0.7695   0.7135   0.1978     H
H       0.7695   0.7135   0.8022     H
H       0.7695   0.8022   0.2865     H
H       0.7695   0.8022   0.7135     H
C     0.7696517  0.17062  0.31262     C
C     0.7696517  0.17062  0.68742     C
C     0.7696517  0.31262  0.17062     C
C     0.7696517  0.31262  0.82942     C
C     0.7696517  0.68742  0.17062     C
C     0.7696517  0.68742  0.82942     C
C     0.7696517  0.82942  0.31262     C
C     0.7696517  0.82942  0.68742     C
O     0.7697113      0.0 0.4719413     O
O     0.7697113      0.0 0.5280613     O
O     0.7697113 0.4719413      0.0     O
O     0.7697113 0.5280613      0.0     O
H        0.772   0.1148   0.3876     H
H        0.772   0.1148   0.6124     H
H        0.772   0.3876   0.1148     H
H        0.772   0.3876   0.8852     H
H        0.772   0.6124   0.1148     H
H        0.772   0.6124   0.8852     H
H        0.772   0.8852   0.3876     H
H        0.772   0.8852   0.6124     H
C      0.77308  0.08637  0.46838     C
C      0.77308  0.08637  0.53178     C
C      0.77308  0.46838  0.08637     C
C      0.77308  0.46838  0.91377     C
C      0.77308  0.53178  0.08637     C
C      0.77308  0.53178  0.91377     C
C      0.77308  0.91377  0.46838     C
C      0.77308  0.91377  0.53178     C
O     0.7753216 0.0377714      0.5     O
O     0.7753216      0.5 0.0377714     O
O     0.7753216      0.5 0.9622314     O
O     0.7753216 0.9622314      0.5     O
C      0.77832  0.10922  0.18932     C
C      0.77832  0.10922  0.81072     C
C      0.77832  0.18932  0.10922     C
C      0.77832  0.18932  0.89082     C
C      0.77832  0.81072  0.10922     C
C      0.77832  0.81072  0.89082     C
C      0.77832  0.89082  0.18932     C
C      0.77832  0.89082  0.81072     C
O     0.7784816 0.372661 0.372661     O
O     0.7784816 0.372661 0.627341     O
O     0.7784816 0.627341 0.372661     O
O     0.7784816 0.627341 0.627341     O
C      0.77861  0.11308 0.403611     C
C      0.77861  0.11308 0.596411     C
C      0.77861 0.403611  0.11308     C
C      0.77861 0.403611  0.88708     C
C      0.77861 0.596411  0.11308     C
C      0.77861 0.596411  0.88708     C
C      0.77861  0.88708 0.403611     C
C      0.77861  0.88708 0.596411     C
C      0.77888  0.09977  0.44408     C
C      0.77888  0.09977  0.55608     C
C      0.77888  0.44408  0.09977     C
C      0.77888  0.44408  0.90037     C
C      0.77888  0.55608  0.09977     C
C      0.77888  0.55608  0.90037     C
C      0.77888  0.90037  0.44408     C
C      0.77888  0.90037  0.55608     C
Hf    0.7839718 0.3457385 0.3457385    Hf
Hf    0.7839718 0.3457385 0.6542625    Hf
Hf    0.7839718 0.6542625 0.3457385    Hf
Hf    0.7839718 0.6542625 0.6542625    Hf
H       0.7854   0.0728   0.1825     H
H       0.7854   0.0728   0.8175     H
H       0.7854   0.1825   0.0728     H
H       0.7854   0.1825   0.9272     H
H       0.7854   0.8175   0.0728     H
H       0.7854   0.8175   0.9272     H
H       0.7854   0.9272   0.1825     H
H       0.7854   0.9272   0.8175     H
H       0.7865   0.2695   0.3022     H
H       0.7865   0.2695   0.6978     H
H       0.7865   0.3022   0.2695     H
H       0.7865   0.3022   0.7305     H
H       0.7865   0.6978   0.2695     H
H       0.7865   0.6978   0.7305     H
H       0.7865   0.7305   0.3022     H
H       0.7865   0.7305   0.6978     H
Hf    0.7876486 0.3622516 0.4086816    Hf
Hf    0.7876486 0.3622516 0.5913196    Hf
Hf    0.7876486 0.4086816 0.3622516    Hf
Hf    0.7876486 0.4086816 0.6377496    Hf
Hf    0.7876486 0.5913196 0.3622516    Hf
Hf    0.7876486 0.5913196 0.6377496    Hf
Hf    0.7876486 0.6377496 0.4086816    Hf
Hf    0.7876486 0.6377496 0.5913196    Hf
O     0.7876712 0.0424415 0.4507214     O
O     0.7876712 0.0424415 0.5492814     O
O     0.7876712 0.4507214 0.0424415     O
O     0.7876712 0.4507214 0.9575615     O
O     0.7876712 0.5492814 0.0424415     O
O     0.7876712 0.5492814 0.9575615     O
O     0.7876712 0.9575615 0.4507214     O
O     0.7876712 0.9575615 0.5492814     O
O      0.78932 0.3314817 0.4351516     O
O      0.78932 0.3314817 0.5648516     O
O      0.78932 0.4351516 0.3314817     O
O      0.78932 0.4351516 0.6685217     O
O      0.78932 0.5648516 0.3314817     O
O      0.78932 0.5648516 0.6685217     O
O      0.78932 0.6685217 0.4351516     O
O      0.78932 0.6685217 0.5648516     O
C      0.78954  0.08682  0.19204     C
C      0.78954  0.08682  0.80804     C
C      0.78954  0.19204  0.08682     C
C      0.78954  0.19204  0.91322     C
C      0.78954  0.80804  0.08682     C
C      0.78954  0.80804  0.91322     C
C      0.78954  0.91322  0.19204     C
C      0.78954  0.91322  0.80804     C
O      0.79059  0.08607  0.48647     O
O      0.79059  0.08607  0.51367     O
O      0.79059  0.48647  0.08607     O
O      0.79059  0.48647  0.91407     O
O      0.79059  0.51367  0.08607     O
O      0.79059  0.51367  0.91407     O
O      0.79059  0.91407  0.48647     O
O      0.79059  0.91407  0.51367     O
O     0.7906012 0.3055511 0.3396613     O
O     0.7906012 0.3055511 0.6603413     O
O     0.7906012 0.3396613 0.3055511     O
O     0.7906012 0.3396613 0.6944511     O
O     0.7906012 0.6603413 0.3055511     O
O     0.7906012 0.6603413 0.6944511     O
O     0.7906012 0.6944511 0.3396613     O
O     0.7906012 0.6944511 0.6603413     O
S     0.790786 0.130907 0.209226     S
S     0.790786 0.130907 0.790786     S
S     0.790786 0.209226 0.130907     S
S     0.790786 0.209226 0.869107     S
S     0.790786 0.790786 0.130907     S
S     0.790786 0.790786 0.869107     S
S     0.790786 0.869107 0.209226     S
S     0.790786 0.869107 0.790786     S
C     0.7929118  0.15592  0.30982     C
C     0.7929118  0.15592  0.69022     C
C     0.7929118  0.30982  0.15592     C
C     0.7929118  0.30982  0.84412     C
C     0.7929118  0.69022  0.15592     C
C     0.7929118  0.69022  0.84412     C
C     0.7929118  0.84412  0.30982     C
C     0.7929118  0.84412  0.69022     C
Hf    0.79592811      0.0      0.5    Hf
Hf    0.79592811      0.5      0.0    Hf
O     0.7974312 0.3305912 0.3835212     O
O     0.7974312 0.3305912 0.6164812     O
O     0.7974312 0.3835212 0.3305912     O
O     0.7974312 0.3835212 0.6694112     O
O     0.7974312 0.6164812 0.3305912     O
O     0.7974312 0.6164812 0.6694112     O
O     0.7974312 0.6694112 0.3835212     O
O     0.7974312 0.6694112 0.6164812     O
O     0.7980912 0.1406816 0.3271514     O
O     0.7980912 0.1406816 0.6728514     O
O     0.7980912 0.3271514 0.1406816     O
O     0.7980912 0.3271514 0.8593216     O
O     0.7980912 0.6728514 0.1406816     O
O     0.7980912 0.6728514 0.8593216     O
O     0.7980912 0.8593216 0.3271514     O
O     0.7980912 0.8593216 0.6728514     O
O     0.7995117 0.4012512 0.4012512     O
O     0.7995117 0.4012512 0.5987512     O
O     0.7995117 0.5987512 0.4012512     O
O     0.7995117 0.5987512 0.5987512     O
C      0.80012  0.26112  0.30932     C
C      0.80012  0.26112  0.69072     C
C      0.80012  0.30932  0.26112     C
C      0.80012  0.30932  0.73892     C
C      0.80012  0.69072  0.26112     C
C      0.80012  0.69072  0.73892     C
C      0.80012  0.73892  0.30932     C
C      0.80012  0.73892  0.69072     C
H       0.8022   0.2305   0.2865     H
H       0.8022   0.2305   0.7135     H
H       0.8022   0.2865   0.2305     H
H       0.8022   0.2865   0.7695     H
H       0.8022   0.7135   0.2305     H
H       0.8022   0.7135   0.7695     H
H       0.8022   0.7695   0.2865     H
H       0.8022   0.7695   0.7135     H
C      0.80351  0.12279  0.40938     C
C      0.80351  0.12279  0.59078     C
C      0.80351  0.40938  0.12279     C
C      0.80351  0.40938  0.87739     C
C      0.80351  0.59078  0.12279     C
C      0.80351  0.59078  0.87739     C
C      0.80351  0.87739  0.40938     C
C      0.80351  0.87739  0.59078     C
O     0.8036013 0.3766914 0.4451711     O
O     0.8036013 0.3766914 0.5548311     O
O     0.8036013 0.4451711 0.3766914     O
O     0.8036013 0.4451711 0.6233114     O
O     0.8036013 0.5548311 0.3766914     O
O     0.8036013 0.5548311 0.6233114     O
O     0.8036013 0.6233114 0.4451711     O
O     0.8036013 0.6233114 0.5548311     O
O     0.8045316 0.0920918  0.33562     O
O     0.8045316 0.0920918  0.66442     O
O     0.8045316  0.33562 0.0920918     O
O     0.8045316  0.33562 0.9079118     O
O     0.8045316  0.66442 0.0920918     O
O     0.8045316  0.66442 0.9079118     O
O     0.8045316 0.9079118  0.33562     O
O     0.8045316 0.9079118  0.66442     O
O     0.8055511 0.1603413 0.2906012     O
O     0.8055511 0.1603413 0.7094012     O
O     0.8055511 0.2906012 0.1603413     O
O     0.8055511 0.2906012 0.8396613     O
O     0.8055511 0.7094012 0.1603413     O
O     0.8055511 0.7094012 0.8396613     O
O     0.8055511 0.8396613 0.2906012     O
O     0.8055511 0.8396613 0.7094012     O
S      0.80764  0.11554  0.44182     S
S      0.80764  0.11554  0.55822     S
S      0.80764  0.44182  0.11554     S
S      0.80764  0.44182  0.88454     S
S      0.80764  0.55822  0.11554     S
S      0.80764  0.55822  0.88454     S
S      0.80764  0.88454  0.44182     S
S      0.80764  0.88454  0.55822     S
C      0.80804  0.08682  0.21054     C
C      0.80804  0.08682  0.78954     C
C      0.80804  0.21054  0.08682     C
C      0.80804  0.21054  0.91322     C
C      0.80804  0.78954  0.08682     C
C      0.80804  0.78954  0.91322     C
C      0.80804  0.91322  0.21054     C
C      0.80804  0.91322  0.78954     C
S     0.808367 0.383238      0.5     S
S     0.808367      0.5 0.383238     S
S     0.808367      0.5 0.616778     S
S     0.808367 0.616778      0.5     S
C      0.80932  0.23892  0.30012     C
C      0.80932  0.23892  0.69992     C
C      0.80932  0.30012  0.23892     C
C      0.80932  0.30012  0.76112     C
C      0.80932  0.69992  0.23892     C
C      0.80932  0.69992  0.76112     C
C      0.80932  0.76112  0.30012     C
C      0.80932  0.76112  0.69992     C
C      0.80982 0.2929118  0.34412     C
C      0.80982 0.2929118  0.65592     C
C      0.80982  0.34412 0.2929118     C
C      0.80982  0.34412 0.7070918     C
C      0.80982  0.65592 0.2929118     C
C      0.80982  0.65592 0.7070918     C
C      0.80982 0.7070918  0.34412     C
C      0.80982 0.7070918  0.65592     C
C     0.8099017  0.03662 0.4563016     C
C     0.8099017  0.03662 0.5437016     C
C     0.8099017 0.4563016  0.03662     C
C     0.8099017 0.4563016  0.96342     C
C     0.8099017 0.5437016  0.03662     C
C     0.8099017 0.5437016  0.96342     C
C     0.8099017  0.96342 0.4563016     C
C     0.8099017  0.96342 0.5437016     C
C      0.81072  0.10922  0.22172     C
C      0.81072  0.10922  0.77832     C
C      0.81072  0.22172  0.10922     C
C      0.81072  0.22172  0.89082     C
C      0.81072  0.77832  0.10922     C
C      0.81072  0.77832  0.89082     C
C      0.81072  0.89082  0.22172     C
C      0.81072  0.89082  0.77832     C
C      0.81262 0.2696517  0.32942     C
C      0.81262 0.2696517  0.67062     C
C      0.81262  0.32942 0.2696517     C
C      0.81262  0.32942 0.7303517     C
C      0.81262  0.67062 0.2696517     C
C      0.81262  0.67062 0.7303517     C
C      0.81262 0.7303517  0.32942     C
C      0.81262 0.7303517  0.67062     C
O     0.8173611 0.0243211 0.474491     O
O     0.8173611 0.0243211 0.525511     O
O     0.8173611 0.474491 0.0243211     O
O     0.8173611 0.474491 0.9756811     O
O     0.8173611 0.525511 0.0243211     O
O     0.8173611 0.525511 0.9756811     O
O     0.8173611 0.9756811 0.474491     O
O     0.8173611 0.9756811 0.525511     O
H       0.8175   0.0728   0.2146     H
H       0.8175   0.0728   0.7854     H
H       0.8175   0.2146   0.0728     H
H       0.8175   0.2146   0.9272     H
H       0.8175   0.7854   0.0728     H
H       0.8175   0.7854   0.9272     H
H       0.8175   0.9272   0.2146     H
H       0.8175   0.9272   0.7854     H
O     0.8177216  0.13852 0.3716014     O
O     0.8177216  0.13852 0.6284014     O
O     0.8177216 0.3716014  0.13852     O
O     0.8177216 0.3716014  0.86152     O
O     0.8177216 0.6284014  0.13852     O
O     0.8177216 0.6284014  0.86152     O
O     0.8177216  0.86152 0.3716014     O
O     0.8177216  0.86152 0.6284014     O
S     0.820485 0.065367 0.414135     S
S     0.820485 0.065367 0.585875     S
S     0.820485 0.414135 0.065367     S
S     0.820485 0.414135 0.934647     S
S     0.820485 0.585875 0.065367     S
S     0.820485 0.585875 0.934647     S
S     0.820485 0.934647 0.414135     S
S     0.820485 0.934647 0.585875     S
C     0.8219117 0.3905018 0.4504316     C
C     0.8219117 0.3905018 0.5495716     C
C     0.8219117 0.4504316 0.3905018     C
C     0.8219117 0.4504316 0.6095018     C
C     0.8219117 0.5495716 0.3905018     C
C     0.8219117 0.5495716 0.6095018     C
C     0.8219117 0.6095018 0.4504316     C
C     0.8219117 0.6095018 0.5495716     C
O     0.8224116 0.3474312 0.3474312     O
O     0.8224116 0.3474312 0.6525712     O
O     0.8224116 0.6525712 0.3474312     O
O     0.8224116 0.6525712 0.6525712     O
C      0.82487  0.13334  0.39374     C
C      0.82487  0.13334  0.60634     C
C      0.82487  0.39374  0.13334     C
C      0.82487  0.39374  0.86674     C
C      0.82487  0.60634  0.13334     C
C      0.82487  0.60634  0.86674     C
C      0.82487  0.86674  0.39374     C
C      0.82487  0.86674  0.60634     C
O     0.8253611 0.361791 0.4015911     O
O     0.8253611 0.361791 0.5984111     O
O     0.8253611 0.4015911 0.361791     O
O     0.8253611 0.4015911 0.638211     O
O     0.8253611 0.5984111 0.361791     O
O     0.8253611 0.5984111 0.638211     O
O     0.8253611 0.638211 0.4015911     O
O     0.8253611 0.638211 0.5984111     O
O     0.8271514 0.2980912 0.3593216     O
O     0.8271514 0.2980912 0.6406816     O
O     0.8271514 0.3593216 0.2980912     O
O     0.8271514 0.3593216 0.7019112     O
O     0.8271514 0.6406816 0.2980912     O
O     0.8271514 0.6406816 0.7019112     O
O     0.8271514 0.7019112 0.3593216     O
O     0.8271514 0.7019112 0.6406816     O
O     0.8272311 0.1376111 0.2509211     O
O     0.8272311 0.1376111 0.7490811     O
O     0.8272311 0.2509211 0.1376111     O
O     0.8272311 0.2509211 0.8623911     O
O     0.8272311 0.7490811 0.1376111     O
O     0.8272311 0.7490811 0.8623911     O
O     0.8272311 0.8623911 0.2509211     O
O     0.8272311 0.8623911 0.7490811     O
C     0.8272717 0.1157517 0.2432717     C
C     0.8272717 0.1157517 0.7567317     C
C     0.8272717 0.2432717 0.1157517     C
C     0.8272717 0.2432717 0.8842517     C
C     0.8272717 0.7567317 0.1157517     C
C     0.8272717 0.7567317 0.8842517     C
C     0.8272717 0.8842517 0.2432717     C
C     0.8272717 0.8842517 0.7567317     C
C      0.82742  0.39492 0.4770917     C
C      0.82742  0.39492 0.5229117     C
C      0.82742 0.4770917  0.39492     C
C      0.82742 0.4770917  0.60512     C
C      0.82742 0.5229117  0.39492     C
C      0.82742 0.5229117  0.60512     C
C      0.82742  0.60512 0.4770917     C
C      0.82742  0.60512 0.5229117     C
C     0.8289618  0.04672  0.43832     C
C     0.8289618  0.04672  0.56172     C
C     0.8289618  0.43832  0.04672     C
C     0.8289618  0.43832  0.95332     C
C     0.8289618  0.56172  0.04672     C
C     0.8289618  0.56172  0.95332     C
C     0.8289618  0.95332  0.43832     C
C     0.8289618  0.95332  0.56172     C
C      0.82942 0.2303517  0.31262     C
C      0.82942 0.2303517  0.68742     C
C      0.82942  0.31262 0.2303517     C
C      0.82942  0.31262 0.7696517     C
C      0.82942  0.68742 0.2303517     C
C      0.82942  0.68742 0.7696517     C
C      0.82942 0.7696517  0.31262     C
C      0.82942 0.7696517  0.68742     C
O     0.8305912 0.1164812 0.2974312     O
O     0.8305912 0.1164812 0.7025712     O
O     0.8305912 0.2974312 0.1164812     O
O     0.8305912 0.2974312 0.8835212     O
O     0.8305912 0.7025712 0.1164812     O
O     0.8305912 0.7025712 0.8835212     O
O     0.8305912 0.8835212 0.2974312     O
O     0.8305912 0.8835212 0.7025712     O
O     0.8314817 0.0648516  0.28932     O
O     0.8314817 0.0648516  0.71072     O
O     0.8314817  0.28932 0.0648516     O
O     0.8314817  0.28932 0.9351516     O
O     0.8314817  0.71072 0.0648516     O
O     0.8314817  0.71072 0.9351516     O
O     0.8314817 0.9351516  0.28932     O
O     0.8314817 0.9351516  0.71072     O
Hf    0.8328996 0.1204527 0.3386946    Hf
Hf    0.8328996 0.1204527 0.6613066    Hf
Hf    0.8328996 0.3386946 0.1204527    Hf
Hf    0.8328996 0.3386946 0.8795487    Hf
Hf    0.8328996 0.6613066 0.1204527    Hf
Hf    0.8328996 0.6613066 0.8795487    Hf
Hf    0.8328996 0.8795487 0.3386946    Hf
Hf    0.8328996 0.8795487 0.6613066    Hf
O      0.83562 0.3045316 0.4079118     O
O      0.83562 0.3045316 0.5920918     O
O      0.83562 0.4079118 0.3045316     O
O      0.83562 0.4079118 0.6954716     O
O      0.83562 0.5920918 0.3045316     O
O      0.83562 0.5920918 0.6954716     O
O      0.83562 0.6954716 0.4079118     O
O      0.83562 0.6954716 0.5920918     O
O     0.8371711 0.4006511 0.435371     O
O     0.8371711 0.4006511 0.564631     O
O     0.8371711 0.435371 0.4006511     O
O     0.8371711 0.435371 0.5993511     O
O     0.8371711 0.564631 0.4006511     O
O     0.8371711 0.564631 0.5993511     O
O     0.8371711 0.5993511 0.435371     O
O     0.8371711 0.5993511 0.564631     O
S     0.837285     0.25 0.337285     S
S     0.837285     0.25 0.662725     S
S     0.837285 0.337285     0.25     S
S     0.837285 0.337285     0.75     S
S     0.837285 0.662725     0.25     S
S     0.837285 0.662725     0.75     S
S     0.837285     0.75 0.337285     S
S     0.837285     0.75 0.662725     S
O     0.8376712 0.0933916 0.3709314     O
O     0.8376712 0.0933916 0.6290714     O
O     0.8376712 0.3709314 0.0933916     O
O     0.8376712 0.3709314 0.9066116     O
O     0.8376712 0.6290714 0.0933916     O
O     0.8376712 0.6290714 0.9066116     O
O     0.8376712 0.9066116 0.3709314     O
O     0.8376712 0.9066116 0.6290714     O
Hf    0.8386946 0.3328996 0.3795487    Hf
Hf    0.8386946 0.3328996 0.6204527    Hf
Hf    0.8386946 0.3795487 0.3328996    Hf
Hf    0.8386946 0.3795487 0.6671016    Hf
Hf    0.8386946 0.6204527 0.3328996    Hf
Hf    0.8386946 0.6204527 0.6671016    Hf
Hf    0.8386946 0.6671016 0.3795487    Hf
Hf    0.8386946 0.6671016 0.6204527    Hf
O     0.8395714 0.0973213 0.2523713     O
O     0.8395714 0.0973213 0.7476313     O
O     0.8395714 0.2523713 0.0973213     O
O     0.8395714 0.2523713 0.9026813     O
O     0.8395714 0.7476313 0.0973213     O
O     0.8395714 0.7476313 0.9026813     O
O     0.8395714 0.9026813 0.2523713     O
O     0.8395714 0.9026813 0.7476313     O
O     0.8396613 0.1944511 0.2906012     O
O     0.8396613 0.1944511 0.7094012     O
O     0.8396613 0.2906012 0.1944511     O
O     0.8396613 0.2906012 0.8055511     O
O     0.8396613 0.7094012 0.1944511     O
O     0.8396613 0.7094012 0.8055511     O
O     0.8396613 0.8055511 0.2906012     O
O     0.8396613 0.8055511 0.7094012     O
Hf    0.8426258 0.3956455 0.3956455    Hf
Hf    0.8426258 0.3956455 0.6043555    Hf
Hf    0.8426258 0.6043555 0.3956455    Hf
Hf    0.8426258 0.6043555 0.6043555    Hf
C      0.84412 0.2070918  0.30982     C
C      0.84412 0.2070918  0.69022     C
C      0.84412  0.30982 0.2070918     C
C      0.84412  0.30982 0.7929118     C
C      0.84412  0.69022 0.2070918     C
C      0.84412  0.69022 0.7929118     C
C      0.84412 0.7929118  0.30982     C
C      0.84412 0.7929118  0.69022     C
O      0.84507  0.13685  0.40545     O
O      0.84507  0.13685  0.59465     O
O      0.84507  0.40545  0.13685     O
O      0.84507  0.40545  0.86325     O
O      0.84507  0.59465  0.13685     O
O      0.84507  0.59465  0.86325     O
O      0.84507  0.86325  0.40545     O
O      0.84507  0.86325  0.59465     O
Hf    0.8457385 0.1542625 0.2839718    Hf
Hf    0.8457385 0.1542625 0.7160298    Hf
Hf    0.8457385 0.2839718 0.1542625    Hf
Hf    0.8457385 0.2839718 0.8457385    Hf
Hf    0.8457385 0.7160298 0.1542625    Hf
Hf    0.8457385 0.7160298 0.8457385    Hf
Hf    0.8457385 0.8457385 0.2839718    Hf
Hf    0.8457385 0.8457385 0.7160298    Hf
O     0.8474312 0.1525712 0.3224116     O
O     0.8474312 0.1525712 0.6775916     O
O     0.8474312 0.3224116 0.1525712     O
O     0.8474312 0.3224116 0.8474312     O
O     0.8474312 0.6775916 0.1525712     O
O     0.8474312 0.6775916 0.8474312     O
O     0.8474312 0.8474312 0.3224116     O
O     0.8474312 0.8474312 0.6775916     O
C      0.84754  0.40704  0.48702     C
C      0.84754  0.40704  0.51302     C
C      0.84754  0.48702  0.40704     C
C      0.84754  0.48702  0.59304     C
C      0.84754  0.51302  0.40704     C
C      0.84754  0.51302  0.59304     C
C      0.84754  0.59304  0.48702     C
C      0.84754  0.59304  0.51302     C
C     0.8508018  0.06822  0.40412     C
C     0.8508018  0.06822  0.59592     C
C     0.8508018  0.40412  0.06822     C
C     0.8508018  0.40412  0.93182     C
C     0.8508018  0.59592  0.06822     C
C     0.8508018  0.59592  0.93182     C
C     0.8508018  0.93182  0.40412     C
C     0.8508018  0.93182  0.59592     C
C      0.85402  0.04174  0.43794     C
C      0.85402  0.04174  0.56214     C
C      0.85402  0.43794  0.04174     C
C      0.85402  0.43794  0.95834     C
C      0.85402  0.56214  0.04174     C
C      0.85402  0.56214  0.95834     C
C      0.85402  0.95834  0.43794     C
C      0.85402  0.95834  0.56214     C
C     0.8563018  0.08332 0.3817117     C
C     0.8563018  0.08332 0.6182917     C
C     0.8563018 0.3817117  0.08332     C
C     0.8563018 0.3817117  0.91672     C
C     0.8563018 0.6182917  0.08332     C
C     0.8563018 0.6182917  0.91672     C
C     0.8563018  0.91672 0.3817117     C
C     0.8563018  0.91672 0.6182917     C
O     0.8584917 0.3680411 0.3680411     O
O     0.8584917 0.3680411 0.6319611     O
O     0.8584917 0.6319611 0.3680411     O
O     0.8584917 0.6319611 0.6319611     O
O     0.8593216 0.2019112 0.3271514     O
O     0.8593216 0.2019112 0.6728514     O
O     0.8593216 0.3271514 0.2019112     O
O     0.8593216 0.3271514 0.7980912     O
O     0.8593216 0.6728514 0.2019112     O
O     0.8593216 0.6728514 0.7980912     O
O     0.8593216 0.7980912 0.3271514     O
O     0.8593216 0.7980912 0.6728514     O
H         0.86   0.4145   0.4774     H
H         0.86   0.4145   0.5226     H
H         0.86   0.4774   0.4145     H
H         0.86   0.4774   0.5855     H
H         0.86   0.5226   0.4145     H
H         0.86   0.5226   0.5855     H
H         0.86   0.5855   0.4774     H
H         0.86   0.5855   0.5226     H
O      0.86152 0.1822816 0.3716014     O
O      0.86152 0.1822816 0.6284014     O
O      0.86152 0.3716014 0.1822816     O
O      0.86152 0.3716014 0.8177216     O
O      0.86152 0.6284014 0.1822816     O
O      0.86152 0.6284014 0.8177216     O
O      0.86152 0.8177216 0.3716014     O
O      0.86152 0.8177216 0.6284014     O
O     0.861791 0.0984111 0.3253611     O
O     0.861791 0.0984111 0.6746411     O
O     0.861791 0.3253611 0.0984111     O
O     0.861791 0.3253611 0.9015911     O
O     0.861791 0.6746411 0.0984111     O
O     0.861791 0.6746411 0.9015911     O
O     0.861791 0.9015911 0.3253611     O
O     0.861791 0.9015911 0.6746411     O
H       0.8619   0.0311   0.4492     H
H       0.8619   0.0311   0.5508     H
H       0.8619   0.4492   0.0311     H
H       0.8619   0.4492   0.9689     H
H       0.8619   0.5508   0.0311     H
H       0.8619   0.5508   0.9689     H
H       0.8619   0.9689   0.4492     H
H       0.8619   0.9689   0.5508     H
Hf    0.8622516 0.0913196 0.2876486    Hf
Hf    0.8622516 0.0913196 0.7123526    Hf
Hf    0.8622516 0.2876486 0.0913196    Hf
Hf    0.8622516 0.2876486 0.9086816    Hf
Hf    0.8622516 0.7123526 0.0913196    Hf
Hf    0.8622516 0.7123526 0.9086816    Hf
Hf    0.8622516 0.9086816 0.2876486    Hf
Hf    0.8622516 0.9086816 0.7123526    Hf
O     0.8623911 0.1727711 0.2509211     O
O     0.8623911 0.1727711 0.7490811     O
O     0.8623911 0.2509211 0.1727711     O
O     0.8623911 0.2509211 0.8272311     O
O     0.8623911 0.7490811 0.1727711     O
O     0.8623911 0.7490811 0.8272311     O
O     0.8623911 0.8272311 0.2509211     O
O     0.8623911 0.8272311 0.7490811     O
O      0.86325  0.15507  0.40545     O
O      0.86325  0.15507  0.59465     O
O      0.86325  0.40545  0.15507     O
O      0.86325  0.40545  0.84507     O
O      0.86325  0.59465  0.15507     O
O      0.86325  0.59465  0.84507     O
O      0.86325  0.84507  0.40545     O
O      0.86325  0.84507  0.59465     O
C      0.86672  0.05444  0.41852     C
C      0.86672  0.05444  0.58152     C
C      0.86672  0.41852  0.05444     C
C      0.86672  0.41852  0.94564     C
C      0.86672  0.58152  0.05444     C
C      0.86672  0.58152  0.94564     C
C      0.86672  0.94564  0.41852     C
C      0.86672  0.94564  0.58152     C
C      0.86674  0.17527  0.39374     C
C      0.86674  0.17527  0.60634     C
C      0.86674  0.39374  0.17527     C
C      0.86674  0.39374  0.82487     C
C      0.86674  0.60634  0.17527     C
C      0.86674  0.60634  0.82487     C
C      0.86674  0.82487  0.39374     C
C      0.86674  0.82487  0.60634     C
O     0.8680411 0.1319611 0.3584917     O
O     0.8680411 0.1319611 0.6415117     O
O     0.8680411 0.3584917 0.1319611     O
O     0.8680411 0.3584917 0.8680411     O
O     0.8680411 0.6415117 0.1319611     O
O     0.8680411 0.6415117 0.8680411     O
O     0.8680411 0.8680411 0.3584917     O
O     0.8680411 0.8680411 0.6415117     O
S     0.869107 0.209226 0.209226     S
S     0.869107 0.209226 0.790786     S
S     0.869107 0.790786 0.209226     S
S     0.869107 0.790786 0.790786     S
O     0.8709314 0.3376712 0.4066116     O
O     0.8709314 0.3376712 0.5933916     O
O     0.8709314 0.4066116 0.3376712     O
O     0.8709314 0.4066116 0.6623312     O
O     0.8709314 0.5933916 0.3376712     O
O     0.8709314 0.5933916 0.6623312     O
O     0.8709314 0.6623312 0.4066116     O
O     0.8709314 0.6623312 0.5933916     O
O     0.8716014 0.3177216  0.36152     O
O     0.8716014 0.3177216  0.63852     O
O     0.8716014  0.36152 0.3177216     O
O     0.8716014  0.36152 0.6822816     O
O     0.8716014  0.63852 0.3177216     O
O     0.8716014  0.63852 0.6822816     O
O     0.8716014 0.6822816  0.36152     O
O     0.8716014 0.6822816  0.63852     O
O     0.872661 0.127341 0.2784816     O
O     0.872661 0.127341 0.7215216     O
O     0.872661 0.2784816 0.127341     O
O     0.872661 0.2784816 0.872661     O
O     0.872661 0.7215216 0.127341     O
O     0.872661 0.7215216 0.872661     O
O     0.872661 0.872661 0.2784816     O
O     0.872661 0.872661 0.7215216     O
O     0.8750511 0.3789011 0.4145311     O
O     0.8750511 0.3789011 0.5854711     O
O     0.8750511 0.4145311 0.3789011     O
O     0.8750511 0.4145311 0.6211011     O
O     0.8750511 0.5854711 0.3789011     O
O     0.8750511 0.5854711 0.6211011     O
O     0.8750511 0.6211011 0.4145311     O
O     0.8750511 0.6211011 0.5854711     O
O     0.8766914 0.0548311 0.3036013     O
O     0.8766914 0.0548311 0.6964013     O
O     0.8766914 0.3036013 0.0548311     O
O     0.8766914 0.3036013 0.9451711     O
O     0.8766914 0.6964013 0.0548311     O
O     0.8766914 0.6964013 0.9451711     O
O     0.8766914 0.9451711 0.3036013     O
O     0.8766914 0.9451711 0.6964013     O
C      0.87739  0.19651  0.40938     C
C      0.87739  0.19651  0.59078     C
C      0.87739  0.40938  0.19651     C
C      0.87739  0.40938  0.80351     C
C      0.87739  0.59078  0.19651     C
C      0.87739  0.59078  0.80351     C
C      0.87739  0.80351  0.40938     C
C      0.87739  0.80351  0.59078     C
O     0.8789011 0.0854711 0.3750511     O
O     0.8789011 0.0854711 0.6249511     O
O     0.8789011 0.3750511 0.0854711     O
O     0.8789011 0.3750511 0.9145311     O
O     0.8789011 0.6249511 0.0854711     O
O     0.8789011 0.6249511 0.9145311     O
O     0.8789011 0.9145311 0.3750511     O
O     0.8789011 0.9145311 0.6249511     O
Hf    0.8795487 0.1671016 0.3386946    Hf
Hf    0.8795487 0.1671016 0.6613066    Hf
Hf    0.8795487 0.3386946 0.1671016    Hf
Hf    0.8795487 0.3386946 0.8328996    Hf
Hf    0.8795487 0.6613066 0.1671016    Hf
Hf    0.8795487 0.6613066 0.8328996    Hf
Hf    0.8795487 0.8328996 0.3386946    Hf
Hf    0.8795487 0.8328996 0.6613066    Hf
C     0.8817117 0.3563018  0.41672     C
C     0.8817117 0.3563018  0.58332     C
C     0.8817117  0.41672 0.3563018     C
C     0.8817117  0.41672 0.6437018     C
C     0.8817117  0.58332 0.3563018     C
C     0.8817117  0.58332 0.6437018     C
C     0.8817117 0.6437018  0.41672     C
C     0.8817117 0.6437018  0.58332     C
O     0.8819316 0.0732916 0.2574814     O
O     0.8819316 0.0732916 0.7425214     O
O     0.8819316 0.2574814 0.0732916     O
O     0.8819316 0.2574814 0.9267116     O
O     0.8819316 0.7425214 0.0732916     O
O     0.8819316 0.7425214 0.9267116     O
O     0.8819316 0.9267116 0.2574814     O
O     0.8819316 0.9267116 0.7425214     O
S     0.883238      0.0 0.308367     S
S     0.883238      0.0 0.691647     S
S     0.883238 0.308367      0.0     S
S     0.883238 0.691647      0.0     S
O     0.8835212 0.1694112 0.2974312     O
O     0.8835212 0.1694112 0.7025712     O
O     0.8835212 0.2974312 0.1694112     O
O     0.8835212 0.2974312 0.8305912     O
O     0.8835212 0.7025712 0.1694112     O
O     0.8835212 0.7025712 0.8305912     O
O     0.8835212 0.8305912 0.2974312     O
O     0.8835212 0.8305912 0.7025712     O
H       0.8838   0.0535   0.4158     H
H       0.8838   0.0535   0.5842     H
H       0.8838   0.4158   0.0535     H
H       0.8838   0.4158   0.9465     H
H       0.8838   0.5842   0.0535     H
H       0.8838   0.5842   0.9465     H
H       0.8838   0.9465   0.4158     H
H       0.8838   0.9465   0.5842     H
C     0.8842517 0.1727317 0.2432717     C
C     0.8842517 0.1727317 0.7567317     C
C     0.8842517 0.2432717 0.1727317     C
C     0.8842517 0.2432717 0.8272717     C
C     0.8842517 0.7567317 0.1727317     C
C     0.8842517 0.7567317 0.8272717     C
C     0.8842517 0.8272717 0.2432717     C
C     0.8842517 0.8272717 0.7567317     C
S      0.88454  0.19244  0.44182     S
S      0.88454  0.19244  0.55822     S
S      0.88454  0.44182  0.19244     S
S      0.88454  0.44182  0.80764     S
S      0.88454  0.55822  0.19244     S
S      0.88454  0.55822  0.80764     S
S      0.88454  0.80764  0.44182     S
S      0.88454  0.80764  0.55822     S
H       0.8852    0.228   0.3876     H
H       0.8852    0.228   0.6124     H
H       0.8852   0.3876    0.228     H
H       0.8852   0.3876    0.772     H
H       0.8852   0.6124    0.228     H
H       0.8852   0.6124    0.772     H
H       0.8852    0.772   0.3876     H
H       0.8852    0.772   0.6124     H
C      0.88708  0.22141 0.403611     C
C      0.88708  0.22141 0.596411     C
C      0.88708 0.403611  0.22141     C
C      0.88708 0.403611  0.77861     C
C      0.88708 0.596411  0.22141     C
C      0.88708 0.596411  0.77861     C
C      0.88708  0.77861 0.403611     C
C      0.88708  0.77861 0.596411     C
H       0.8876    0.272   0.3852     H
H       0.8876    0.272   0.6148     H
H       0.8876   0.3852    0.272     H
H       0.8876   0.3852    0.728     H
H       0.8876   0.6148    0.272     H
H       0.8876   0.6148    0.728     H
H       0.8876    0.728   0.3852     H
H       0.8876    0.728   0.6148     H
C     0.8905018 0.0495716 0.3219117     C
C     0.8905018 0.0495716 0.6780917     C
C     0.8905018 0.3219117 0.0495716     C
C     0.8905018 0.3219117 0.9504316     C
C     0.8905018 0.6780917 0.0495716     C
C     0.8905018 0.6780917 0.9504316     C
C     0.8905018 0.9504316 0.3219117     C
C     0.8905018 0.9504316 0.6780917     C
C      0.89082  0.18932  0.22172     C
C      0.89082  0.18932  0.77832     C
C      0.89082  0.22172  0.18932     C
C      0.89082  0.22172  0.81072     C
C      0.89082  0.77832  0.18932     C
C      0.89082  0.77832  0.81072     C
C      0.89082  0.81072  0.22172     C
C      0.89082  0.81072  0.77832     C
C      0.89374  0.32487  0.36674     C
C      0.89374  0.32487  0.63334     C
C      0.89374  0.36674  0.32487     C
C      0.89374  0.36674  0.67527     C
C      0.89374  0.63334  0.32487     C
C      0.89374  0.63334  0.67527     C
C      0.89374  0.67527  0.36674     C
C      0.89374  0.67527  0.63334     C
C      0.89492 0.0229117  0.32742     C
C      0.89492 0.0229117  0.67262     C
C      0.89492  0.32742 0.0229117     C
C      0.89492  0.32742 0.9770917     C
C      0.89492  0.67262 0.0229117     C
C      0.89492  0.67262 0.9770917     C
C      0.89492 0.9770917  0.32742     C
C      0.89492 0.9770917  0.67262     C
Hf    0.8956455 0.1043555 0.3426258    Hf
Hf    0.8956455 0.1043555 0.6573758    Hf
Hf    0.8956455 0.3426258 0.1043555    Hf
Hf    0.8956455 0.3426258 0.8956455    Hf
Hf    0.8956455 0.6573758 0.1043555    Hf
Hf    0.8956455 0.6573758 0.8956455    Hf
Hf    0.8956455 0.8956455 0.3426258    Hf
Hf    0.8956455 0.8956455 0.6573758    Hf
C      0.89818 0.234211 0.420711     C
C      0.89818 0.234211 0.579311     C
C      0.89818 0.420711 0.234211     C
C      0.89818 0.420711 0.765811     C
C      0.89818 0.579311 0.234211     C
C      0.89818 0.579311 0.765811     C
C      0.89818 0.765811 0.420711     C
C      0.89818 0.765811 0.579311     C
C      0.90037  0.22128  0.44408     C
C      0.90037  0.22128  0.55608     C
C      0.90037  0.44408  0.22128     C
C      0.90037  0.44408  0.77888     C
C      0.90037  0.55608  0.22128     C
C      0.90037  0.55608  0.77888     C
C      0.90037  0.77888  0.44408     C
C      0.90037  0.77888  0.55608     C
O     0.9006511 0.064631 0.3371711     O
O     0.9006511 0.064631 0.6628311     O
O     0.9006511 0.3371711 0.064631     O
O     0.9006511 0.3371711 0.935371     O
O     0.9006511 0.6628311 0.064631     O
O     0.9006511 0.6628311 0.935371     O
O     0.9006511 0.935371 0.3371711     O
O     0.9006511 0.935371 0.6628311     O
O     0.9012512 0.0987512 0.2995117     O
O     0.9012512 0.0987512 0.7004917     O
O     0.9012512 0.2995117 0.0987512     O
O     0.9012512 0.2995117 0.9012512     O
O     0.9012512 0.7004917 0.0987512     O
O     0.9012512 0.7004917 0.9012512     O
O     0.9012512 0.9012512 0.2995117     O
O     0.9012512 0.9012512 0.7004917     O
O     0.9015911 0.138211 0.3253611     O
O     0.9015911 0.138211 0.6746411     O
O     0.9015911 0.3253611 0.138211     O
O     0.9015911 0.3253611 0.861791     O
O     0.9015911 0.6746411 0.138211     O
O     0.9015911 0.6746411 0.861791     O
O     0.9015911 0.861791 0.3253611     O
O     0.9015911 0.861791 0.6746411     O
O     0.9026813 0.1604314 0.2523713     O
O     0.9026813 0.1604314 0.7476313     O
O     0.9026813 0.2523713 0.1604314     O
O     0.9026813 0.2523713 0.8395714     O
O     0.9026813 0.7476313 0.1604314     O
O     0.9026813 0.7476313 0.8395714     O
O     0.9026813 0.8395714 0.2523713     O
O     0.9026813 0.8395714 0.7476313     O
C     0.903611  0.27861  0.38708     C
C     0.903611  0.27861  0.61308     C
C     0.903611  0.38708  0.27861     C
C     0.903611  0.38708  0.72141     C
C     0.903611  0.61308  0.27861     C
C     0.903611  0.61308  0.72141     C
C     0.903611  0.72141  0.38708     C
C     0.903611  0.72141  0.61308     C
H        0.904   0.2503   0.4182     H
H        0.904   0.2503   0.5818     H
H        0.904   0.4182   0.2503     H
H        0.904   0.4182   0.7497     H
H        0.904   0.5818   0.2503     H
H        0.904   0.5818   0.7497     H
H        0.904   0.7497   0.4182     H
H        0.904   0.7497   0.5818     H
C      0.90412 0.3508018  0.43182     C
C      0.90412 0.3508018  0.56822     C
C      0.90412  0.43182 0.3508018     C
C      0.90412  0.43182 0.6492018     C
C      0.90412  0.56822 0.3508018     C
C      0.90412  0.56822 0.6492018     C
C      0.90412 0.6492018  0.43182     C
C      0.90412 0.6492018  0.56822     C
O      0.90545  0.34507  0.36325     O
O      0.90545  0.34507  0.63685     O
O      0.90545  0.36325  0.34507     O
O      0.90545  0.36325  0.65507     O
O      0.90545  0.63685  0.34507     O
O      0.90545  0.63685  0.65507     O
O      0.90545  0.65507  0.36325     O
O      0.90545  0.65507  0.63685     O
O     0.9066116 0.1623312 0.3709314     O
O     0.9066116 0.1623312 0.6290714     O
O     0.9066116 0.3709314 0.1623312     O
O     0.9066116 0.3709314 0.8376712     O
O     0.9066116 0.6290714 0.1623312     O
O     0.9066116 0.6290714 0.8376712     O
O     0.9066116 0.8376712 0.3709314     O
O     0.9066116 0.8376712 0.6290714     O
C      0.90704  0.01302  0.34754     C
C      0.90704  0.01302  0.65254     C
C      0.90704  0.34754  0.01302     C
C      0.90704  0.34754  0.98702     C
C      0.90704  0.65254  0.01302     C
C      0.90704  0.65254  0.98702     C
C      0.90704  0.98702  0.34754     C
C      0.90704  0.98702  0.65254     C
O     0.9079118 0.1954716  0.33562     O
O     0.9079118 0.1954716  0.66442     O
O     0.9079118  0.33562 0.1954716     O
O     0.9079118  0.33562 0.8045316     O
O     0.9079118  0.66442 0.1954716     O
O     0.9079118  0.66442 0.8045316     O
O     0.9079118 0.8045316  0.33562     O
O     0.9079118 0.8045316  0.66442     O
Hf    0.9086816 0.1377496 0.2876486    Hf
Hf    0.9086816 0.1377496 0.7123526    Hf
Hf    0.9086816 0.2876486 0.1377496    Hf
Hf    0.9086816 0.2876486 0.8622516    Hf
Hf    0.9086816 0.7123526 0.1377496    Hf
Hf    0.9086816 0.7123526 0.8622516    Hf
Hf    0.9086816 0.8622516 0.2876486    Hf
Hf    0.9086816 0.8622516 0.7123526    Hf
C      0.90938  0.30351  0.37739     C
C      0.90938  0.30351  0.62279     C
C      0.90938  0.37739  0.30351     C
C      0.90938  0.37739  0.69651     C
C      0.90938  0.62279  0.30351     C
C      0.90938  0.62279  0.69651     C
C      0.90938  0.69651  0.37739     C
C      0.90938  0.69651  0.62279     C
C      0.91322  0.19204  0.21054     C
C      0.91322  0.19204  0.78954     C
C      0.91322  0.21054  0.19204     C
C      0.91322  0.21054  0.80804     C
C      0.91322  0.78954  0.19204     C
C      0.91322  0.78954  0.80804     C
C      0.91322  0.80804  0.21054     C
C      0.91322  0.80804  0.78954     C
C      0.91377  0.22708  0.46838     C
C      0.91377  0.22708  0.53178     C
C      0.91377  0.46838  0.22708     C
C      0.91377  0.46838  0.77308     C
C      0.91377  0.53178  0.22708     C
C      0.91377  0.53178  0.77308     C
C      0.91377  0.77308  0.46838     C
C      0.91377  0.77308  0.53178     C
O      0.91407  0.20959  0.48647     O
O      0.91407  0.20959  0.51367     O
O      0.91407  0.48647  0.20959     O
O      0.91407  0.48647  0.79059     O
O      0.91407  0.51367  0.20959     O
O      0.91407  0.51367  0.79059     O
O      0.91407  0.79059  0.48647     O
O      0.91407  0.79059  0.51367     O
S     0.914135 0.320485 0.434647     S
S     0.914135 0.320485 0.565367     S
S     0.914135 0.434647 0.320485     S
S     0.914135 0.434647 0.679525     S
S     0.914135 0.565367 0.320485     S
S     0.914135 0.565367 0.679525     S
S     0.914135 0.679525 0.434647     S
S     0.914135 0.679525 0.565367     S
H       0.9145   0.0226     0.36     H
H       0.9145   0.0226     0.64     H
H       0.9145     0.36   0.0226     H
H       0.9145     0.36   0.9774     H
H       0.9145     0.64   0.0226     H
H       0.9145     0.64   0.9774     H
H       0.9145   0.9774     0.36     H
H       0.9145   0.9774     0.64     H
O     0.9145311 0.1211011 0.3750511     O
O     0.9145311 0.1211011 0.6249511     O
O     0.9145311 0.3750511 0.1211011     O
O     0.9145311 0.3750511 0.8789011     O
O     0.9145311 0.6249511 0.1211011     O
O     0.9145311 0.6249511 0.8789011     O
O     0.9145311 0.8789011 0.3750511     O
O     0.9145311 0.8789011 0.6249511     O
H       0.9158   0.3838   0.4465     H
H       0.9158   0.3838   0.5535     H
H       0.9158   0.4465   0.3838     H
H       0.9158   0.4465   0.6162     H
H       0.9158   0.5535   0.3838     H
H       0.9158   0.5535   0.6162     H
H       0.9158   0.6162   0.4465     H
H       0.9158   0.6162   0.5535     H
C      0.91672 0.1437018 0.3817117     C
C      0.91672 0.1437018 0.6182917     C
C      0.91672 0.3817117 0.1437018     C
C      0.91672 0.3817117 0.8563018     C
C      0.91672 0.6182917 0.1437018     C
C      0.91672 0.6182917 0.8563018     C
C      0.91672 0.8563018 0.3817117     C
C      0.91672 0.8563018 0.6182917     C
H       0.9182   0.2497    0.404     H
H       0.9182   0.2497    0.596     H
H       0.9182    0.404   0.2497     H
H       0.9182    0.404   0.7503     H
H       0.9182    0.596   0.2497     H
H       0.9182    0.596   0.7503     H
H       0.9182   0.7503    0.404     H
H       0.9182   0.7503    0.596     H
C      0.91852  0.36672  0.44564     C
C      0.91852  0.36672  0.55444     C
C      0.91852  0.44564  0.36672     C
C      0.91852  0.44564  0.63332     C
C      0.91852  0.55444  0.36672     C
C      0.91852  0.55444  0.63332     C
C      0.91852  0.63332  0.44564     C
C      0.91852  0.63332  0.55444     C
C     0.920711 0.265811  0.39818     C
C     0.920711 0.265811  0.60198     C
C     0.920711  0.39818 0.265811     C
C     0.920711  0.39818 0.734211     C
C     0.920711  0.60198 0.265811     C
C     0.920711  0.60198 0.734211     C
C     0.920711 0.734211  0.39818     C
C     0.920711 0.734211  0.60198     C
O     0.9267116 0.1180716 0.2574814     O
O     0.9267116 0.1180716 0.7425214     O
O     0.9267116 0.2574814 0.1180716     O
O     0.9267116 0.2574814 0.8819316     O
O     0.9267116 0.7425214 0.1180716     O
O     0.9267116 0.7425214 0.8819316     O
O     0.9267116 0.8819316 0.2574814     O
O     0.9267116 0.8819316 0.7425214     O
O     0.9268815 0.2469215  0.46882     O
O     0.9268815 0.2469215  0.53122     O
O     0.9268815  0.46882 0.2469215     O
O     0.9268815  0.46882 0.7530815     O
O     0.9268815  0.53122 0.2469215     O
O     0.9268815  0.53122 0.7530815     O
O     0.9268815 0.7530815  0.46882     O
O     0.9268815 0.7530815  0.53122     O
H       0.9272   0.1825   0.2146     H
H       0.9272   0.1825   0.7854     H
H       0.9272   0.2146   0.1825     H
H       0.9272   0.2146   0.8175     H
H       0.9272   0.7854   0.1825     H
H       0.9272   0.7854   0.8175     H
H       0.9272   0.8175   0.2146     H
H       0.9272   0.8175   0.7854     H
C      0.93182 0.1492018  0.40412     C
C      0.93182 0.1492018  0.59592     C
C      0.93182  0.40412 0.1492018     C
C      0.93182  0.40412 0.8508018     C
C      0.93182  0.59592 0.1492018     C
C      0.93182  0.59592 0.8508018     C
C      0.93182 0.8508018  0.40412     C
C      0.93182 0.8508018  0.59592     C
S     0.934647 0.179525 0.414135     S
S     0.934647 0.179525 0.585875     S
S     0.934647 0.414135 0.179525     S
S     0.934647 0.414135 0.820485     S
S     0.934647 0.585875 0.179525     S
S     0.934647 0.585875 0.820485     S
S     0.934647 0.820485 0.414135     S
S     0.934647 0.820485 0.585875     S
O     0.9351516 0.1685217  0.28932     O
O     0.9351516 0.1685217  0.71072     O
O     0.9351516  0.28932 0.1685217     O
O     0.9351516  0.28932 0.8314817     O
O     0.9351516  0.71072 0.1685217     O
O     0.9351516  0.71072 0.8314817     O
O     0.9351516 0.8314817  0.28932     O
O     0.9351516 0.8314817  0.71072     O
O     0.935371 0.0993511 0.3371711     O
O     0.935371 0.0993511 0.6628311     O
O     0.935371 0.3371711 0.0993511     O
O     0.935371 0.3371711 0.9006511     O
O     0.935371 0.6628311 0.0993511     O
O     0.935371 0.6628311 0.9006511     O
O     0.935371 0.9006511 0.3371711     O
O     0.935371 0.9006511 0.6628311     O
C      0.93794  0.35402  0.45834     C
C      0.93794  0.35402  0.54174     C
C      0.93794  0.45834  0.35402     C
C      0.93794  0.45834  0.64602     C
C      0.93794  0.54174  0.35402     C
C      0.93794  0.54174  0.64602     C
C      0.93794  0.64602  0.45834     C
C      0.93794  0.64602  0.54174     C
C      0.93832 0.3289618  0.45332     C
C      0.93832 0.3289618  0.54672     C
C      0.93832  0.45332 0.3289618     C
C      0.93832  0.45332 0.6710418     C
C      0.93832  0.54672 0.3289618     C
C      0.93832  0.54672 0.6710418     C
C      0.93832 0.6710418  0.45332     C
C      0.93832 0.6710418  0.54672     C
S      0.94182  0.30764  0.38454     S
S      0.94182  0.30764  0.61554     S
S      0.94182  0.38454  0.30764     S
S      0.94182  0.38454  0.69244     S
S      0.94182  0.61554  0.30764     S
S      0.94182  0.61554  0.69244     S
S      0.94182  0.69244  0.38454     S
S      0.94182  0.69244  0.61554     S
C      0.94408  0.27888  0.40037     C
C      0.94408  0.27888  0.59977     C
C      0.94408  0.40037  0.27888     C
C      0.94408  0.40037  0.72128     C
C      0.94408  0.59977  0.27888     C
C      0.94408  0.59977  0.72128     C
C      0.94408  0.72128  0.40037     C
C      0.94408  0.72128  0.59977     C
O     0.9451711 0.1233114 0.3036013     O
O     0.9451711 0.1233114 0.6964013     O
O     0.9451711 0.3036013 0.1233114     O
O     0.9451711 0.3036013 0.8766914     O
O     0.9451711 0.6964013 0.1233114     O
O     0.9451711 0.6964013 0.8766914     O
O     0.9451711 0.8766914 0.3036013     O
O     0.9451711 0.8766914 0.6964013     O
C      0.94564  0.13332  0.41852     C
C      0.94564  0.13332  0.58152     C
C      0.94564  0.41852  0.13332     C
C      0.94564  0.41852  0.86672     C
C      0.94564  0.58152  0.13332     C
C      0.94564  0.58152  0.86672     C
C      0.94564  0.86672  0.41852     C
C      0.94564  0.86672  0.58152     C
H       0.9465   0.1162   0.4158     H
H       0.9465   0.1162   0.5842     H
H       0.9465   0.4158   0.1162     H
H       0.9465   0.4158   0.8838     H
H       0.9465   0.5842   0.1162     H
H       0.9465   0.5842   0.8838     H
H       0.9465   0.8838   0.4158     H
H       0.9465   0.8838   0.5842     H
H       0.9492   0.3619   0.4689     H
H       0.9492   0.3619   0.5311     H
H       0.9492   0.4689   0.3619     H
H       0.9492   0.4689   0.6381     H
H       0.9492   0.5311   0.3619     H
H       0.9492   0.5311   0.6381     H
H       0.9492   0.6381   0.4689     H
H       0.9492   0.6381   0.5311     H
C     0.9504316 0.1095018 0.3219117     C
C     0.9504316 0.1095018 0.6780917     C
C     0.9504316 0.3219117 0.1095018     C
C     0.9504316 0.3219117 0.8905018     C
C     0.9504316 0.6780917 0.1095018     C
C     0.9504316 0.6780917 0.8905018     C
C     0.9504316 0.8905018 0.3219117     C
C     0.9504316 0.8905018 0.6780917     C
O     0.9507214 0.2876712 0.4575616     O
O     0.9507214 0.2876712 0.5424416     O
O     0.9507214 0.4575615 0.7123312     O
O     0.9507214 0.4575616 0.2876712     O
O     0.9507214 0.5424415 0.7123312     O
O     0.9507214 0.5424416 0.2876712     O
O     0.9507214 0.7123312 0.4575615     O
O     0.9507214 0.7123312 0.5424415     O
C      0.95332 0.1710418  0.43832     C
C      0.95332 0.1710418  0.56172     C
C      0.95332  0.43832 0.1710418     C
C      0.95332  0.43832 0.8289618     C
C      0.95332  0.56172 0.1710418     C
C      0.95332  0.56172 0.8289618     C
C      0.95332 0.8289618  0.43832     C
C      0.95332 0.8289618  0.56172     C
C     0.9563016 0.3099017  0.46342     C
C     0.9563016 0.3099017  0.53662     C
C     0.9563016  0.46342 0.3099017     C
C     0.9563016  0.46342 0.6901017     C
C     0.9563016  0.53662 0.3099017     C
C     0.9563016  0.53662 0.6901017     C
C     0.9563016 0.6901017  0.46342     C
C     0.9563016 0.6901017  0.53662     C
O     0.9575615 0.2123312 0.4507214     O
O     0.9575615 0.2123312 0.5492814     O
O     0.9575615 0.4507214 0.2123312     O
O     0.9575615 0.4507214 0.7876712     O
O     0.9575615 0.5492814 0.2123312     O
O     0.9575615 0.5492814 0.7876712     O
O     0.9575615 0.7876712 0.4507214     O
O     0.9575615 0.7876712 0.5492814     O
C      0.95834  0.14602  0.43794     C
C      0.95834  0.14602  0.56214     C
C      0.95834  0.43794  0.14602     C
C      0.95834  0.43794  0.85402     C
C      0.95834  0.56214  0.14602     C
C      0.95834  0.56214  0.85402     C
C      0.95834  0.85402  0.43794     C
C      0.95834  0.85402  0.56214     C
O     0.9622314 0.2246816      0.5     O
O     0.9622314      0.5 0.2246816     O
O     0.9622314      0.5 0.7753216     O
O     0.9622314 0.7753216      0.5     O
C      0.96342 0.1901017 0.4563016     C
C      0.96342 0.1901017 0.5437016     C
C      0.96342 0.4563016 0.1901017     C
C      0.96342 0.4563016 0.8099017     C
C      0.96342 0.5437016 0.1901017     C
C      0.96342 0.5437016 0.8099017     C
C      0.96342 0.8099017 0.4563016     C
C      0.96342 0.8099017 0.5437016     C
Hf    0.9670806     0.25 0.4670806    Hf
Hf    0.9670806     0.25 0.5329206    Hf
Hf    0.9670806 0.4670806     0.25    Hf
Hf    0.9670806 0.4670806     0.75    Hf
Hf    0.9670806 0.5329206     0.25    Hf
Hf    0.9670806 0.5329206     0.75    Hf
Hf    0.9670806     0.75 0.4670806    Hf
Hf    0.9670806     0.75 0.5329206    Hf
C      0.96838  0.27308  0.41377     C
C      0.96838  0.27308  0.58637     C
C      0.96838  0.41377  0.27308     C
C      0.96838  0.41377  0.72708     C
C      0.96838  0.58637  0.27308     C
C      0.96838  0.58637  0.72708     C
C      0.96838  0.72708  0.41377     C
C      0.96838  0.72708  0.58637     C
O      0.96882 0.2530815 0.4268815     O
O      0.96882 0.2530815 0.5731215     O
O      0.96882 0.4268815 0.2530815     O
O      0.96882 0.4268815 0.7469215     O
O      0.96882 0.5731215 0.2530815     O
O      0.96882 0.5731215 0.7469215     O
O      0.96882 0.7469215 0.4268815     O
O      0.96882 0.7469215 0.5731215     O
H       0.9689   0.1381   0.4492     H
H       0.9689   0.1381   0.5508     H
H       0.9689   0.4492   0.1381     H
H       0.9689   0.4492   0.8619     H
H       0.9689   0.5508   0.1381     H
H       0.9689   0.5508   0.8619     H
H       0.9689   0.8619   0.4492     H
H       0.9689   0.8619   0.5508     H
O     0.9719413 0.2697113      0.5     O
O     0.9719413      0.5 0.2697113     O
O     0.9719413      0.5 0.7302913     O
O     0.9719413 0.7302913      0.5     O
O     0.974491 0.3173611 0.4756811     O
O     0.974491 0.3173611 0.5243211     O
O     0.974491 0.4756811 0.3173611     O
O     0.974491 0.4756811 0.6826411     O
O     0.974491 0.5243211 0.3173611     O
O     0.974491 0.5243211 0.6826411     O
O     0.974491 0.6826411 0.4756811     O
O     0.974491 0.6826411 0.5243211     O
O     0.9756811 0.1826411 0.474491     O
O     0.9756811 0.1826411 0.525511     O
O     0.9756811 0.474491 0.1826411     O
O     0.9756811 0.474491 0.8173611     O
O     0.9756811 0.525511 0.1826411     O
O     0.9756811 0.525511 0.8173611     O
O     0.9756811 0.8173611 0.474491     O
O     0.9756811 0.8173611 0.525511     O
C     0.9770917  0.10512  0.32742     C
C     0.9770917  0.10512  0.67262     C
C     0.9770917  0.32742  0.10512     C
C     0.9770917  0.32742  0.89492     C
C     0.9770917  0.67262  0.10512     C
C     0.9770917  0.67262  0.89492     C
C     0.9770917  0.89492  0.32742     C
C     0.9770917  0.89492  0.67262     C
H       0.9774   0.0855     0.36     H
H       0.9774   0.0855     0.64     H
H       0.9774     0.36   0.0855     H
H       0.9774     0.36   0.9145     H
H       0.9774     0.64   0.0855     H
H       0.9774     0.64   0.9145     H
H       0.9774   0.9145     0.36     H
H       0.9774   0.9145     0.64     H
O      0.98647  0.29059  0.41407     O
O      0.98647  0.29059  0.58607     O
O      0.98647  0.41407  0.29059     O
O      0.98647  0.41407  0.70959     O
O      0.98647  0.58607  0.29059     O
O      0.98647  0.58607  0.70959     O
O      0.98647  0.70959  0.41407     O
O      0.98647  0.70959  0.58607     O
C      0.98702  0.09304  0.34754     C
C      0.98702  0.09304  0.65254     C
C      0.98702  0.34754  0.09304     C
C      0.98702  0.34754  0.90704     C
C      0.98702  0.65254  0.09304     C
C      0.98702  0.65254  0.90704     C
C      0.98702  0.90704  0.34754     C
C      0.98702  0.90704  0.65254     C
