data_I
_chemical_name_common  '/home/zhangsd/repos/MofS-CGCNN/ML/data/WS24/clean_cifs/dut-67-h'
_cell_length_a 39.01050
_cell_length_b 39.01050
_cell_length_c 39.01050
_cell_angle_alpha 90.00000
_cell_angle_beta  90.00000
_cell_angle_gamma 90.00000
_space_group_name_H-M_alt      'P 1'


loop_
_space_group_symop_operation_xyz
  'x, y, z' 

loop_
_atom_site_label
_atom_site_fract_x
_atom_site_fract_y
_atom_site_fract_z
_atom_site_type_symbol
O          0.0  0.19644  0.23952     O
O          0.0  0.19644  0.76052     O
Hf         0.0 0.2054557 0.2945457    Hf
Hf         0.0 0.2054557 0.7054557    Hf
O          0.0  0.23952  0.19644     O
O          0.0  0.23952  0.80364     O
O          0.0  0.26052  0.30364     O
O          0.0  0.26052  0.69644     O
Hf         0.0 0.2945457 0.2054557    Hf
Hf         0.0 0.2945457 0.7945457    Hf
O          0.0  0.30364  0.26052     O
O          0.0  0.30364  0.73952     O
O          0.0  0.69644  0.26052     O
O          0.0  0.69644  0.73952     O
Hf         0.0 0.7054557 0.2054557    Hf
Hf         0.0 0.7054557 0.7945457    Hf
O          0.0  0.73952  0.30364     O
O          0.0  0.73952  0.69644     O
O          0.0  0.76052  0.19644     O
O          0.0  0.76052  0.80364     O
Hf         0.0 0.7945457 0.2945457    Hf
Hf         0.0 0.7945457 0.7054557    Hf
O          0.0  0.80364  0.23952     O
O          0.0  0.80364  0.76052     O
O     0.0340511 0.1606312 0.2911712     O
O     0.0340511 0.1606312 0.7088312     O
O     0.0340511 0.2088312 0.3393712     O
O     0.0340511 0.2088312 0.6606312     O
O     0.0340511 0.2911712 0.1606312     O
O     0.0340511 0.2911712 0.8393712     O
O     0.0340511 0.3393712 0.2088312     O
O     0.0340511 0.3393712 0.7911712     O
O     0.0340511 0.6606312 0.2088312     O
O     0.0340511 0.6606312 0.7911712     O
O     0.0340511 0.7088312 0.1606312     O
O     0.0340511 0.7088312 0.8393712     O
O     0.0340511 0.7911712 0.3393712     O
O     0.0340511 0.7911712 0.6606312     O
O     0.0340511 0.8393712 0.2911712     O
O     0.0340511 0.8393712 0.7088312     O
O      0.04274 0.1791316 0.1791316     O
O      0.04274 0.1791316 0.8208716     O
O      0.04274 0.3208716 0.3208716     O
O      0.04274 0.3208716 0.6791316     O
O      0.04274 0.6791316 0.3208716     O
O      0.04274 0.6791316 0.6791316     O
O      0.04274 0.8208716 0.1791316     O
O      0.04274 0.8208716 0.8208716     O
O      0.04424 0.2282217 0.2717817     O
O      0.04424 0.2282217 0.7282217     O
O      0.04424 0.2717817 0.2282217     O
O      0.04424 0.2717817 0.7717817     O
O      0.04424 0.7282217 0.2282217     O
O      0.04424 0.7282217 0.7717817     O
O      0.04424 0.7717817 0.2717817     O
O      0.04424 0.7717817 0.7282217     O
Hf    0.0451259 0.2182647 0.2182647    Hf
Hf    0.0451259 0.2182647 0.7817367    Hf
Hf    0.0451259 0.2817367 0.2817367    Hf
Hf    0.0451259 0.2817367 0.7182647    Hf
Hf    0.0451259 0.7182647 0.2817367    Hf
Hf    0.0451259 0.7182647 0.7182647    Hf
Hf    0.0451259 0.7817367 0.2182647    Hf
Hf    0.0451259 0.7817367 0.7817367    Hf
C     0.0572718 0.1534418  0.26962     C
C     0.0572718 0.1534418  0.73042     C
C     0.0572718  0.23042 0.3465618     C
C     0.0572718  0.23042 0.6534418     C
C     0.0572718  0.26962 0.1534418     C
C     0.0572718  0.26962 0.8465618     C
C     0.0572718 0.3465618  0.23042     C
C     0.0572718 0.3465618  0.76962     C
C     0.0572718 0.6534418  0.23042     C
C     0.0572718 0.6534418  0.76962     C
C     0.0572718  0.73042 0.1534418     C
C     0.0572718  0.73042 0.8465618     C
C     0.0572718  0.76962 0.3465618     C
C     0.0572718  0.76962 0.6534418     C
C     0.0572718 0.8465618  0.26962     C
C     0.0572718 0.8465618  0.73042     C
H       0.0611   0.1053   0.3236     H
H       0.0611   0.1053   0.6764     H
H       0.0611   0.1764   0.3947     H
H       0.0611   0.1764   0.6053     H
H       0.0611   0.3236   0.1053     H
H       0.0611   0.3236   0.8947     H
H       0.0611   0.3947   0.1764     H
H       0.0611   0.3947   0.8236     H
H       0.0611   0.6053   0.1764     H
H       0.0611   0.6053   0.8236     H
H       0.0611   0.6764   0.1053     H
H       0.0611   0.6764   0.8947     H
H       0.0611   0.8236   0.3947     H
H       0.0611   0.8236   0.6053     H
H       0.0611   0.8947   0.3236     H
H       0.0611   0.8947   0.6764     H
O     0.0642115 0.1692415 0.2423615     O
O     0.0642115 0.1692415 0.7576415     O
O     0.0642115 0.2423615 0.1692415     O
O     0.0642115 0.2423615 0.8307615     O
O     0.0642115 0.2576415 0.3307615     O
O     0.0642115 0.2576415 0.6692415     O
O     0.0642115 0.3307615 0.2576415     O
O     0.0642115 0.3307615 0.7423615     O
O     0.0642115 0.6692415 0.2576415     O
O     0.0642115 0.6692415 0.7423615     O
O     0.0642115 0.7423615 0.3307615     O
O     0.0642115 0.7423615 0.6692415     O
O     0.0642115 0.7576415 0.1692415     O
O     0.0642115 0.7576415 0.8307615     O
O     0.0642115 0.8307615 0.2423615     O
O     0.0642115 0.8307615 0.7576415     O
C      0.07734  0.10274  0.30624     C
C      0.07734  0.10274  0.69384     C
C      0.07734  0.19384  0.39734     C
C      0.07734  0.19384  0.60274     C
C      0.07734  0.30624  0.10274     C
C      0.07734  0.30624  0.89734     C
C      0.07734  0.39734  0.19384     C
C      0.07734  0.39734  0.80624     C
C      0.07734  0.60274  0.19384     C
C      0.07734  0.60274  0.80624     C
C      0.07734  0.69384  0.10274     C
C      0.07734  0.69384  0.89734     C
C      0.07734  0.80624  0.39734     C
C      0.07734  0.80624  0.60274     C
C      0.07734  0.89734  0.30624     C
C      0.07734  0.89734  0.69384     C
C      0.07892  0.12312  0.27822     C
C      0.07892  0.12312  0.72182     C
C      0.07892  0.22182  0.37692     C
C      0.07892  0.22182  0.62312     C
C      0.07892  0.27822  0.12312     C
C      0.07892  0.27822  0.87692     C
C      0.07892  0.37692  0.22182     C
C      0.07892  0.37692  0.77822     C
C      0.07892  0.62312  0.22182     C
C      0.07892  0.62312  0.77822     C
C      0.07892  0.72182  0.12312     C
C      0.07892  0.72182  0.87692     C
C      0.07892  0.77822  0.37692     C
C      0.07892  0.77822  0.62312     C
C      0.07892  0.87692  0.27822     C
C      0.07892  0.87692  0.72182     C
O      0.10052  0.22314  0.22314     O
O      0.10052  0.22314  0.77694     O
O      0.10052  0.27694  0.27694     O
O      0.10052  0.27694  0.72314     O
O      0.10052  0.72314  0.27694     O
O      0.10052  0.72314  0.72314     O
O      0.10052  0.77694  0.22314     O
O      0.10052  0.77694  0.77694     O
C      0.10274  0.07734  0.30624     C
C      0.10274  0.07734  0.69384     C
C      0.10274  0.19384  0.42274     C
C      0.10274  0.19384  0.57734     C
C      0.10274  0.30624  0.07734     C
C      0.10274  0.30624  0.92274     C
C      0.10274  0.42274  0.19384     C
C      0.10274  0.42274  0.80624     C
C      0.10274  0.57734  0.19384     C
C      0.10274  0.57734  0.80624     C
C      0.10274  0.69384  0.07734     C
C      0.10274  0.69384  0.92274     C
C      0.10274  0.80624  0.42274     C
C      0.10274  0.80624  0.57734     C
C      0.10274  0.92274  0.30624     C
C      0.10274  0.92274  0.69384     C
H       0.1053   0.0611   0.3236     H
H       0.1053   0.0611   0.6764     H
H       0.1053   0.1764   0.4389     H
H       0.1053   0.1764   0.5611     H
H       0.1053   0.3236   0.0611     H
H       0.1053   0.3236   0.9389     H
H       0.1053   0.4389   0.1764     H
H       0.1053   0.4389   0.8236     H
H       0.1053   0.5611   0.1764     H
H       0.1053   0.5611   0.8236     H
H       0.1053   0.6764   0.0611     H
H       0.1053   0.6764   0.9389     H
H       0.1053   0.8236   0.4389     H
H       0.1053   0.8236   0.5611     H
H       0.1053   0.9389   0.3236     H
H       0.1053   0.9389   0.6764     H
S     0.111377 0.111377 0.251129     S
S     0.111377 0.111377 0.748889     S
S     0.111377 0.248889 0.388637     S
S     0.111377 0.248889 0.611377     S
S     0.111377 0.251129 0.111377     S
S     0.111377 0.251129 0.888637     S
S     0.111377 0.388637 0.248889     S
S     0.111377 0.388637 0.751129     S
S     0.111377 0.611377 0.248889     S
S     0.111377 0.611377 0.751129     S
S     0.111377 0.748889 0.111377     S
S     0.111377 0.748889 0.888637     S
S     0.111377 0.751129 0.388637     S
S     0.111377 0.751129 0.611377     S
S     0.111377 0.888637 0.251129     S
S     0.111377 0.888637 0.748889     S
C      0.12312  0.07892  0.27822     C
C      0.12312  0.07892  0.72182     C
C      0.12312  0.22182  0.42112     C
C      0.12312  0.22182  0.57892     C
C      0.12312  0.27822  0.07892     C
C      0.12312  0.27822  0.92112     C
C      0.12312  0.42112  0.22182     C
C      0.12312  0.42112  0.77822     C
C      0.12312  0.57892  0.22182     C
C      0.12312  0.57892  0.77822     C
C      0.12312  0.72182  0.07892     C
C      0.12312  0.72182  0.92112     C
C      0.12312  0.77822  0.42112     C
C      0.12312  0.77822  0.57892     C
C      0.12312  0.92112  0.27822     C
C      0.12312  0.92112  0.72182     C
C     0.1534418 0.0572718  0.26962     C
C     0.1534418 0.0572718  0.73042     C
C     0.1534418  0.23042 0.4427318     C
C     0.1534418  0.23042 0.5572718     C
C     0.1534418  0.26962 0.0572718     C
C     0.1534418  0.26962 0.9427318     C
C     0.1534418 0.4427318  0.23042     C
C     0.1534418 0.4427318  0.76962     C
C     0.1534418 0.5572718  0.23042     C
C     0.1534418 0.5572718  0.76962     C
C     0.1534418  0.73042 0.0572718     C
C     0.1534418  0.73042 0.9427318     C
C     0.1534418  0.76962 0.4427318     C
C     0.1534418  0.76962 0.5572718     C
C     0.1534418 0.9427318  0.26962     C
C     0.1534418 0.9427318  0.73042     C
O     0.1606312 0.0340511 0.2911712     O
O     0.1606312 0.0340511 0.7088312     O
O     0.1606312 0.2088312 0.4659511     O
O     0.1606312 0.2088312 0.5340511     O
O     0.1606312 0.2911712 0.0340511     O
O     0.1606312 0.2911712 0.9659511     O
O     0.1606312 0.4659511 0.2088312     O
O     0.1606312 0.4659511 0.7911712     O
O     0.1606312 0.5340511 0.2088312     O
O     0.1606312 0.5340511 0.7911712     O
O     0.1606312 0.7088312 0.0340511     O
O     0.1606312 0.7088312 0.9659511     O
O     0.1606312 0.7911712 0.4659511     O
O     0.1606312 0.7911712 0.5340511     O
O     0.1606312 0.9659511 0.2911712     O
O     0.1606312 0.9659511 0.7088312     O
O     0.1692415 0.0642115 0.2423615     O
O     0.1692415 0.0642115 0.7576415     O
O     0.1692415 0.2423615 0.0642115     O
O     0.1692415 0.2423615 0.9357915     O
O     0.1692415 0.2576415 0.4357915     O
O     0.1692415 0.2576415 0.5642115     O
O     0.1692415 0.4357915 0.2576415     O
O     0.1692415 0.4357915 0.7423615     O
O     0.1692415 0.5642115 0.2576415     O
O     0.1692415 0.5642115 0.7423615     O
O     0.1692415 0.7423615 0.4357915     O
O     0.1692415 0.7423615 0.5642115     O
O     0.1692415 0.7576415 0.0642115     O
O     0.1692415 0.7576415 0.9357915     O
O     0.1692415 0.9357915 0.2423615     O
O     0.1692415 0.9357915 0.7576415     O
H       0.1764   0.0611   0.3947     H
H       0.1764   0.0611   0.6053     H
H       0.1764   0.1053   0.4389     H
H       0.1764   0.1053   0.5611     H
H       0.1764   0.3947   0.0611     H
H       0.1764   0.3947   0.9389     H
H       0.1764   0.4389   0.1053     H
H       0.1764   0.4389   0.8947     H
H       0.1764   0.5611   0.1053     H
H       0.1764   0.5611   0.8947     H
H       0.1764   0.6053   0.0611     H
H       0.1764   0.6053   0.9389     H
H       0.1764   0.8947   0.4389     H
H       0.1764   0.8947   0.5611     H
H       0.1764   0.9389   0.3947     H
H       0.1764   0.9389   0.6053     H
O     0.1791316  0.04274 0.1791316     O
O     0.1791316  0.04274 0.8208716     O
O     0.1791316 0.1791316  0.04274     O
O     0.1791316 0.1791316  0.95734     O
O     0.1791316 0.3208716  0.45734     O
O     0.1791316 0.3208716  0.54274     O
O     0.1791316  0.45734 0.3208716     O
O     0.1791316  0.45734 0.6791316     O
O     0.1791316  0.54274 0.3208716     O
O     0.1791316  0.54274 0.6791316     O
O     0.1791316 0.6791316  0.45734     O
O     0.1791316 0.6791316  0.54274     O
O     0.1791316 0.8208716  0.04274     O
O     0.1791316 0.8208716  0.95734     O
O     0.1791316  0.95734 0.1791316     O
O     0.1791316  0.95734 0.8208716     O
C      0.19384  0.07734  0.39734     C
C      0.19384  0.07734  0.60274     C
C      0.19384  0.10274  0.42274     C
C      0.19384  0.10274  0.57734     C
C      0.19384  0.39734  0.07734     C
C      0.19384  0.39734  0.92274     C
C      0.19384  0.42274  0.10274     C
C      0.19384  0.42274  0.89734     C
C      0.19384  0.57734  0.10274     C
C      0.19384  0.57734  0.89734     C
C      0.19384  0.60274  0.07734     C
C      0.19384  0.60274  0.92274     C
C      0.19384  0.89734  0.42274     C
C      0.19384  0.89734  0.57734     C
C      0.19384  0.92274  0.39734     C
C      0.19384  0.92274  0.60274     C
O      0.19644      0.0  0.23952     O
O      0.19644      0.0  0.76052     O
O      0.19644  0.23952      0.0     O
O      0.19644  0.26052      0.5     O
O      0.19644      0.5  0.26052     O
O      0.19644      0.5  0.73952     O
O      0.19644  0.73952      0.5     O
O      0.19644  0.76052      0.0     O
Hf    0.2054557      0.0 0.2945457    Hf
Hf    0.2054557      0.0 0.7054557    Hf
Hf    0.2054557 0.2054557      0.5    Hf
Hf    0.2054557 0.2945457      0.0    Hf
Hf    0.2054557      0.5 0.2054557    Hf
Hf    0.2054557      0.5 0.7945457    Hf
Hf    0.2054557 0.7054557      0.0    Hf
Hf    0.2054557 0.7945457      0.5    Hf
O     0.2088312 0.0340511 0.3393712     O
O     0.2088312 0.0340511 0.6606312     O
O     0.2088312 0.1606312 0.4659511     O
O     0.2088312 0.1606312 0.5340511     O
O     0.2088312 0.3393712 0.0340511     O
O     0.2088312 0.3393712 0.9659511     O
O     0.2088312 0.4659511 0.1606312     O
O     0.2088312 0.4659511 0.8393712     O
O     0.2088312 0.5340511 0.1606312     O
O     0.2088312 0.5340511 0.8393712     O
O     0.2088312 0.6606312 0.0340511     O
O     0.2088312 0.6606312 0.9659511     O
O     0.2088312 0.8393712 0.4659511     O
O     0.2088312 0.8393712 0.5340511     O
O     0.2088312 0.9659511 0.3393712     O
O     0.2088312 0.9659511 0.6606312     O
Hf    0.2182647 0.0451259 0.2182647    Hf
Hf    0.2182647 0.0451259 0.7817367    Hf
Hf    0.2182647 0.2182647 0.0451259    Hf
Hf    0.2182647 0.2182647 0.9548759    Hf
Hf    0.2182647 0.2817367 0.4548759    Hf
Hf    0.2182647 0.2817367 0.5451259    Hf
Hf    0.2182647 0.4548759 0.2817367    Hf
Hf    0.2182647 0.4548759 0.7182647    Hf
Hf    0.2182647 0.5451259 0.2817367    Hf
Hf    0.2182647 0.5451259 0.7182647    Hf
Hf    0.2182647 0.7182647 0.4548759    Hf
Hf    0.2182647 0.7182647 0.5451259    Hf
Hf    0.2182647 0.7817367 0.0451259    Hf
Hf    0.2182647 0.7817367 0.9548759    Hf
Hf    0.2182647 0.9548759 0.2182647    Hf
Hf    0.2182647 0.9548759 0.7817367    Hf
C      0.22182  0.07892  0.37692     C
C      0.22182  0.07892  0.62312     C
C      0.22182  0.12312  0.42112     C
C      0.22182  0.12312  0.57892     C
C      0.22182  0.37692  0.07892     C
C      0.22182  0.37692  0.92112     C
C      0.22182  0.42112  0.12312     C
C      0.22182  0.42112  0.87692     C
C      0.22182  0.57892  0.12312     C
C      0.22182  0.57892  0.87692     C
C      0.22182  0.62312  0.07892     C
C      0.22182  0.62312  0.92112     C
C      0.22182  0.87692  0.42112     C
C      0.22182  0.87692  0.57892     C
C      0.22182  0.92112  0.37692     C
C      0.22182  0.92112  0.62312     C
O      0.22314  0.10052  0.22314     O
O      0.22314  0.10052  0.77694     O
O      0.22314  0.22314  0.10052     O
O      0.22314  0.22314  0.89952     O
O      0.22314  0.27694  0.39952     O
O      0.22314  0.27694  0.60052     O
O      0.22314  0.39952  0.27694     O
O      0.22314  0.39952  0.72314     O
O      0.22314  0.60052  0.27694     O
O      0.22314  0.60052  0.72314     O
O      0.22314  0.72314  0.39952     O
O      0.22314  0.72314  0.60052     O
O      0.22314  0.77694  0.10052     O
O      0.22314  0.77694  0.89952     O
O      0.22314  0.89952  0.22314     O
O      0.22314  0.89952  0.77694     O
O     0.2282217  0.04424 0.2717817     O
O     0.2282217  0.04424 0.7282217     O
O     0.2282217 0.2282217  0.45584     O
O     0.2282217 0.2282217  0.54424     O
O     0.2282217 0.2717817  0.04424     O
O     0.2282217 0.2717817  0.95584     O
O     0.2282217  0.45584 0.2282217     O
O     0.2282217  0.45584 0.7717817     O
O     0.2282217  0.54424 0.2282217     O
O     0.2282217  0.54424 0.7717817     O
O     0.2282217 0.7282217  0.04424     O
O     0.2282217 0.7282217  0.95584     O
O     0.2282217 0.7717817  0.45584     O
O     0.2282217 0.7717817  0.54424     O
O     0.2282217  0.95584 0.2717817     O
O     0.2282217  0.95584 0.7282217     O
C      0.23042 0.0572718 0.3465618     C
C      0.23042 0.0572718 0.6534418     C
C      0.23042 0.1534418 0.4427318     C
C      0.23042 0.1534418 0.5572718     C
C      0.23042 0.3465618 0.0572718     C
C      0.23042 0.3465618 0.9427318     C
C      0.23042 0.4427318 0.1534418     C
C      0.23042 0.4427318 0.8465618     C
C      0.23042 0.5572718 0.1534418     C
C      0.23042 0.5572718 0.8465618     C
C      0.23042 0.6534418 0.0572718     C
C      0.23042 0.6534418 0.9427318     C
C      0.23042 0.8465618 0.4427318     C
C      0.23042 0.8465618 0.5572718     C
C      0.23042 0.9427318 0.3465618     C
C      0.23042 0.9427318 0.6534418     C
O      0.23952      0.0  0.19644     O
O      0.23952      0.0  0.80364     O
O      0.23952  0.19644      0.0     O
O      0.23952  0.30364      0.5     O
O      0.23952      0.5  0.30364     O
O      0.23952      0.5  0.69644     O
O      0.23952  0.69644      0.5     O
O      0.23952  0.80364      0.0     O
O     0.2423615 0.0642115 0.1692415     O
O     0.2423615 0.0642115 0.8307615     O
O     0.2423615 0.1692415 0.0642115     O
O     0.2423615 0.1692415 0.9357915     O
O     0.2423615 0.3307615 0.4357915     O
O     0.2423615 0.3307615 0.5642115     O
O     0.2423615 0.4357915 0.3307615     O
O     0.2423615 0.4357915 0.6692415     O
O     0.2423615 0.5642115 0.3307615     O
O     0.2423615 0.5642115 0.6692415     O
O     0.2423615 0.6692415 0.4357915     O
O     0.2423615 0.6692415 0.5642115     O
O     0.2423615 0.8307615 0.0642115     O
O     0.2423615 0.8307615 0.9357915     O
O     0.2423615 0.9357915 0.1692415     O
O     0.2423615 0.9357915 0.8307615     O
S     0.248889 0.111377 0.388637     S
S     0.248889 0.111377 0.611377     S
S     0.248889 0.388637 0.111377     S
S     0.248889 0.388637 0.888637     S
S     0.248889 0.611377 0.111377     S
S     0.248889 0.611377 0.888637     S
S     0.248889 0.888637 0.388637     S
S     0.248889 0.888637 0.611377     S
S     0.251129 0.111377 0.111377     S
S     0.251129 0.111377 0.888637     S
S     0.251129 0.388637 0.388637     S
S     0.251129 0.388637 0.611377     S
S     0.251129 0.611377 0.388637     S
S     0.251129 0.611377 0.611377     S
S     0.251129 0.888637 0.111377     S
S     0.251129 0.888637 0.888637     S
O     0.2576415 0.0642115 0.3307615     O
O     0.2576415 0.0642115 0.6692415     O
O     0.2576415 0.1692415 0.4357915     O
O     0.2576415 0.1692415 0.5642115     O
O     0.2576415 0.3307615 0.0642115     O
O     0.2576415 0.3307615 0.9357915     O
O     0.2576415 0.4357915 0.1692415     O
O     0.2576415 0.4357915 0.8307615     O
O     0.2576415 0.5642115 0.1692415     O
O     0.2576415 0.5642115 0.8307615     O
O     0.2576415 0.6692415 0.0642115     O
O     0.2576415 0.6692415 0.9357915     O
O     0.2576415 0.8307615 0.4357915     O
O     0.2576415 0.8307615 0.5642115     O
O     0.2576415 0.9357915 0.3307615     O
O     0.2576415 0.9357915 0.6692415     O
O      0.26052      0.0  0.30364     O
O      0.26052      0.0  0.69644     O
O      0.26052  0.19644      0.5     O
O      0.26052  0.30364      0.0     O
O      0.26052      0.5  0.19644     O
O      0.26052      0.5  0.80364     O
O      0.26052  0.69644      0.0     O
O      0.26052  0.80364      0.5     O
C      0.26962 0.0572718 0.1534418     C
C      0.26962 0.0572718 0.8465618     C
C      0.26962 0.1534418 0.0572718     C
C      0.26962 0.1534418 0.9427318     C
C      0.26962 0.3465618 0.4427318     C
C      0.26962 0.3465618 0.5572718     C
C      0.26962 0.4427318 0.3465618     C
C      0.26962 0.4427318 0.6534418     C
C      0.26962 0.5572718 0.3465618     C
C      0.26962 0.5572718 0.6534418     C
C      0.26962 0.6534418 0.4427318     C
C      0.26962 0.6534418 0.5572718     C
C      0.26962 0.8465618 0.0572718     C
C      0.26962 0.8465618 0.9427318     C
C      0.26962 0.9427318 0.1534418     C
C      0.26962 0.9427318 0.8465618     C
O     0.2717817  0.04424 0.2282217     O
O     0.2717817  0.04424 0.7717817     O
O     0.2717817 0.2282217  0.04424     O
O     0.2717817 0.2282217  0.95584     O
O     0.2717817 0.2717817  0.45584     O
O     0.2717817 0.2717817  0.54424     O
O     0.2717817  0.45584 0.2717817     O
O     0.2717817  0.45584 0.7282217     O
O     0.2717817  0.54424 0.2717817     O
O     0.2717817  0.54424 0.7282217     O
O     0.2717817 0.7282217  0.45584     O
O     0.2717817 0.7282217  0.54424     O
O     0.2717817 0.7717817  0.04424     O
O     0.2717817 0.7717817  0.95584     O
O     0.2717817  0.95584 0.2282217     O
O     0.2717817  0.95584 0.7717817     O
O      0.27694  0.10052  0.27694     O
O      0.27694  0.10052  0.72314     O
O      0.27694  0.22314  0.39952     O
O      0.27694  0.22314  0.60052     O
O      0.27694  0.27694  0.10052     O
O      0.27694  0.27694  0.89952     O
O      0.27694  0.39952  0.22314     O
O      0.27694  0.39952  0.77694     O
O      0.27694  0.60052  0.22314     O
O      0.27694  0.60052  0.77694     O
O      0.27694  0.72314  0.10052     O
O      0.27694  0.72314  0.89952     O
O      0.27694  0.77694  0.39952     O
O      0.27694  0.77694  0.60052     O
O      0.27694  0.89952  0.27694     O
O      0.27694  0.89952  0.72314     O
C      0.27822  0.07892  0.12312     C
C      0.27822  0.07892  0.87692     C
C      0.27822  0.12312  0.07892     C
C      0.27822  0.12312  0.92112     C
C      0.27822  0.37692  0.42112     C
C      0.27822  0.37692  0.57892     C
C      0.27822  0.42112  0.37692     C
C      0.27822  0.42112  0.62312     C
C      0.27822  0.57892  0.37692     C
C      0.27822  0.57892  0.62312     C
C      0.27822  0.62312  0.42112     C
C      0.27822  0.62312  0.57892     C
C      0.27822  0.87692  0.07892     C
C      0.27822  0.87692  0.92112     C
C      0.27822  0.92112  0.12312     C
C      0.27822  0.92112  0.87692     C
Hf    0.2817367 0.0451259 0.2817367    Hf
Hf    0.2817367 0.0451259 0.7182647    Hf
Hf    0.2817367 0.2182647 0.4548759    Hf
Hf    0.2817367 0.2182647 0.5451259    Hf
Hf    0.2817367 0.2817367 0.0451259    Hf
Hf    0.2817367 0.2817367 0.9548759    Hf
Hf    0.2817367 0.4548759 0.2182647    Hf
Hf    0.2817367 0.4548759 0.7817367    Hf
Hf    0.2817367 0.5451259 0.2182647    Hf
Hf    0.2817367 0.5451259 0.7817367    Hf
Hf    0.2817367 0.7182647 0.0451259    Hf
Hf    0.2817367 0.7182647 0.9548759    Hf
Hf    0.2817367 0.7817367 0.4548759    Hf
Hf    0.2817367 0.7817367 0.5451259    Hf
Hf    0.2817367 0.9548759 0.2817367    Hf
Hf    0.2817367 0.9548759 0.7182647    Hf
O     0.2911712 0.0340511 0.1606312     O
O     0.2911712 0.0340511 0.8393712     O
O     0.2911712 0.1606312 0.0340511     O
O     0.2911712 0.1606312 0.9659511     O
O     0.2911712 0.3393712 0.4659511     O
O     0.2911712 0.3393712 0.5340511     O
O     0.2911712 0.4659511 0.3393712     O
O     0.2911712 0.4659511 0.6606312     O
O     0.2911712 0.5340511 0.3393712     O
O     0.2911712 0.5340511 0.6606312     O
O     0.2911712 0.6606312 0.4659511     O
O     0.2911712 0.6606312 0.5340511     O
O     0.2911712 0.8393712 0.0340511     O
O     0.2911712 0.8393712 0.9659511     O
O     0.2911712 0.9659511 0.1606312     O
O     0.2911712 0.9659511 0.8393712     O
Hf    0.2945457      0.0 0.2054557    Hf
Hf    0.2945457      0.0 0.7945457    Hf
Hf    0.2945457 0.2054557      0.0    Hf
Hf    0.2945457 0.2945457      0.5    Hf
Hf    0.2945457      0.5 0.2945457    Hf
Hf    0.2945457      0.5 0.7054557    Hf
Hf    0.2945457 0.7054557      0.5    Hf
Hf    0.2945457 0.7945457      0.0    Hf
O      0.30364      0.0  0.26052     O
O      0.30364      0.0  0.73952     O
O      0.30364  0.23952      0.5     O
O      0.30364  0.26052      0.0     O
O      0.30364      0.5  0.23952     O
O      0.30364      0.5  0.76052     O
O      0.30364  0.73952      0.0     O
O      0.30364  0.76052      0.5     O
C      0.30624  0.07734  0.10274     C
C      0.30624  0.07734  0.89734     C
C      0.30624  0.10274  0.07734     C
C      0.30624  0.10274  0.92274     C
C      0.30624  0.39734  0.42274     C
C      0.30624  0.39734  0.57734     C
C      0.30624  0.42274  0.39734     C
C      0.30624  0.42274  0.60274     C
C      0.30624  0.57734  0.39734     C
C      0.30624  0.57734  0.60274     C
C      0.30624  0.60274  0.42274     C
C      0.30624  0.60274  0.57734     C
C      0.30624  0.89734  0.07734     C
C      0.30624  0.89734  0.92274     C
C      0.30624  0.92274  0.10274     C
C      0.30624  0.92274  0.89734     C
O     0.3208716  0.04274 0.3208716     O
O     0.3208716  0.04274 0.6791316     O
O     0.3208716 0.1791316  0.45734     O
O     0.3208716 0.1791316  0.54274     O
O     0.3208716 0.3208716  0.04274     O
O     0.3208716 0.3208716  0.95734     O
O     0.3208716  0.45734 0.1791316     O
O     0.3208716  0.45734 0.8208716     O
O     0.3208716  0.54274 0.1791316     O
O     0.3208716  0.54274 0.8208716     O
O     0.3208716 0.6791316  0.04274     O
O     0.3208716 0.6791316  0.95734     O
O     0.3208716 0.8208716  0.45734     O
O     0.3208716 0.8208716  0.54274     O
O     0.3208716  0.95734 0.3208716     O
O     0.3208716  0.95734 0.6791316     O
H       0.3236   0.0611   0.1053     H
H       0.3236   0.0611   0.8947     H
H       0.3236   0.1053   0.0611     H
H       0.3236   0.1053   0.9389     H
H       0.3236   0.3947   0.4389     H
H       0.3236   0.3947   0.5611     H
H       0.3236   0.4389   0.3947     H
H       0.3236   0.4389   0.6053     H
H       0.3236   0.5611   0.3947     H
H       0.3236   0.5611   0.6053     H
H       0.3236   0.6053   0.4389     H
H       0.3236   0.6053   0.5611     H
H       0.3236   0.8947   0.0611     H
H       0.3236   0.8947   0.9389     H
H       0.3236   0.9389   0.1053     H
H       0.3236   0.9389   0.8947     H
O     0.3307615 0.0642115 0.2576415     O
O     0.3307615 0.0642115 0.7423615     O
O     0.3307615 0.2423615 0.4357915     O
O     0.3307615 0.2423615 0.5642115     O
O     0.3307615 0.2576415 0.0642115     O
O     0.3307615 0.2576415 0.9357915     O
O     0.3307615 0.4357915 0.2423615     O
O     0.3307615 0.4357915 0.7576415     O
O     0.3307615 0.5642115 0.2423615     O
O     0.3307615 0.5642115 0.7576415     O
O     0.3307615 0.7423615 0.0642115     O
O     0.3307615 0.7423615 0.9357915     O
O     0.3307615 0.7576415 0.4357915     O
O     0.3307615 0.7576415 0.5642115     O
O     0.3307615 0.9357915 0.2576415     O
O     0.3307615 0.9357915 0.7423615     O
O     0.3393712 0.0340511 0.2088312     O
O     0.3393712 0.0340511 0.7911712     O
O     0.3393712 0.2088312 0.0340511     O
O     0.3393712 0.2088312 0.9659511     O
O     0.3393712 0.2911712 0.4659511     O
O     0.3393712 0.2911712 0.5340511     O
O     0.3393712 0.4659511 0.2911712     O
O     0.3393712 0.4659511 0.7088312     O
O     0.3393712 0.5340511 0.2911712     O
O     0.3393712 0.5340511 0.7088312     O
O     0.3393712 0.7088312 0.4659511     O
O     0.3393712 0.7088312 0.5340511     O
O     0.3393712 0.7911712 0.0340511     O
O     0.3393712 0.7911712 0.9659511     O
O     0.3393712 0.9659511 0.2088312     O
O     0.3393712 0.9659511 0.7911712     O
C     0.3465618 0.0572718  0.23042     C
C     0.3465618 0.0572718  0.76962     C
C     0.3465618  0.23042 0.0572718     C
C     0.3465618  0.23042 0.9427318     C
C     0.3465618  0.26962 0.4427318     C
C     0.3465618  0.26962 0.5572718     C
C     0.3465618 0.4427318  0.26962     C
C     0.3465618 0.4427318  0.73042     C
C     0.3465618 0.5572718  0.26962     C
C     0.3465618 0.5572718  0.73042     C
C     0.3465618  0.73042 0.4427318     C
C     0.3465618  0.73042 0.5572718     C
C     0.3465618  0.76962 0.0572718     C
C     0.3465618  0.76962 0.9427318     C
C     0.3465618 0.9427318  0.23042     C
C     0.3465618 0.9427318  0.76962     C
C      0.37692  0.07892  0.22182     C
C      0.37692  0.07892  0.77822     C
C      0.37692  0.22182  0.07892     C
C      0.37692  0.22182  0.92112     C
C      0.37692  0.27822  0.42112     C
C      0.37692  0.27822  0.57892     C
C      0.37692  0.42112  0.27822     C
C      0.37692  0.42112  0.72182     C
C      0.37692  0.57892  0.27822     C
C      0.37692  0.57892  0.72182     C
C      0.37692  0.72182  0.42112     C
C      0.37692  0.72182  0.57892     C
C      0.37692  0.77822  0.07892     C
C      0.37692  0.77822  0.92112     C
C      0.37692  0.92112  0.22182     C
C      0.37692  0.92112  0.77822     C
S     0.388637 0.111377 0.248889     S
S     0.388637 0.111377 0.751129     S
S     0.388637 0.248889 0.111377     S
S     0.388637 0.248889 0.888637     S
S     0.388637 0.251129 0.388637     S
S     0.388637 0.251129 0.611377     S
S     0.388637 0.388637 0.251129     S
S     0.388637 0.388637 0.748889     S
S     0.388637 0.611377 0.251129     S
S     0.388637 0.611377 0.748889     S
S     0.388637 0.748889 0.388637     S
S     0.388637 0.748889 0.611377     S
S     0.388637 0.751129 0.111377     S
S     0.388637 0.751129 0.888637     S
S     0.388637 0.888637 0.248889     S
S     0.388637 0.888637 0.751129     S
H       0.3947   0.0611   0.1764     H
H       0.3947   0.0611   0.8236     H
H       0.3947   0.1764   0.0611     H
H       0.3947   0.1764   0.9389     H
H       0.3947   0.3236   0.4389     H
H       0.3947   0.3236   0.5611     H
H       0.3947   0.4389   0.3236     H
H       0.3947   0.4389   0.6764     H
H       0.3947   0.5611   0.3236     H
H       0.3947   0.5611   0.6764     H
H       0.3947   0.6764   0.4389     H
H       0.3947   0.6764   0.5611     H
H       0.3947   0.8236   0.0611     H
H       0.3947   0.8236   0.9389     H
H       0.3947   0.9389   0.1764     H
H       0.3947   0.9389   0.8236     H
C      0.39734  0.07734  0.19384     C
C      0.39734  0.07734  0.80624     C
C      0.39734  0.19384  0.07734     C
C      0.39734  0.19384  0.92274     C
C      0.39734  0.30624  0.42274     C
C      0.39734  0.30624  0.57734     C
C      0.39734  0.42274  0.30624     C
C      0.39734  0.42274  0.69384     C
C      0.39734  0.57734  0.30624     C
C      0.39734  0.57734  0.69384     C
C      0.39734  0.69384  0.42274     C
C      0.39734  0.69384  0.57734     C
C      0.39734  0.80624  0.07734     C
C      0.39734  0.80624  0.92274     C
C      0.39734  0.92274  0.19384     C
C      0.39734  0.92274  0.80624     C
O      0.39952  0.22314  0.27694     O
O      0.39952  0.22314  0.72314     O
O      0.39952  0.27694  0.22314     O
O      0.39952  0.27694  0.77694     O
O      0.39952  0.72314  0.22314     O
O      0.39952  0.72314  0.77694     O
O      0.39952  0.77694  0.27694     O
O      0.39952  0.77694  0.72314     O
C      0.42112  0.12312  0.22182     C
C      0.42112  0.12312  0.77822     C
C      0.42112  0.22182  0.12312     C
C      0.42112  0.22182  0.87692     C
C      0.42112  0.27822  0.37692     C
C      0.42112  0.27822  0.62312     C
C      0.42112  0.37692  0.27822     C
C      0.42112  0.37692  0.72182     C
C      0.42112  0.62312  0.27822     C
C      0.42112  0.62312  0.72182     C
C      0.42112  0.72182  0.37692     C
C      0.42112  0.72182  0.62312     C
C      0.42112  0.77822  0.12312     C
C      0.42112  0.77822  0.87692     C
C      0.42112  0.87692  0.22182     C
C      0.42112  0.87692  0.77822     C
C      0.42274  0.10274  0.19384     C
C      0.42274  0.10274  0.80624     C
C      0.42274  0.19384  0.10274     C
C      0.42274  0.19384  0.89734     C
C      0.42274  0.30624  0.39734     C
C      0.42274  0.30624  0.60274     C
C      0.42274  0.39734  0.30624     C
C      0.42274  0.39734  0.69384     C
C      0.42274  0.60274  0.30624     C
C      0.42274  0.60274  0.69384     C
C      0.42274  0.69384  0.39734     C
C      0.42274  0.69384  0.60274     C
C      0.42274  0.80624  0.10274     C
C      0.42274  0.80624  0.89734     C
C      0.42274  0.89734  0.19384     C
C      0.42274  0.89734  0.80624     C
O     0.4357915 0.1692415 0.2576415     O
O     0.4357915 0.1692415 0.7423615     O
O     0.4357915 0.2423615 0.3307615     O
O     0.4357915 0.2423615 0.6692415     O
O     0.4357915 0.2576415 0.1692415     O
O     0.4357915 0.2576415 0.8307615     O
O     0.4357915 0.3307615 0.2423615     O
O     0.4357915 0.3307615 0.7576415     O
O     0.4357915 0.6692415 0.2423615     O
O     0.4357915 0.6692415 0.7576415     O
O     0.4357915 0.7423615 0.1692415     O
O     0.4357915 0.7423615 0.8307615     O
O     0.4357915 0.7576415 0.3307615     O
O     0.4357915 0.7576415 0.6692415     O
O     0.4357915 0.8307615 0.2576415     O
O     0.4357915 0.8307615 0.7423615     O
H       0.4389   0.1053   0.1764     H
H       0.4389   0.1053   0.8236     H
H       0.4389   0.1764   0.1053     H
H       0.4389   0.1764   0.8947     H
H       0.4389   0.3236   0.3947     H
H       0.4389   0.3236   0.6053     H
H       0.4389   0.3947   0.3236     H
H       0.4389   0.3947   0.6764     H
H       0.4389   0.6053   0.3236     H
H       0.4389   0.6053   0.6764     H
H       0.4389   0.6764   0.3947     H
H       0.4389   0.6764   0.6053     H
H       0.4389   0.8236   0.1053     H
H       0.4389   0.8236   0.8947     H
H       0.4389   0.8947   0.1764     H
H       0.4389   0.8947   0.8236     H
C     0.4427318 0.1534418  0.23042     C
C     0.4427318 0.1534418  0.76962     C
C     0.4427318  0.23042 0.1534418     C
C     0.4427318  0.23042 0.8465618     C
C     0.4427318  0.26962 0.3465618     C
C     0.4427318  0.26962 0.6534418     C
C     0.4427318 0.3465618  0.26962     C
C     0.4427318 0.3465618  0.73042     C
C     0.4427318 0.6534418  0.26962     C
C     0.4427318 0.6534418  0.73042     C
C     0.4427318  0.73042 0.3465618     C
C     0.4427318  0.73042 0.6534418     C
C     0.4427318  0.76962 0.1534418     C
C     0.4427318  0.76962 0.8465618     C
C     0.4427318 0.8465618  0.23042     C
C     0.4427318 0.8465618  0.76962     C
Hf    0.4548759 0.2182647 0.2817367    Hf
Hf    0.4548759 0.2182647 0.7182647    Hf
Hf    0.4548759 0.2817367 0.2182647    Hf
Hf    0.4548759 0.2817367 0.7817367    Hf
Hf    0.4548759 0.7182647 0.2182647    Hf
Hf    0.4548759 0.7182647 0.7817367    Hf
Hf    0.4548759 0.7817367 0.2817367    Hf
Hf    0.4548759 0.7817367 0.7182647    Hf
O      0.45584 0.2282217 0.2282217     O
O      0.45584 0.2282217 0.7717817     O
O      0.45584 0.2717817 0.2717817     O
O      0.45584 0.2717817 0.7282217     O
O      0.45584 0.7282217 0.2717817     O
O      0.45584 0.7282217 0.7282217     O
O      0.45584 0.7717817 0.2282217     O
O      0.45584 0.7717817 0.7717817     O
O      0.45734 0.1791316 0.3208716     O
O      0.45734 0.1791316 0.6791316     O
O      0.45734 0.3208716 0.1791316     O
O      0.45734 0.3208716 0.8208716     O
O      0.45734 0.6791316 0.1791316     O
O      0.45734 0.6791316 0.8208716     O
O      0.45734 0.8208716 0.3208716     O
O      0.45734 0.8208716 0.6791316     O
O     0.4659511 0.1606312 0.2088312     O
O     0.4659511 0.1606312 0.7911712     O
O     0.4659511 0.2088312 0.1606312     O
O     0.4659511 0.2088312 0.8393712     O
O     0.4659511 0.2911712 0.3393712     O
O     0.4659511 0.2911712 0.6606312     O
O     0.4659511 0.3393712 0.2911712     O
O     0.4659511 0.3393712 0.7088312     O
O     0.4659511 0.6606312 0.2911712     O
O     0.4659511 0.6606312 0.7088312     O
O     0.4659511 0.7088312 0.3393712     O
O     0.4659511 0.7088312 0.6606312     O
O     0.4659511 0.7911712 0.1606312     O
O     0.4659511 0.7911712 0.8393712     O
O     0.4659511 0.8393712 0.2088312     O
O     0.4659511 0.8393712 0.7911712     O
O          0.5  0.19644  0.26052     O
O          0.5  0.19644  0.73952     O
Hf         0.5 0.2054557 0.2054557    Hf
Hf         0.5 0.2054557 0.7945457    Hf
O          0.5  0.23952  0.30364     O
O          0.5  0.23952  0.69644     O
O          0.5  0.26052  0.19644     O
O          0.5  0.26052  0.80364     O
Hf         0.5 0.2945457 0.2945457    Hf
Hf         0.5 0.2945457 0.7054557    Hf
O          0.5  0.30364  0.23952     O
O          0.5  0.30364  0.76052     O
O          0.5  0.69644  0.23952     O
O          0.5  0.69644  0.76052     O
Hf         0.5 0.7054557 0.2945457    Hf
Hf         0.5 0.7054557 0.7054557    Hf
O          0.5  0.73952  0.19644     O
O          0.5  0.73952  0.80364     O
O          0.5  0.76052  0.30364     O
O          0.5  0.76052  0.69644     O
Hf         0.5 0.7945457 0.2054557    Hf
Hf         0.5 0.7945457 0.7945457    Hf
O          0.5  0.80364  0.26052     O
O          0.5  0.80364  0.73952     O
O     0.5340511 0.1606312 0.2088312     O
O     0.5340511 0.1606312 0.7911712     O
O     0.5340511 0.2088312 0.1606312     O
O     0.5340511 0.2088312 0.8393712     O
O     0.5340511 0.2911712 0.3393712     O
O     0.5340511 0.2911712 0.6606312     O
O     0.5340511 0.3393712 0.2911712     O
O     0.5340511 0.3393712 0.7088312     O
O     0.5340511 0.6606312 0.2911712     O
O     0.5340511 0.6606312 0.7088312     O
O     0.5340511 0.7088312 0.3393712     O
O     0.5340511 0.7088312 0.6606312     O
O     0.5340511 0.7911712 0.1606312     O
O     0.5340511 0.7911712 0.8393712     O
O     0.5340511 0.8393712 0.2088312     O
O     0.5340511 0.8393712 0.7911712     O
O      0.54274 0.1791316 0.3208716     O
O      0.54274 0.1791316 0.6791316     O
O      0.54274 0.3208716 0.1791316     O
O      0.54274 0.3208716 0.8208716     O
O      0.54274 0.6791316 0.1791316     O
O      0.54274 0.6791316 0.8208716     O
O      0.54274 0.8208716 0.3208716     O
O      0.54274 0.8208716 0.6791316     O
O      0.54424 0.2282217 0.2282217     O
O      0.54424 0.2282217 0.7717817     O
O      0.54424 0.2717817 0.2717817     O
O      0.54424 0.2717817 0.7282217     O
O      0.54424 0.7282217 0.2717817     O
O      0.54424 0.7282217 0.7282217     O
O      0.54424 0.7717817 0.2282217     O
O      0.54424 0.7717817 0.7717817     O
Hf    0.5451259 0.2182647 0.2817367    Hf
Hf    0.5451259 0.2182647 0.7182647    Hf
Hf    0.5451259 0.2817367 0.2182647    Hf
Hf    0.5451259 0.2817367 0.7817367    Hf
Hf    0.5451259 0.7182647 0.2182647    Hf
Hf    0.5451259 0.7182647 0.7817367    Hf
Hf    0.5451259 0.7817367 0.2817367    Hf
Hf    0.5451259 0.7817367 0.7182647    Hf
C     0.5572718 0.1534418  0.23042     C
C     0.5572718 0.1534418  0.76962     C
C     0.5572718  0.23042 0.1534418     C
C     0.5572718  0.23042 0.8465618     C
C     0.5572718  0.26962 0.3465618     C
C     0.5572718  0.26962 0.6534418     C
C     0.5572718 0.3465618  0.26962     C
C     0.5572718 0.3465618  0.73042     C
C     0.5572718 0.6534418  0.26962     C
C     0.5572718 0.6534418  0.73042     C
C     0.5572718  0.73042 0.3465618     C
C     0.5572718  0.73042 0.6534418     C
C     0.5572718  0.76962 0.1534418     C
C     0.5572718  0.76962 0.8465618     C
C     0.5572718 0.8465618  0.23042     C
C     0.5572718 0.8465618  0.76962     C
H       0.5611   0.1053   0.1764     H
H       0.5611   0.1053   0.8236     H
H       0.5611   0.1764   0.1053     H
H       0.5611   0.1764   0.8947     H
H       0.5611   0.3236   0.3947     H
H       0.5611   0.3236   0.6053     H
H       0.5611   0.3947   0.3236     H
H       0.5611   0.3947   0.6764     H
H       0.5611   0.6053   0.3236     H
H       0.5611   0.6053   0.6764     H
H       0.5611   0.6764   0.3947     H
H       0.5611   0.6764   0.6053     H
H       0.5611   0.8236   0.1053     H
H       0.5611   0.8236   0.8947     H
H       0.5611   0.8947   0.1764     H
H       0.5611   0.8947   0.8236     H
O     0.5642115 0.1692415 0.2576415     O
O     0.5642115 0.1692415 0.7423615     O
O     0.5642115 0.2423615 0.3307615     O
O     0.5642115 0.2423615 0.6692415     O
O     0.5642115 0.2576415 0.1692415     O
O     0.5642115 0.2576415 0.8307615     O
O     0.5642115 0.3307615 0.2423615     O
O     0.5642115 0.3307615 0.7576415     O
O     0.5642115 0.6692415 0.2423615     O
O     0.5642115 0.6692415 0.7576415     O
O     0.5642115 0.7423615 0.1692415     O
O     0.5642115 0.7423615 0.8307615     O
O     0.5642115 0.7576415 0.3307615     O
O     0.5642115 0.7576415 0.6692415     O
O     0.5642115 0.8307615 0.2576415     O
O     0.5642115 0.8307615 0.7423615     O
C      0.57734  0.10274  0.19384     C
C      0.57734  0.10274  0.80624     C
C      0.57734  0.19384  0.10274     C
C      0.57734  0.19384  0.89734     C
C      0.57734  0.30624  0.39734     C
C      0.57734  0.30624  0.60274     C
C      0.57734  0.39734  0.30624     C
C      0.57734  0.39734  0.69384     C
C      0.57734  0.60274  0.30624     C
C      0.57734  0.60274  0.69384     C
C      0.57734  0.69384  0.39734     C
C      0.57734  0.69384  0.60274     C
C      0.57734  0.80624  0.10274     C
C      0.57734  0.80624  0.89734     C
C      0.57734  0.89734  0.19384     C
C      0.57734  0.89734  0.80624     C
C      0.57892  0.12312  0.22182     C
C      0.57892  0.12312  0.77822     C
C      0.57892  0.22182  0.12312     C
C      0.57892  0.22182  0.87692     C
C      0.57892  0.27822  0.37692     C
C      0.57892  0.27822  0.62312     C
C      0.57892  0.37692  0.27822     C
C      0.57892  0.37692  0.72182     C
C      0.57892  0.62312  0.27822     C
C      0.57892  0.62312  0.72182     C
C      0.57892  0.72182  0.37692     C
C      0.57892  0.72182  0.62312     C
C      0.57892  0.77822  0.12312     C
C      0.57892  0.77822  0.87692     C
C      0.57892  0.87692  0.22182     C
C      0.57892  0.87692  0.77822     C
O      0.60052  0.22314  0.27694     O
O      0.60052  0.22314  0.72314     O
O      0.60052  0.27694  0.22314     O
O      0.60052  0.27694  0.77694     O
O      0.60052  0.72314  0.22314     O
O      0.60052  0.72314  0.77694     O
O      0.60052  0.77694  0.27694     O
O      0.60052  0.77694  0.72314     O
C      0.60274  0.07734  0.19384     C
C      0.60274  0.07734  0.80624     C
C      0.60274  0.19384  0.07734     C
C      0.60274  0.19384  0.92274     C
C      0.60274  0.30624  0.42274     C
C      0.60274  0.30624  0.57734     C
C      0.60274  0.42274  0.30624     C
C      0.60274  0.42274  0.69384     C
C      0.60274  0.57734  0.30624     C
C      0.60274  0.57734  0.69384     C
C      0.60274  0.69384  0.42274     C
C      0.60274  0.69384  0.57734     C
C      0.60274  0.80624  0.07734     C
C      0.60274  0.80624  0.92274     C
C      0.60274  0.92274  0.19384     C
C      0.60274  0.92274  0.80624     C
H       0.6053   0.0611   0.1764     H
H       0.6053   0.0611   0.8236     H
H       0.6053   0.1764   0.0611     H
H       0.6053   0.1764   0.9389     H
H       0.6053   0.3236   0.4389     H
H       0.6053   0.3236   0.5611     H
H       0.6053   0.4389   0.3236     H
H       0.6053   0.4389   0.6764     H
H       0.6053   0.5611   0.3236     H
H       0.6053   0.5611   0.6764     H
H       0.6053   0.6764   0.4389     H
H       0.6053   0.6764   0.5611     H
H       0.6053   0.8236   0.0611     H
H       0.6053   0.8236   0.9389     H
H       0.6053   0.9389   0.1764     H
H       0.6053   0.9389   0.8236     H
S     0.611377 0.111377 0.248889     S
S     0.611377 0.111377 0.751129     S
S     0.611377 0.248889 0.111377     S
S     0.611377 0.248889 0.888637     S
S     0.611377 0.251129 0.388637     S
S     0.611377 0.251129 0.611377     S
S     0.611377 0.388637 0.251129     S
S     0.611377 0.388637 0.748889     S
S     0.611377 0.611377 0.251129     S
S     0.611377 0.611377 0.748889     S
S     0.611377 0.748889 0.388637     S
S     0.611377 0.748889 0.611377     S
S     0.611377 0.751129 0.111377     S
S     0.611377 0.751129 0.888637     S
S     0.611377 0.888637 0.248889     S
S     0.611377 0.888637 0.751129     S
C      0.62312  0.07892  0.22182     C
C      0.62312  0.07892  0.77822     C
C      0.62312  0.22182  0.07892     C
C      0.62312  0.22182  0.92112     C
C      0.62312  0.27822  0.42112     C
C      0.62312  0.27822  0.57892     C
C      0.62312  0.42112  0.27822     C
C      0.62312  0.42112  0.72182     C
C      0.62312  0.57892  0.27822     C
C      0.62312  0.57892  0.72182     C
C      0.62312  0.72182  0.42112     C
C      0.62312  0.72182  0.57892     C
C      0.62312  0.77822  0.07892     C
C      0.62312  0.77822  0.92112     C
C      0.62312  0.92112  0.22182     C
C      0.62312  0.92112  0.77822     C
C     0.6534418 0.0572718  0.23042     C
C     0.6534418 0.0572718  0.76962     C
C     0.6534418  0.23042 0.0572718     C
C     0.6534418  0.23042 0.9427318     C
C     0.6534418  0.26962 0.4427318     C
C     0.6534418  0.26962 0.5572718     C
C     0.6534418 0.4427318  0.26962     C
C     0.6534418 0.4427318  0.73042     C
C     0.6534418 0.5572718  0.26962     C
C     0.6534418 0.5572718  0.73042     C
C     0.6534418  0.73042 0.4427318     C
C     0.6534418  0.73042 0.5572718     C
C     0.6534418  0.76962 0.0572718     C
C     0.6534418  0.76962 0.9427318     C
C     0.6534418 0.9427318  0.23042     C
C     0.6534418 0.9427318  0.76962     C
O     0.6606312 0.0340511 0.2088312     O
O     0.6606312 0.0340511 0.7911712     O
O     0.6606312 0.2088312 0.0340511     O
O     0.6606312 0.2088312 0.9659511     O
O     0.6606312 0.2911712 0.4659511     O
O     0.6606312 0.2911712 0.5340511     O
O     0.6606312 0.4659511 0.2911712     O
O     0.6606312 0.4659511 0.7088312     O
O     0.6606312 0.5340511 0.2911712     O
O     0.6606312 0.5340511 0.7088312     O
O     0.6606312 0.7088312 0.4659511     O
O     0.6606312 0.7088312 0.5340511     O
O     0.6606312 0.7911712 0.0340511     O
O     0.6606312 0.7911712 0.9659511     O
O     0.6606312 0.9659511 0.2088312     O
O     0.6606312 0.9659511 0.7911712     O
O     0.6692415 0.0642115 0.2576415     O
O     0.6692415 0.0642115 0.7423615     O
O     0.6692415 0.2423615 0.4357915     O
O     0.6692415 0.2423615 0.5642115     O
O     0.6692415 0.2576415 0.0642115     O
O     0.6692415 0.2576415 0.9357915     O
O     0.6692415 0.4357915 0.2423615     O
O     0.6692415 0.4357915 0.7576415     O
O     0.6692415 0.5642115 0.2423615     O
O     0.6692415 0.5642115 0.7576415     O
O     0.6692415 0.7423615 0.0642115     O
O     0.6692415 0.7423615 0.9357915     O
O     0.6692415 0.7576415 0.4357915     O
O     0.6692415 0.7576415 0.5642115     O
O     0.6692415 0.9357915 0.2576415     O
O     0.6692415 0.9357915 0.7423615     O
H       0.6764   0.0611   0.1053     H
H       0.6764   0.0611   0.8947     H
H       0.6764   0.1053   0.0611     H
H       0.6764   0.1053   0.9389     H
H       0.6764   0.3947   0.4389     H
H       0.6764   0.3947   0.5611     H
H       0.6764   0.4389   0.3947     H
H       0.6764   0.4389   0.6053     H
H       0.6764   0.5611   0.3947     H
H       0.6764   0.5611   0.6053     H
H       0.6764   0.6053   0.4389     H
H       0.6764   0.6053   0.5611     H
H       0.6764   0.8947   0.0611     H
H       0.6764   0.8947   0.9389     H
H       0.6764   0.9389   0.1053     H
H       0.6764   0.9389   0.8947     H
O     0.6791316  0.04274 0.3208716     O
O     0.6791316  0.04274 0.6791316     O
O     0.6791316 0.1791316  0.45734     O
O     0.6791316 0.1791316  0.54274     O
O     0.6791316 0.3208716  0.04274     O
O     0.6791316 0.3208716  0.95734     O
O     0.6791316  0.45734 0.1791316     O
O     0.6791316  0.45734 0.8208716     O
O     0.6791316  0.54274 0.1791316     O
O     0.6791316  0.54274 0.8208716     O
O     0.6791316 0.6791316  0.04274     O
O     0.6791316 0.6791316  0.95734     O
O     0.6791316 0.8208716  0.45734     O
O     0.6791316 0.8208716  0.54274     O
O     0.6791316  0.95734 0.3208716     O
O     0.6791316  0.95734 0.6791316     O
C      0.69384  0.07734  0.10274     C
C      0.69384  0.07734  0.89734     C
C      0.69384  0.10274  0.07734     C
C      0.69384  0.10274  0.92274     C
C      0.69384  0.39734  0.42274     C
C      0.69384  0.39734  0.57734     C
C      0.69384  0.42274  0.39734     C
C      0.69384  0.42274  0.60274     C
C      0.69384  0.57734  0.39734     C
C      0.69384  0.57734  0.60274     C
C      0.69384  0.60274  0.42274     C
C      0.69384  0.60274  0.57734     C
C      0.69384  0.89734  0.07734     C
C      0.69384  0.89734  0.92274     C
C      0.69384  0.92274  0.10274     C
C      0.69384  0.92274  0.89734     C
O      0.69644      0.0  0.26052     O
O      0.69644      0.0  0.73952     O
O      0.69644  0.23952      0.5     O
O      0.69644  0.26052      0.0     O
O      0.69644      0.5  0.23952     O
O      0.69644      0.5  0.76052     O
O      0.69644  0.73952      0.0     O
O      0.69644  0.76052      0.5     O
Hf    0.7054557      0.0 0.2054557    Hf
Hf    0.7054557      0.0 0.7945457    Hf
Hf    0.7054557 0.2054557      0.0    Hf
Hf    0.7054557 0.2945457      0.5    Hf
Hf    0.7054557      0.5 0.2945457    Hf
Hf    0.7054557      0.5 0.7054557    Hf
Hf    0.7054557 0.7054557      0.5    Hf
Hf    0.7054557 0.7945457      0.0    Hf
O     0.7088312 0.0340511 0.1606312     O
O     0.7088312 0.0340511 0.8393712     O
O     0.7088312 0.1606312 0.0340511     O
O     0.7088312 0.1606312 0.9659511     O
O     0.7088312 0.3393712 0.4659511     O
O     0.7088312 0.3393712 0.5340511     O
O     0.7088312 0.4659511 0.3393712     O
O     0.7088312 0.4659511 0.6606312     O
O     0.7088312 0.5340511 0.3393712     O
O     0.7088312 0.5340511 0.6606312     O
O     0.7088312 0.6606312 0.4659511     O
O     0.7088312 0.6606312 0.5340511     O
O     0.7088312 0.8393712 0.0340511     O
O     0.7088312 0.8393712 0.9659511     O
O     0.7088312 0.9659511 0.1606312     O
O     0.7088312 0.9659511 0.8393712     O
Hf    0.7182647 0.0451259 0.2817367    Hf
Hf    0.7182647 0.0451259 0.7182647    Hf
Hf    0.7182647 0.2182647 0.4548759    Hf
Hf    0.7182647 0.2182647 0.5451259    Hf
Hf    0.7182647 0.2817367 0.0451259    Hf
Hf    0.7182647 0.2817367 0.9548759    Hf
Hf    0.7182647 0.4548759 0.2182647    Hf
Hf    0.7182647 0.4548759 0.7817367    Hf
Hf    0.7182647 0.5451259 0.2182647    Hf
Hf    0.7182647 0.5451259 0.7817367    Hf
Hf    0.7182647 0.7182647 0.0451259    Hf
Hf    0.7182647 0.7182647 0.9548759    Hf
Hf    0.7182647 0.7817367 0.4548759    Hf
Hf    0.7182647 0.7817367 0.5451259    Hf
Hf    0.7182647 0.9548759 0.2817367    Hf
Hf    0.7182647 0.9548759 0.7182647    Hf
C      0.72182  0.07892  0.12312     C
C      0.72182  0.07892  0.87692     C
C      0.72182  0.12312  0.07892     C
C      0.72182  0.12312  0.92112     C
C      0.72182  0.37692  0.42112     C
C      0.72182  0.37692  0.57892     C
C      0.72182  0.42112  0.37692     C
C      0.72182  0.42112  0.62312     C
C      0.72182  0.57892  0.37692     C
C      0.72182  0.57892  0.62312     C
C      0.72182  0.62312  0.42112     C
C      0.72182  0.62312  0.57892     C
C      0.72182  0.87692  0.07892     C
C      0.72182  0.87692  0.92112     C
C      0.72182  0.92112  0.12312     C
C      0.72182  0.92112  0.87692     C
O      0.72314  0.10052  0.27694     O
O      0.72314  0.10052  0.72314     O
O      0.72314  0.22314  0.39952     O
O      0.72314  0.22314  0.60052     O
O      0.72314  0.27694  0.10052     O
O      0.72314  0.27694  0.89952     O
O      0.72314  0.39952  0.22314     O
O      0.72314  0.39952  0.77694     O
O      0.72314  0.60052  0.22314     O
O      0.72314  0.60052  0.77694     O
O      0.72314  0.72314  0.10052     O
O      0.72314  0.72314  0.89952     O
O      0.72314  0.77694  0.39952     O
O      0.72314  0.77694  0.60052     O
O      0.72314  0.89952  0.27694     O
O      0.72314  0.89952  0.72314     O
O     0.7282217  0.04424 0.2282217     O
O     0.7282217  0.04424 0.7717817     O
O     0.7282217 0.2282217  0.04424     O
O     0.7282217 0.2282217  0.95584     O
O     0.7282217 0.2717817  0.45584     O
O     0.7282217 0.2717817  0.54424     O
O     0.7282217  0.45584 0.2717817     O
O     0.7282217  0.45584 0.7282217     O
O     0.7282217  0.54424 0.2717817     O
O     0.7282217  0.54424 0.7282217     O
O     0.7282217 0.7282217  0.45584     O
O     0.7282217 0.7282217  0.54424     O
O     0.7282217 0.7717817  0.04424     O
O     0.7282217 0.7717817  0.95584     O
O     0.7282217  0.95584 0.2282217     O
O     0.7282217  0.95584 0.7717817     O
C      0.73042 0.0572718 0.1534418     C
C      0.73042 0.0572718 0.8465618     C
C      0.73042 0.1534418 0.0572718     C
C      0.73042 0.1534418 0.9427318     C
C      0.73042 0.3465618 0.4427318     C
C      0.73042 0.3465618 0.5572718     C
C      0.73042 0.4427318 0.3465618     C
C      0.73042 0.4427318 0.6534418     C
C      0.73042 0.5572718 0.3465618     C
C      0.73042 0.5572718 0.6534418     C
C      0.73042 0.6534418 0.4427318     C
C      0.73042 0.6534418 0.5572718     C
C      0.73042 0.8465618 0.0572718     C
C      0.73042 0.8465618 0.9427318     C
C      0.73042 0.9427318 0.1534418     C
C      0.73042 0.9427318 0.8465618     C
O      0.73952      0.0  0.30364     O
O      0.73952      0.0  0.69644     O
O      0.73952  0.19644      0.5     O
O      0.73952  0.30364      0.0     O
O      0.73952      0.5  0.19644     O
O      0.73952      0.5  0.80364     O
O      0.73952  0.69644      0.0     O
O      0.73952  0.80364      0.5     O
O     0.7423615 0.0642115 0.3307615     O
O     0.7423615 0.0642115 0.6692415     O
O     0.7423615 0.1692415 0.4357915     O
O     0.7423615 0.1692415 0.5642115     O
O     0.7423615 0.3307615 0.0642115     O
O     0.7423615 0.3307615 0.9357915     O
O     0.7423615 0.4357915 0.1692415     O
O     0.7423615 0.4357915 0.8307615     O
O     0.7423615 0.5642115 0.1692415     O
O     0.7423615 0.5642115 0.8307615     O
O     0.7423615 0.6692415 0.0642115     O
O     0.7423615 0.6692415 0.9357915     O
O     0.7423615 0.8307615 0.4357915     O
O     0.7423615 0.8307615 0.5642115     O
O     0.7423615 0.9357915 0.3307615     O
O     0.7423615 0.9357915 0.6692415     O
S     0.748889 0.111377 0.111377     S
S     0.748889 0.111377 0.888637     S
S     0.748889 0.388637 0.388637     S
S     0.748889 0.388637 0.611377     S
S     0.748889 0.611377 0.388637     S
S     0.748889 0.611377 0.611377     S
S     0.748889 0.888637 0.111377     S
S     0.748889 0.888637 0.888637     S
S     0.751129 0.111377 0.388637     S
S     0.751129 0.111377 0.611377     S
S     0.751129 0.388637 0.111377     S
S     0.751129 0.388637 0.888637     S
S     0.751129 0.611377 0.111377     S
S     0.751129 0.611377 0.888637     S
S     0.751129 0.888637 0.388637     S
S     0.751129 0.888637 0.611377     S
O     0.7576415 0.0642115 0.1692415     O
O     0.7576415 0.0642115 0.8307615     O
O     0.7576415 0.1692415 0.0642115     O
O     0.7576415 0.1692415 0.9357915     O
O     0.7576415 0.3307615 0.4357915     O
O     0.7576415 0.3307615 0.5642115     O
O     0.7576415 0.4357915 0.3307615     O
O     0.7576415 0.4357915 0.6692415     O
O     0.7576415 0.5642115 0.3307615     O
O     0.7576415 0.5642115 0.6692415     O
O     0.7576415 0.6692415 0.4357915     O
O     0.7576415 0.6692415 0.5642115     O
O     0.7576415 0.8307615 0.0642115     O
O     0.7576415 0.8307615 0.9357915     O
O     0.7576415 0.9357915 0.1692415     O
O     0.7576415 0.9357915 0.8307615     O
O      0.76052      0.0  0.19644     O
O      0.76052      0.0  0.80364     O
O      0.76052  0.19644      0.0     O
O      0.76052  0.30364      0.5     O
O      0.76052      0.5  0.30364     O
O      0.76052      0.5  0.69644     O
O      0.76052  0.69644      0.5     O
O      0.76052  0.80364      0.0     O
C      0.76962 0.0572718 0.3465618     C
C      0.76962 0.0572718 0.6534418     C
C      0.76962 0.1534418 0.4427318     C
C      0.76962 0.1534418 0.5572718     C
C      0.76962 0.3465618 0.0572718     C
C      0.76962 0.3465618 0.9427318     C
C      0.76962 0.4427318 0.1534418     C
C      0.76962 0.4427318 0.8465618     C
C      0.76962 0.5572718 0.1534418     C
C      0.76962 0.5572718 0.8465618     C
C      0.76962 0.6534418 0.0572718     C
C      0.76962 0.6534418 0.9427318     C
C      0.76962 0.8465618 0.4427318     C
C      0.76962 0.8465618 0.5572718     C
C      0.76962 0.9427318 0.3465618     C
C      0.76962 0.9427318 0.6534418     C
O     0.7717817  0.04424 0.2717817     O
O     0.7717817  0.04424 0.7282217     O
O     0.7717817 0.2282217  0.45584     O
O     0.7717817 0.2282217  0.54424     O
O     0.7717817 0.2717817  0.04424     O
O     0.7717817 0.2717817  0.95584     O
O     0.7717817  0.45584 0.2282217     O
O     0.7717817  0.45584 0.7717817     O
O     0.7717817  0.54424 0.2282217     O
O     0.7717817  0.54424 0.7717817     O
O     0.7717817 0.7282217  0.04424     O
O     0.7717817 0.7282217  0.95584     O
O     0.7717817 0.7717817  0.45584     O
O     0.7717817 0.7717817  0.54424     O
O     0.7717817  0.95584 0.2717817     O
O     0.7717817  0.95584 0.7282217     O
O      0.77694  0.10052  0.22314     O
O      0.77694  0.10052  0.77694     O
O      0.77694  0.22314  0.10052     O
O      0.77694  0.22314  0.89952     O
O      0.77694  0.27694  0.39952     O
O      0.77694  0.27694  0.60052     O
O      0.77694  0.39952  0.27694     O
O      0.77694  0.39952  0.72314     O
O      0.77694  0.60052  0.27694     O
O      0.77694  0.60052  0.72314     O
O      0.77694  0.72314  0.39952     O
O      0.77694  0.72314  0.60052     O
O      0.77694  0.77694  0.10052     O
O      0.77694  0.77694  0.89952     O
O      0.77694  0.89952  0.22314     O
O      0.77694  0.89952  0.77694     O
C      0.77822  0.07892  0.37692     C
C      0.77822  0.07892  0.62312     C
C      0.77822  0.12312  0.42112     C
C      0.77822  0.12312  0.57892     C
C      0.77822  0.37692  0.07892     C
C      0.77822  0.37692  0.92112     C
C      0.77822  0.42112  0.12312     C
C      0.77822  0.42112  0.87692     C
C      0.77822  0.57892  0.12312     C
C      0.77822  0.57892  0.87692     C
C      0.77822  0.62312  0.07892     C
C      0.77822  0.62312  0.92112     C
C      0.77822  0.87692  0.42112     C
C      0.77822  0.87692  0.57892     C
C      0.77822  0.92112  0.37692     C
C      0.77822  0.92112  0.62312     C
Hf    0.7817367 0.0451259 0.2182647    Hf
Hf    0.7817367 0.0451259 0.7817367    Hf
Hf    0.7817367 0.2182647 0.0451259    Hf
Hf    0.7817367 0.2182647 0.9548759    Hf
Hf    0.7817367 0.2817367 0.4548759    Hf
Hf    0.7817367 0.2817367 0.5451259    Hf
Hf    0.7817367 0.4548759 0.2817367    Hf
Hf    0.7817367 0.4548759 0.7182647    Hf
Hf    0.7817367 0.5451259 0.2817367    Hf
Hf    0.7817367 0.5451259 0.7182647    Hf
Hf    0.7817367 0.7182647 0.4548759    Hf
Hf    0.7817367 0.7182647 0.5451259    Hf
Hf    0.7817367 0.7817367 0.0451259    Hf
Hf    0.7817367 0.7817367 0.9548759    Hf
Hf    0.7817367 0.9548759 0.2182647    Hf
Hf    0.7817367 0.9548759 0.7817367    Hf
O     0.7911712 0.0340511 0.3393712     O
O     0.7911712 0.0340511 0.6606312     O
O     0.7911712 0.1606312 0.4659511     O
O     0.7911712 0.1606312 0.5340511     O
O     0.7911712 0.3393712 0.0340511     O
O     0.7911712 0.3393712 0.9659511     O
O     0.7911712 0.4659511 0.1606312     O
O     0.7911712 0.4659511 0.8393712     O
O     0.7911712 0.5340511 0.1606312     O
O     0.7911712 0.5340511 0.8393712     O
O     0.7911712 0.6606312 0.0340511     O
O     0.7911712 0.6606312 0.9659511     O
O     0.7911712 0.8393712 0.4659511     O
O     0.7911712 0.8393712 0.5340511     O
O     0.7911712 0.9659511 0.3393712     O
O     0.7911712 0.9659511 0.6606312     O
Hf    0.7945457      0.0 0.2945457    Hf
Hf    0.7945457      0.0 0.7054557    Hf
Hf    0.7945457 0.2054557      0.5    Hf
Hf    0.7945457 0.2945457      0.0    Hf
Hf    0.7945457      0.5 0.2054557    Hf
Hf    0.7945457      0.5 0.7945457    Hf
Hf    0.7945457 0.7054557      0.0    Hf
Hf    0.7945457 0.7945457      0.5    Hf
O      0.80364      0.0  0.23952     O
O      0.80364      0.0  0.76052     O
O      0.80364  0.23952      0.0     O
O      0.80364  0.26052      0.5     O
O      0.80364      0.5  0.26052     O
O      0.80364      0.5  0.73952     O
O      0.80364  0.73952      0.5     O
O      0.80364  0.76052      0.0     O
C      0.80624  0.07734  0.39734     C
C      0.80624  0.07734  0.60274     C
C      0.80624  0.10274  0.42274     C
C      0.80624  0.10274  0.57734     C
C      0.80624  0.39734  0.07734     C
C      0.80624  0.39734  0.92274     C
C      0.80624  0.42274  0.10274     C
C      0.80624  0.42274  0.89734     C
C      0.80624  0.57734  0.10274     C
C      0.80624  0.57734  0.89734     C
C      0.80624  0.60274  0.07734     C
C      0.80624  0.60274  0.92274     C
C      0.80624  0.89734  0.42274     C
C      0.80624  0.89734  0.57734     C
C      0.80624  0.92274  0.39734     C
C      0.80624  0.92274  0.60274     C
O     0.8208716  0.04274 0.1791316     O
O     0.8208716  0.04274 0.8208716     O
O     0.8208716 0.1791316  0.04274     O
O     0.8208716 0.1791316  0.95734     O
O     0.8208716 0.3208716  0.45734     O
O     0.8208716 0.3208716  0.54274     O
O     0.8208716  0.45734 0.3208716     O
O     0.8208716  0.45734 0.6791316     O
O     0.8208716  0.54274 0.3208716     O
O     0.8208716  0.54274 0.6791316     O
O     0.8208716 0.6791316  0.45734     O
O     0.8208716 0.6791316  0.54274     O
O     0.8208716 0.8208716  0.04274     O
O     0.8208716 0.8208716  0.95734     O
O     0.8208716  0.95734 0.1791316     O
O     0.8208716  0.95734 0.8208716     O
H       0.8236   0.0611   0.3947     H
H       0.8236   0.0611   0.6053     H
H       0.8236   0.1053   0.4389     H
H       0.8236   0.1053   0.5611     H
H       0.8236   0.3947   0.0611     H
H       0.8236   0.3947   0.9389     H
H       0.8236   0.4389   0.1053     H
H       0.8236   0.4389   0.8947     H
H       0.8236   0.5611   0.1053     H
H       0.8236   0.5611   0.8947     H
H       0.8236   0.6053   0.0611     H
H       0.8236   0.6053   0.9389     H
H       0.8236   0.8947   0.4389     H
H       0.8236   0.8947   0.5611     H
H       0.8236   0.9389   0.3947     H
H       0.8236   0.9389   0.6053     H
O     0.8307615 0.0642115 0.2423615     O
O     0.8307615 0.0642115 0.7576415     O
O     0.8307615 0.2423615 0.0642115     O
O     0.8307615 0.2423615 0.9357915     O
O     0.8307615 0.2576415 0.4357915     O
O     0.8307615 0.2576415 0.5642115     O
O     0.8307615 0.4357915 0.2576415     O
O     0.8307615 0.4357915 0.7423615     O
O     0.8307615 0.5642115 0.2576415     O
O     0.8307615 0.5642115 0.7423615     O
O     0.8307615 0.7423615 0.4357915     O
O     0.8307615 0.7423615 0.5642115     O
O     0.8307615 0.7576415 0.0642115     O
O     0.8307615 0.7576415 0.9357915     O
O     0.8307615 0.9357915 0.2423615     O
O     0.8307615 0.9357915 0.7576415     O
O     0.8393712 0.0340511 0.2911712     O
O     0.8393712 0.0340511 0.7088312     O
O     0.8393712 0.2088312 0.4659511     O
O     0.8393712 0.2088312 0.5340511     O
O     0.8393712 0.2911712 0.0340511     O
O     0.8393712 0.2911712 0.9659511     O
O     0.8393712 0.4659511 0.2088312     O
O     0.8393712 0.4659511 0.7911712     O
O     0.8393712 0.5340511 0.2088312     O
O     0.8393712 0.5340511 0.7911712     O
O     0.8393712 0.7088312 0.0340511     O
O     0.8393712 0.7088312 0.9659511     O
O     0.8393712 0.7911712 0.4659511     O
O     0.8393712 0.7911712 0.5340511     O
O     0.8393712 0.9659511 0.2911712     O
O     0.8393712 0.9659511 0.7088312     O
C     0.8465618 0.0572718  0.26962     C
C     0.8465618 0.0572718  0.73042     C
C     0.8465618  0.23042 0.4427318     C
C     0.8465618  0.23042 0.5572718     C
C     0.8465618  0.26962 0.0572718     C
C     0.8465618  0.26962 0.9427318     C
C     0.8465618 0.4427318  0.23042     C
C     0.8465618 0.4427318  0.76962     C
C     0.8465618 0.5572718  0.23042     C
C     0.8465618 0.5572718  0.76962     C
C     0.8465618  0.73042 0.0572718     C
C     0.8465618  0.73042 0.9427318     C
C     0.8465618  0.76962 0.4427318     C
C     0.8465618  0.76962 0.5572718     C
C     0.8465618 0.9427318  0.26962     C
C     0.8465618 0.9427318  0.73042     C
C      0.87692  0.07892  0.27822     C
C      0.87692  0.07892  0.72182     C
C      0.87692  0.22182  0.42112     C
C      0.87692  0.22182  0.57892     C
C      0.87692  0.27822  0.07892     C
C      0.87692  0.27822  0.92112     C
C      0.87692  0.42112  0.22182     C
C      0.87692  0.42112  0.77822     C
C      0.87692  0.57892  0.22182     C
C      0.87692  0.57892  0.77822     C
C      0.87692  0.72182  0.07892     C
C      0.87692  0.72182  0.92112     C
C      0.87692  0.77822  0.42112     C
C      0.87692  0.77822  0.57892     C
C      0.87692  0.92112  0.27822     C
C      0.87692  0.92112  0.72182     C
S     0.888637 0.111377 0.251129     S
S     0.888637 0.111377 0.748889     S
S     0.888637 0.248889 0.388637     S
S     0.888637 0.248889 0.611377     S
S     0.888637 0.251129 0.111377     S
S     0.888637 0.251129 0.888637     S
S     0.888637 0.388637 0.248889     S
S     0.888637 0.388637 0.751129     S
S     0.888637 0.611377 0.248889     S
S     0.888637 0.611377 0.751129     S
S     0.888637 0.748889 0.111377     S
S     0.888637 0.748889 0.888637     S
S     0.888637 0.751129 0.388637     S
S     0.888637 0.751129 0.611377     S
S     0.888637 0.888637 0.251129     S
S     0.888637 0.888637 0.748889     S
H       0.8947   0.0611   0.3236     H
H       0.8947   0.0611   0.6764     H
H       0.8947   0.1764   0.4389     H
H       0.8947   0.1764   0.5611     H
H       0.8947   0.3236   0.0611     H
H       0.8947   0.3236   0.9389     H
H       0.8947   0.4389   0.1764     H
H       0.8947   0.4389   0.8236     H
H       0.8947   0.5611   0.1764     H
H       0.8947   0.5611   0.8236     H
H       0.8947   0.6764   0.0611     H
H       0.8947   0.6764   0.9389     H
H       0.8947   0.8236   0.4389     H
H       0.8947   0.8236   0.5611     H
H       0.8947   0.9389   0.3236     H
H       0.8947   0.9389   0.6764     H
C      0.89734  0.07734  0.30624     C
C      0.89734  0.07734  0.69384     C
C      0.89734  0.19384  0.42274     C
C      0.89734  0.19384  0.57734     C
C      0.89734  0.30624  0.07734     C
C      0.89734  0.30624  0.92274     C
C      0.89734  0.42274  0.19384     C
C      0.89734  0.42274  0.80624     C
C      0.89734  0.57734  0.19384     C
C      0.89734  0.57734  0.80624     C
C      0.89734  0.69384  0.07734     C
C      0.89734  0.69384  0.92274     C
C      0.89734  0.80624  0.42274     C
C      0.89734  0.80624  0.57734     C
C      0.89734  0.92274  0.30624     C
C      0.89734  0.92274  0.69384     C
O      0.89952  0.22314  0.22314     O
O      0.89952  0.22314  0.77694     O
O      0.89952  0.27694  0.27694     O
O      0.89952  0.27694  0.72314     O
O      0.89952  0.72314  0.27694     O
O      0.89952  0.72314  0.72314     O
O      0.89952  0.77694  0.22314     O
O      0.89952  0.77694  0.77694     O
C      0.92112  0.12312  0.27822     C
C      0.92112  0.12312  0.72182     C
C      0.92112  0.22182  0.37692     C
C      0.92112  0.22182  0.62312     C
C      0.92112  0.27822  0.12312     C
C      0.92112  0.27822  0.87692     C
C      0.92112  0.37692  0.22182     C
C      0.92112  0.37692  0.77822     C
C      0.92112  0.62312  0.22182     C
C      0.92112  0.62312  0.77822     C
C      0.92112  0.72182  0.12312     C
C      0.92112  0.72182  0.87692     C
C      0.92112  0.77822  0.37692     C
C      0.92112  0.77822  0.62312     C
C      0.92112  0.87692  0.27822     C
C      0.92112  0.87692  0.72182     C
C      0.92274  0.10274  0.30624     C
C      0.92274  0.10274  0.69384     C
C      0.92274  0.19384  0.39734     C
C      0.92274  0.19384  0.60274     C
C      0.92274  0.30624  0.10274     C
C      0.92274  0.30624  0.89734     C
C      0.92274  0.39734  0.19384     C
C      0.92274  0.39734  0.80624     C
C      0.92274  0.60274  0.19384     C
C      0.92274  0.60274  0.80624     C
C      0.92274  0.69384  0.10274     C
C      0.92274  0.69384  0.89734     C
C      0.92274  0.80624  0.39734     C
C      0.92274  0.80624  0.60274     C
C      0.92274  0.89734  0.30624     C
C      0.92274  0.89734  0.69384     C
O     0.9357915 0.1692415 0.2423615     O
O     0.9357915 0.1692415 0.7576415     O
O     0.9357915 0.2423615 0.1692415     O
O     0.9357915 0.2423615 0.8307615     O
O     0.9357915 0.2576415 0.3307615     O
O     0.9357915 0.2576415 0.6692415     O
O     0.9357915 0.3307615 0.2576415     O
O     0.9357915 0.3307615 0.7423615     O
O     0.9357915 0.6692415 0.2576415     O
O     0.9357915 0.6692415 0.7423615     O
O     0.9357915 0.7423615 0.3307615     O
O     0.9357915 0.7423615 0.6692415     O
O     0.9357915 0.7576415 0.1692415     O
O     0.9357915 0.7576415 0.8307615     O
O     0.9357915 0.8307615 0.2423615     O
O     0.9357915 0.8307615 0.7576415     O
H       0.9389   0.1053   0.3236     H
H       0.9389   0.1053   0.6764     H
H       0.9389   0.1764   0.3947     H
H       0.9389   0.1764   0.6053     H
H       0.9389   0.3236   0.1053     H
H       0.9389   0.3236   0.8947     H
H       0.9389   0.3947   0.1764     H
H       0.9389   0.3947   0.8236     H
H       0.9389   0.6053   0.1764     H
H       0.9389   0.6053   0.8236     H
H       0.9389   0.6764   0.1053     H
H       0.9389   0.6764   0.8947     H
H       0.9389   0.8236   0.3947     H
H       0.9389   0.8236   0.6053     H
H       0.9389   0.8947   0.3236     H
H       0.9389   0.8947   0.6764     H
C     0.9427318 0.1534418  0.26962     C
C     0.9427318 0.1534418  0.73042     C
C     0.9427318  0.23042 0.3465618     C
C     0.9427318  0.23042 0.6534418     C
C     0.9427318  0.26962 0.1534418     C
C     0.9427318  0.26962 0.8465618     C
C     0.9427318 0.3465618  0.23042     C
C     0.9427318 0.3465618  0.76962     C
C     0.9427318 0.6534418  0.23042     C
C     0.9427318 0.6534418  0.76962     C
C     0.9427318  0.73042 0.1534418     C
C     0.9427318  0.73042 0.8465618     C
C     0.9427318  0.76962 0.3465618     C
C     0.9427318  0.76962 0.6534418     C
C     0.9427318 0.8465618  0.26962     C
C     0.9427318 0.8465618  0.73042     C
Hf    0.9548759 0.2182647 0.2182647    Hf
Hf    0.9548759 0.2182647 0.7817367    Hf
Hf    0.9548759 0.2817367 0.2817367    Hf
Hf    0.9548759 0.2817367 0.7182647    Hf
Hf    0.9548759 0.7182647 0.2817367    Hf
Hf    0.9548759 0.7182647 0.7182647    Hf
Hf    0.9548759 0.7817367 0.2182647    Hf
Hf    0.9548759 0.7817367 0.7817367    Hf
O      0.95584 0.2282217 0.2717817     O
O      0.95584 0.2282217 0.7282217     O
O      0.95584 0.2717817 0.2282217     O
O      0.95584 0.2717817 0.7717817     O
O      0.95584 0.7282217 0.2282217     O
O      0.95584 0.7282217 0.7717817     O
O      0.95584 0.7717817 0.2717817     O
O      0.95584 0.7717817 0.7282217     O
O      0.95734 0.1791316 0.1791316     O
O      0.95734 0.1791316 0.8208716     O
O      0.95734 0.3208716 0.3208716     O
O      0.95734 0.3208716 0.6791316     O
O      0.95734 0.6791316 0.3208716     O
O      0.95734 0.6791316 0.6791316     O
O      0.95734 0.8208716 0.1791316     O
O      0.95734 0.8208716 0.8208716     O
O     0.9659511 0.1606312 0.2911712     O
O     0.9659511 0.1606312 0.7088312     O
O     0.9659511 0.2088312 0.3393712     O
O     0.9659511 0.2088312 0.6606312     O
O     0.9659511 0.2911712 0.1606312     O
O     0.9659511 0.2911712 0.8393712     O
O     0.9659511 0.3393712 0.2088312     O
O     0.9659511 0.3393712 0.7911712     O
O     0.9659511 0.6606312 0.2088312     O
O     0.9659511 0.6606312 0.7911712     O
O     0.9659511 0.7088312 0.1606312     O
O     0.9659511 0.7088312 0.8393712     O
O     0.9659511 0.7911712 0.3393712     O
O     0.9659511 0.7911712 0.6606312     O
O     0.9659511 0.8393712 0.2911712     O
O     0.9659511 0.8393712 0.7088312     O
