data_I
_chemical_name_common  '/home/zhangsd/repos/MofS-CGCNN/ML/data/WS24/clean_cifs/EBITAL'
_cell_length_a  8.59830
_cell_length_b 13.15610
_cell_length_c 13.46000
_cell_angle_alpha 90.00000
_cell_angle_beta  92.47000
_cell_angle_gamma 90.00000
_space_group_name_H-M_alt      'P 1'


loop_
_space_group_symop_operation_xyz
  'x, y, z' 

loop_
_atom_site_label
_atom_site_fract_x
_atom_site_fract_y
_atom_site_fract_z
_atom_site_type_symbol
O       0.0243   0.0315  0.78112     O
O       0.0243   0.4685  0.28112     O
Be      0.1562   0.5046   0.7395    Be
Be      0.1562   0.9954   0.2395    Be
O       0.1711  0.09024  0.31845     O
O       0.1711  0.40976  0.81845     O
P      0.18789  0.04609  0.75117     P
P      0.18789  0.45391  0.25117     P
O       0.1985  0.12143  0.66729     O
O       0.1985  0.37857  0.16729     O
O       0.2253  0.02654  0.13365     O
O       0.2253  0.47346  0.63365     O
O        0.243  0.60485  0.78784     O
O        0.243  0.89515  0.28784     O
O       0.2639  0.55449   0.2295     O
O       0.2639  0.94551   0.7295     O
H        0.266     0.08    0.832     H
H        0.266     0.42    0.332     H
O       0.2749  0.20713  0.08997     O
O       0.2749  0.29287  0.58997     O
H        0.297    0.238    0.359     H
H        0.297    0.262    0.859     H
O       0.2974   0.1193  0.48664     O
O       0.2974   0.3807  0.98664     O
P      0.30853  0.13665  0.37579     P
P      0.30853  0.36335  0.87579     P
Be       0.323   0.1738   0.5954    Be
Be       0.323   0.3262   0.0954    Be
P      0.34087  0.10041  0.09261     P
P      0.34087  0.39959  0.59261     P
H         0.36    0.073     0.99     H
H         0.36    0.427     0.49     H
O       0.3637  0.73533  0.23529     O
O       0.3637  0.76467  0.73529     O
P      0.39576  0.65876  0.77167     P
P      0.39576  0.84124  0.27167     P
Be      0.4217   0.6196   0.2495    Be
Be      0.4217   0.8804   0.7495    Be
O       0.4631  0.09761  0.34086     O
O       0.4631  0.40239  0.84086     O
H        0.468   0.6222   0.6839     H
H        0.468   0.8778   0.1839     H
O       0.4972  0.65659  0.86668     O
O       0.4972  0.84341  0.36668     O
O       0.4983  0.59475  0.35743     O
O       0.4983  0.90525  0.85743     O
O       0.5017  0.09475  0.14257     O
O       0.5017  0.40525  0.64257     O
O       0.5028  0.15659  0.63332     O
O       0.5028  0.34341  0.13332     O
H        0.532   0.1222   0.8161     H
H        0.532   0.3778   0.3161     H
O       0.5369  0.59761  0.15914     O
O       0.5369  0.90239  0.65914     O
Be      0.5783   0.1196   0.2505    Be
Be      0.5783   0.3804   0.7505    Be
P      0.60424  0.15876  0.72833     P
P      0.60424  0.34124  0.22833     P
O       0.6363  0.23533  0.26471     O
O       0.6363  0.26467  0.76471     O
H         0.64    0.573     0.51     H
H         0.64    0.927     0.01     H
P      0.65913  0.60041  0.40739     P
P      0.65913  0.89959  0.90739     P
Be       0.677   0.6738   0.9046    Be
Be       0.677   0.8262   0.4046    Be
P      0.69147  0.63665  0.12421     P
P      0.69147  0.86335  0.62421     P
O       0.7026   0.6193  0.01336     O
O       0.7026   0.8807  0.51336     O
H        0.703    0.738    0.141     H
H        0.703    0.762    0.641     H
O       0.7251  0.70713  0.41003     O
O       0.7251  0.79287  0.91003     O
H        0.734     0.58    0.668     H
H        0.734     0.92    0.168     H
O       0.7361  0.05449   0.2705     O
O       0.7361  0.44551   0.7705     O
O        0.757  0.10485  0.71216     O
O        0.757  0.39515  0.21216     O
O       0.7747  0.52654  0.36635     O
O       0.7747  0.97346  0.86635     O
O       0.8015  0.62143  0.83271     O
O       0.8015  0.87857  0.33271     O
P      0.81211  0.54609  0.74883     P
P      0.81211  0.95391  0.24883     P
O       0.8289  0.59024  0.18155     O
O       0.8289  0.90976  0.68155     O
Be      0.8438   0.0046   0.7605    Be
Be      0.8438   0.4954   0.2605    Be
O       0.9757   0.5315  0.71888     O
O       0.9757   0.9685  0.21888     O
