data_I
_chemical_name_common  '/home/zhangsd/repos/MofS-CGCNN/ML/data/WS24/clean_cifs/ELEROE'
_cell_length_a 30.41280
_cell_length_b 30.41280
_cell_length_c 30.41280
_cell_angle_alpha 90.00000
_cell_angle_beta  90.00000
_cell_angle_gamma 90.00000
_space_group_name_H-M_alt      'P 1'


loop_
_space_group_symop_operation_xyz
  'x, y, z' 

loop_
_atom_site_label
_atom_site_fract_x
_atom_site_fract_y
_atom_site_fract_z
_atom_site_type_symbol
Cu         0.0  0.18366  0.18366    Cu
Cu         0.0  0.18366  0.81634    Cu
Cu         0.0  0.24516  0.24516    Cu
Cu         0.0  0.24516  0.75484    Cu
N          0.0    0.295    0.295     N
N          0.0    0.295    0.705     N
C          0.0   0.3402   0.3714     C
C          0.0   0.3402   0.6286     C
H          0.0   0.3573    0.389     H
H          0.0   0.3573    0.611     H
C          0.0   0.3714   0.3402     C
C          0.0   0.3714   0.6598     C
H          0.0    0.389   0.3573     H
H          0.0    0.389   0.6427     H
H          0.0    0.611   0.3573     H
H          0.0    0.611   0.6427     H
C          0.0   0.6286   0.3402     C
C          0.0   0.6286   0.6598     C
H          0.0   0.6427    0.389     H
H          0.0   0.6427    0.611     H
C          0.0   0.6598   0.3714     C
C          0.0   0.6598   0.6286     C
N          0.0    0.705    0.295     N
N          0.0    0.705    0.705     N
Cu         0.0  0.75484  0.24516    Cu
Cu         0.0  0.75484  0.75484    Cu
Cu         0.0  0.81634  0.18366    Cu
Cu         0.0  0.81634  0.81634    Cu
C        0.037   0.3094   0.3094     C
C        0.037   0.3094   0.6906     C
C        0.037   0.6906   0.3094     C
C        0.037   0.6906   0.6906     C
C       0.0396   0.3298   0.3526     C
C       0.0396   0.3298   0.6474     C
C       0.0396   0.3526   0.3298     C
C       0.0396   0.3526   0.6702     C
C       0.0396   0.6474   0.3298     C
C       0.0396   0.6474   0.6702     C
C       0.0396   0.6702   0.3526     C
C       0.0396   0.6702   0.6474     C
O       0.0447   0.1567   0.2199     O
O       0.0447   0.1567   0.7801     O
O       0.0447   0.2199   0.1567     O
O       0.0447   0.2199   0.8433     O
O       0.0447   0.7801   0.1567     O
O       0.0447   0.7801   0.8433     O
O       0.0447   0.8433   0.2199     O
O       0.0447   0.8433   0.7801     O
O       0.0451   0.2086   0.2725     O
O       0.0451   0.2086   0.7275     O
O       0.0451   0.2725   0.2086     O
O       0.0451   0.2725   0.7914     O
O       0.0451   0.7275   0.2086     O
O       0.0451   0.7275   0.7914     O
O       0.0451   0.7914   0.2725     O
O       0.0451   0.7914   0.7275     O
C       0.0586   0.1734   0.2554     C
C       0.0586   0.1734   0.7446     C
C       0.0586   0.2554   0.1734     C
C       0.0586   0.2554   0.8266     C
C       0.0586   0.7446   0.1734     C
C       0.0586   0.7446   0.8266     C
C       0.0586   0.8266   0.2554     C
C       0.0586   0.8266   0.7446     C
H        0.065   0.2999   0.2999     H
H        0.065   0.2999   0.7001     H
H        0.065   0.7001   0.2999     H
H        0.065   0.7001   0.7001     H
C       0.0828    0.338   0.3752     C
C       0.0828    0.338   0.6248     C
C       0.0828   0.3752    0.338     C
C       0.0828   0.3752    0.662     C
C       0.0828   0.6248    0.338     C
C       0.0828   0.6248    0.662     C
C       0.0828    0.662   0.3752     C
C       0.0828    0.662   0.6248     C
O       0.0839   0.3378   0.4153     O
O       0.0839   0.3378   0.5847     O
O       0.0839   0.4153   0.3378     O
O       0.0839   0.4153   0.6622     O
O       0.0839   0.5847   0.3378     O
O       0.0839   0.5847   0.6622     O
O       0.0839   0.6622   0.4153     O
O       0.0839   0.6622   0.5847     O
O       0.0847   0.1622   0.4161     O
O       0.0847   0.1622   0.5839     O
O       0.0847   0.4161   0.1622     O
O       0.0847   0.4161   0.8378     O
O       0.0847   0.5839   0.1622     O
O       0.0847   0.5839   0.8378     O
O       0.0847   0.8378   0.4161     O
O       0.0847   0.8378   0.5839     O
H       0.0923   0.1852   0.3347     H
H       0.0923   0.1852   0.6653     H
H       0.0923   0.3347   0.1852     H
H       0.0923   0.3347   0.8148     H
H       0.0923   0.6653   0.1852     H
H       0.0923   0.6653   0.8148     H
H       0.0923   0.8148   0.3347     H
H       0.0923   0.8148   0.6653     H
C        0.093   0.1487   0.2794     C
C        0.093   0.1487   0.7206     C
C        0.093   0.2794   0.1487     C
C        0.093   0.2794   0.8513     C
C        0.093   0.7206   0.1487     C
C        0.093   0.7206   0.8513     C
C        0.093   0.8513   0.2794     C
C        0.093   0.8513   0.7206     C
C       0.1061   0.1616    0.321     C
C       0.1061   0.1616    0.679     C
C       0.1061    0.321   0.1616     C
C       0.1061    0.321   0.8384     C
C       0.1061    0.679   0.1616     C
C       0.1061    0.679   0.8384     C
C       0.1061   0.8384    0.321     C
C       0.1061   0.8384    0.679     C
H       0.1084   0.1084   0.2287     H
H       0.1084   0.1084   0.7713     H
H       0.1084   0.2287   0.1084     H
H       0.1084   0.2287   0.8916     H
H       0.1084   0.7713   0.1084     H
H       0.1084   0.7713   0.8916     H
H       0.1084   0.8916   0.2287     H
H       0.1084   0.8916   0.7713     H
H        0.111   0.1427      0.5     H
H        0.111      0.5   0.1427     H
H        0.111      0.5   0.8573     H
H        0.111   0.8573      0.5     H
N       0.1149   0.3477   0.3477     N
N       0.1149   0.3477   0.6523     N
N       0.1149   0.6523   0.3477     N
N       0.1149   0.6523   0.6523     N
C       0.1155   0.1155   0.2576     C
C       0.1155   0.1155   0.7424     C
C       0.1155   0.2576   0.1155     C
C       0.1155   0.2576   0.8845     C
H       0.1155   0.3268   0.3268     H
H       0.1155   0.3268   0.6732     H
H       0.1155   0.6732   0.3268     H
H       0.1155   0.6732   0.6732     H
C       0.1155   0.7424   0.1155     C
C       0.1155   0.7424   0.8845     C
C       0.1155   0.8845   0.2576     C
C       0.1155   0.8845   0.7424     C
C       0.1248    0.162   0.4172     C
C       0.1248    0.162   0.5828     C
C       0.1248   0.4172    0.162     C
C       0.1248   0.4172    0.838     C
C       0.1248   0.5828    0.162     C
C       0.1248   0.5828    0.838     C
C       0.1248    0.838   0.4172     C
C       0.1248    0.838   0.5828     C
C       0.1286   0.1598      0.5     C
C       0.1286      0.5   0.1598     C
C       0.1286      0.5   0.8402     C
C       0.1286   0.8402      0.5     C
C       0.1395   0.1395   0.3422     C
C       0.1395   0.1395   0.6578     C
C       0.1395   0.3422   0.1395     C
C       0.1395   0.3422   0.8605     C
C       0.1395   0.6578   0.1395     C
C       0.1395   0.6578   0.8605     C
C       0.1395   0.8605   0.3422     C
C       0.1395   0.8605   0.6578     C
H       0.1427    0.111      0.5     H
H       0.1427      0.5    0.111     H
H       0.1427      0.5    0.889     H
H       0.1427    0.889      0.5     H
C       0.1474   0.1702   0.4604     C
C       0.1474   0.1702   0.5396     C
C       0.1474   0.4604   0.1702     C
C       0.1474   0.4604   0.8298     C
C       0.1474   0.5396   0.1702     C
C       0.1474   0.5396   0.8298     C
C       0.1474   0.8298   0.4604     C
C       0.1474   0.8298   0.5396     C
C       0.1487    0.093   0.2794     C
C       0.1487    0.093   0.7206     C
C       0.1487   0.2794    0.093     C
C       0.1487   0.2794    0.907     C
C       0.1487   0.7206    0.093     C
C       0.1487   0.7206    0.907     C
C       0.1487    0.907   0.2794     C
C       0.1487    0.907   0.7206     C
N       0.1523   0.1523   0.3851     N
N       0.1523   0.1523   0.6149     N
N       0.1523   0.3851   0.1523     N
N       0.1523   0.3851   0.8477     N
N       0.1523   0.6149   0.1523     N
N       0.1523   0.6149   0.8477     N
N       0.1523   0.8477   0.3851     N
N       0.1523   0.8477   0.6149     N
O       0.1567   0.0447   0.2199     O
O       0.1567   0.0447   0.7801     O
O       0.1567   0.2199   0.0447     O
O       0.1567   0.2199   0.9553     O
O       0.1567   0.7801   0.0447     O
O       0.1567   0.7801   0.9553     O
O       0.1567   0.9553   0.2199     O
O       0.1567   0.9553   0.7801     O
C       0.1578   0.3605   0.3605     C
C       0.1578   0.3605   0.6395     C
C       0.1578   0.6395   0.3605     C
C       0.1578   0.6395   0.6395     C
C       0.1598   0.1286      0.5     C
C       0.1598      0.5   0.1286     C
C       0.1598      0.5   0.8714     C
C       0.1598   0.8714      0.5     C
C       0.1616   0.1061    0.321     C
C       0.1616   0.1061    0.679     C
C       0.1616    0.321   0.1061     C
C       0.1616    0.321   0.8939     C
C       0.1616    0.679   0.1061     C
C       0.1616    0.679   0.8939     C
C       0.1616   0.8939    0.321     C
C       0.1616   0.8939    0.679     C
C        0.162   0.1248   0.4172     C
C        0.162   0.1248   0.5828     C
C        0.162   0.4172   0.1248     C
C        0.162   0.4172   0.8752     C
C        0.162   0.5828   0.1248     C
C        0.162   0.5828   0.8752     C
C        0.162   0.8752   0.4172     C
C        0.162   0.8752   0.5828     C
O       0.1622   0.0847   0.4161     O
O       0.1622   0.0847   0.5839     O
O       0.1622   0.4161   0.0847     O
O       0.1622   0.4161   0.9153     O
O       0.1622   0.5839   0.0847     O
O       0.1622   0.5839   0.9153     O
O       0.1622   0.9153   0.4161     O
O       0.1622   0.9153   0.5839     O
H       0.1653   0.3148   0.4077     H
H       0.1653   0.3148   0.5923     H
H       0.1653   0.4077   0.3148     H
H       0.1653   0.4077   0.6852     H
H       0.1653   0.5923   0.3148     H
H       0.1653   0.5923   0.6852     H
H       0.1653   0.6852   0.4077     H
H       0.1653   0.6852   0.5923     H
C       0.1702   0.1474   0.4604     C
C       0.1702   0.1474   0.5396     C
C       0.1702   0.4604   0.1474     C
C       0.1702   0.4604   0.8526     C
C       0.1702   0.5396   0.1474     C
C       0.1702   0.5396   0.8526     C
C       0.1702   0.8526   0.4604     C
C       0.1702   0.8526   0.5396     C
H       0.1732   0.1732   0.3845     H
H       0.1732   0.1732   0.6155     H
H       0.1732   0.3845   0.1732     H
H       0.1732   0.3845   0.8268     H
H       0.1732   0.6155   0.1732     H
H       0.1732   0.6155   0.8268     H
H       0.1732   0.8268   0.3845     H
H       0.1732   0.8268   0.6155     H
C       0.1734   0.0586   0.2554     C
C       0.1734   0.0586   0.7446     C
C       0.1734   0.2554   0.0586     C
C       0.1734   0.2554   0.9414     C
C       0.1734   0.7446   0.0586     C
C       0.1734   0.7446   0.9414     C
C       0.1734   0.9414   0.2554     C
C       0.1734   0.9414   0.7446     C
C        0.179   0.3384   0.3939     C
C        0.179   0.3384   0.6061     C
C        0.179   0.3939   0.3384     C
C        0.179   0.3939   0.6616     C
C        0.179   0.6061   0.3384     C
C        0.179   0.6061   0.6616     C
C        0.179   0.6616   0.3939     C
C        0.179   0.6616   0.6061     C
Cu     0.18366      0.0  0.18366    Cu
Cu     0.18366      0.0  0.81634    Cu
Cu     0.18366  0.18366      0.0    Cu
Cu     0.18366  0.81634      0.0    Cu
H       0.1852   0.0923   0.3347     H
H       0.1852   0.0923   0.6653     H
H       0.1852   0.3347   0.0923     H
H       0.1852   0.3347   0.9077     H
H       0.1852   0.6653   0.0923     H
H       0.1852   0.6653   0.9077     H
H       0.1852   0.9077   0.3347     H
H       0.1852   0.9077   0.6653     H
C       0.1906   0.1906    0.463     C
C       0.1906   0.1906    0.537     C
C       0.1906    0.463   0.1906     C
C       0.1906    0.463   0.8094     C
C       0.1906    0.537   0.1906     C
C       0.1906    0.537   0.8094     C
C       0.1906   0.8094    0.463     C
C       0.1906   0.8094    0.537     C
H       0.2001   0.2001    0.435     H
H       0.2001   0.2001    0.565     H
H       0.2001    0.435   0.2001     H
H       0.2001    0.435   0.7999     H
H       0.2001    0.565   0.2001     H
H       0.2001    0.565   0.7999     H
H       0.2001   0.7999    0.435     H
H       0.2001   0.7999    0.565     H
N        0.205    0.205      0.5     N
N        0.205      0.5    0.205     N
N        0.205      0.5    0.795     N
N        0.205    0.795      0.5     N
O       0.2086   0.0451   0.2725     O
O       0.2086   0.0451   0.7275     O
O       0.2086   0.2725   0.0451     O
O       0.2086   0.2725   0.9549     O
O       0.2086   0.7275   0.0451     O
O       0.2086   0.7275   0.9549     O
O       0.2086   0.9549   0.2725     O
O       0.2086   0.9549   0.7275     O
O       0.2199   0.0447   0.1567     O
O       0.2199   0.0447   0.8433     O
O       0.2199   0.1567   0.0447     O
O       0.2199   0.1567   0.9553     O
O       0.2199   0.8433   0.0447     O
O       0.2199   0.8433   0.9553     O
O       0.2199   0.9553   0.1567     O
O       0.2199   0.9553   0.8433     O
C       0.2206   0.3513    0.407     C
C       0.2206   0.3513    0.593     C
C       0.2206    0.407   0.3513     C
C       0.2206    0.407   0.6487     C
C       0.2206    0.593   0.3513     C
C       0.2206    0.593   0.6487     C
C       0.2206   0.6487    0.407     C
C       0.2206   0.6487    0.593     C
O       0.2275   0.2914   0.4549     O
O       0.2275   0.2914   0.5451     O
O       0.2275   0.4549   0.2914     O
O       0.2275   0.4549   0.7086     O
O       0.2275   0.5451   0.2914     O
O       0.2275   0.5451   0.7086     O
O       0.2275   0.7086   0.4549     O
O       0.2275   0.7086   0.5451     O
H       0.2287   0.1084   0.1084     H
H       0.2287   0.1084   0.8916     H
H       0.2287   0.8916   0.1084     H
H       0.2287   0.8916   0.8916     H
C       0.2424   0.3845   0.3845     C
C       0.2424   0.3845   0.6155     C
C       0.2424   0.6155   0.3845     C
C       0.2424   0.6155   0.6155     C
C       0.2446   0.3266   0.4414     C
C       0.2446   0.3266   0.5586     C
C       0.2446   0.4414   0.3266     C
C       0.2446   0.4414   0.6734     C
C       0.2446   0.5586   0.3266     C
C       0.2446   0.5586   0.6734     C
C       0.2446   0.6734   0.4414     C
C       0.2446   0.6734   0.5586     C
Cu     0.24516      0.0  0.24516    Cu
Cu     0.24516      0.0  0.75484    Cu
Cu     0.24516  0.24516      0.0    Cu
Cu     0.24516  0.75484      0.0    Cu
Cu     0.25484  0.25484      0.5    Cu
Cu     0.25484      0.5  0.25484    Cu
Cu     0.25484      0.5  0.74516    Cu
Cu     0.25484  0.74516      0.5    Cu
C       0.2554   0.0586   0.1734     C
C       0.2554   0.0586   0.8266     C
C       0.2554   0.1734   0.0586     C
C       0.2554   0.1734   0.9414     C
C       0.2554   0.8266   0.0586     C
C       0.2554   0.8266   0.9414     C
C       0.2554   0.9414   0.1734     C
C       0.2554   0.9414   0.8266     C
C       0.2576   0.1155   0.1155     C
C       0.2576   0.1155   0.8845     C
C       0.2576   0.8845   0.1155     C
C       0.2576   0.8845   0.8845     C
H       0.2713   0.3916   0.3916     H
H       0.2713   0.3916   0.6084     H
H       0.2713   0.6084   0.3916     H
H       0.2713   0.6084   0.6084     H
O       0.2725   0.0451   0.2086     O
O       0.2725   0.0451   0.7914     O
O       0.2725   0.2086   0.0451     O
O       0.2725   0.2086   0.9549     O
O       0.2725   0.7914   0.0451     O
O       0.2725   0.7914   0.9549     O
O       0.2725   0.9549   0.2086     O
O       0.2725   0.9549   0.7914     O
C       0.2794    0.093   0.1487     C
C       0.2794    0.093   0.8513     C
C       0.2794   0.1487    0.093     C
C       0.2794   0.1487    0.907     C
C       0.2794   0.8513    0.093     C
C       0.2794   0.8513    0.907     C
C       0.2794    0.907   0.1487     C
C       0.2794    0.907   0.8513     C
O       0.2801   0.3433   0.4553     O
O       0.2801   0.3433   0.5447     O
O       0.2801   0.4553   0.3433     O
O       0.2801   0.4553   0.6567     O
O       0.2801   0.5447   0.3433     O
O       0.2801   0.5447   0.6567     O
O       0.2801   0.6567   0.4553     O
O       0.2801   0.6567   0.5447     O
O       0.2914   0.2275   0.4549     O
O       0.2914   0.2275   0.5451     O
O       0.2914   0.4549   0.2275     O
O       0.2914   0.4549   0.7725     O
O       0.2914   0.5451   0.2275     O
O       0.2914   0.5451   0.7725     O
O       0.2914   0.7725   0.4549     O
O       0.2914   0.7725   0.5451     O
N        0.295      0.0    0.295     N
N        0.295      0.0    0.705     N
N        0.295    0.295      0.0     N
N        0.295    0.705      0.0     N
H       0.2999    0.065   0.2999     H
H       0.2999    0.065   0.7001     H
H       0.2999   0.2999    0.065     H
H       0.2999   0.2999    0.935     H
H       0.2999   0.7001    0.065     H
H       0.2999   0.7001    0.935     H
H       0.2999    0.935   0.2999     H
H       0.2999    0.935   0.7001     H
C       0.3094    0.037   0.3094     C
C       0.3094    0.037   0.6906     C
C       0.3094   0.3094    0.037     C
C       0.3094   0.3094    0.963     C
C       0.3094   0.6906    0.037     C
C       0.3094   0.6906    0.963     C
C       0.3094    0.963   0.3094     C
C       0.3094    0.963   0.6906     C
H       0.3148   0.1653   0.4077     H
H       0.3148   0.1653   0.5923     H
H       0.3148   0.4077   0.1653     H
H       0.3148   0.4077   0.8347     H
H       0.3148   0.5923   0.1653     H
H       0.3148   0.5923   0.8347     H
H       0.3148   0.8347   0.4077     H
H       0.3148   0.8347   0.5923     H
Cu     0.31634  0.31634      0.5    Cu
Cu     0.31634      0.5  0.31634    Cu
Cu     0.31634      0.5  0.68366    Cu
Cu     0.31634  0.68366      0.5    Cu
C        0.321   0.1061   0.1616     C
C        0.321   0.1061   0.8384     C
C        0.321   0.1616   0.1061     C
C        0.321   0.1616   0.8939     C
C        0.321   0.8384   0.1061     C
C        0.321   0.8384   0.8939     C
C        0.321   0.8939   0.1616     C
C        0.321   0.8939   0.8384     C
C       0.3266   0.2446   0.4414     C
C       0.3266   0.2446   0.5586     C
C       0.3266   0.4414   0.2446     C
C       0.3266   0.4414   0.7554     C
C       0.3266   0.5586   0.2446     C
C       0.3266   0.5586   0.7554     C
C       0.3266   0.7554   0.4414     C
C       0.3266   0.7554   0.5586     C
H       0.3268   0.1155   0.3268     H
H       0.3268   0.1155   0.6732     H
H       0.3268   0.3268   0.1155     H
H       0.3268   0.3268   0.8845     H
H       0.3268   0.6732   0.1155     H
H       0.3268   0.6732   0.8845     H
H       0.3268   0.8845   0.3268     H
H       0.3268   0.8845   0.6732     H
C       0.3298   0.0396   0.3526     C
C       0.3298   0.0396   0.6474     C
C       0.3298   0.3526   0.0396     C
C       0.3298   0.3526   0.9604     C
C       0.3298   0.6474   0.0396     C
C       0.3298   0.6474   0.9604     C
C       0.3298   0.9604   0.3526     C
C       0.3298   0.9604   0.6474     C
H       0.3347   0.0923   0.1852     H
H       0.3347   0.0923   0.8148     H
H       0.3347   0.1852   0.0923     H
H       0.3347   0.1852   0.9077     H
H       0.3347   0.8148   0.0923     H
H       0.3347   0.8148   0.9077     H
H       0.3347   0.9077   0.1852     H
H       0.3347   0.9077   0.8148     H
O       0.3378   0.0839   0.4153     O
O       0.3378   0.0839   0.5847     O
O       0.3378   0.4153   0.0839     O
O       0.3378   0.4153   0.9161     O
O       0.3378   0.5847   0.0839     O
O       0.3378   0.5847   0.9161     O
O       0.3378   0.9161   0.4153     O
O       0.3378   0.9161   0.5847     O
C        0.338   0.0828   0.3752     C
C        0.338   0.0828   0.6248     C
C        0.338   0.3752   0.0828     C
C        0.338   0.3752   0.9172     C
C        0.338   0.6248   0.0828     C
C        0.338   0.6248   0.9172     C
C        0.338   0.9172   0.3752     C
C        0.338   0.9172   0.6248     C
C       0.3384    0.179   0.3939     C
C       0.3384    0.179   0.6061     C
C       0.3384   0.3939    0.179     C
C       0.3384   0.3939    0.821     C
C       0.3384   0.6061    0.179     C
C       0.3384   0.6061    0.821     C
C       0.3384    0.821   0.3939     C
C       0.3384    0.821   0.6061     C
C       0.3402      0.0   0.3714     C
C       0.3402      0.0   0.6286     C
C       0.3402   0.3714      0.0     C
C       0.3402   0.6286      0.0     C
C       0.3422   0.1395   0.1395     C
C       0.3422   0.1395   0.8605     C
C       0.3422   0.8605   0.1395     C
C       0.3422   0.8605   0.8605     C
O       0.3433   0.2801   0.4553     O
O       0.3433   0.2801   0.5447     O
O       0.3433   0.4553   0.2801     O
O       0.3433   0.4553   0.7199     O
O       0.3433   0.5447   0.2801     O
O       0.3433   0.5447   0.7199     O
O       0.3433   0.7199   0.4553     O
O       0.3433   0.7199   0.5447     O
N       0.3477   0.1149   0.3477     N
N       0.3477   0.1149   0.6523     N
N       0.3477   0.3477   0.1149     N
N       0.3477   0.3477   0.8851     N
N       0.3477   0.6523   0.1149     N
N       0.3477   0.6523   0.8851     N
N       0.3477   0.8851   0.3477     N
N       0.3477   0.8851   0.6523     N
C       0.3513   0.2206    0.407     C
C       0.3513   0.2206    0.593     C
C       0.3513    0.407   0.2206     C
C       0.3513    0.407   0.7794     C
C       0.3513    0.593   0.2206     C
C       0.3513    0.593   0.7794     C
C       0.3513   0.7794    0.407     C
C       0.3513   0.7794    0.593     C
C       0.3526   0.0396   0.3298     C
C       0.3526   0.0396   0.6702     C
C       0.3526   0.3298   0.0396     C
C       0.3526   0.3298   0.9604     C
C       0.3526   0.6702   0.0396     C
C       0.3526   0.6702   0.9604     C
C       0.3526   0.9604   0.3298     C
C       0.3526   0.9604   0.6702     C
H       0.3573      0.0    0.389     H
H       0.3573      0.0    0.611     H
H       0.3573    0.389      0.0     H
H       0.3573    0.611      0.0     H
C       0.3605   0.1578   0.3605     C
C       0.3605   0.1578   0.6395     C
C       0.3605   0.3605   0.1578     C
C       0.3605   0.3605   0.8422     C
C       0.3605   0.6395   0.1578     C
C       0.3605   0.6395   0.8422     C
C       0.3605   0.8422   0.3605     C
C       0.3605   0.8422   0.6395     C
C       0.3714      0.0   0.3402     C
C       0.3714      0.0   0.6598     C
C       0.3714   0.3402      0.0     C
C       0.3714   0.6598      0.0     C
C       0.3752   0.0828    0.338     C
C       0.3752   0.0828    0.662     C
C       0.3752    0.338   0.0828     C
C       0.3752    0.338   0.9172     C
C       0.3752    0.662   0.0828     C
C       0.3752    0.662   0.9172     C
C       0.3752   0.9172    0.338     C
C       0.3752   0.9172    0.662     C
H       0.3845   0.1732   0.1732     H
H       0.3845   0.1732   0.8268     H
C       0.3845   0.2424   0.3845     C
C       0.3845   0.2424   0.6155     C
C       0.3845   0.3845   0.2424     C
C       0.3845   0.3845   0.7576     C
C       0.3845   0.6155   0.2424     C
C       0.3845   0.6155   0.7576     C
C       0.3845   0.7576   0.3845     C
C       0.3845   0.7576   0.6155     C
H       0.3845   0.8268   0.1732     H
H       0.3845   0.8268   0.8268     H
N       0.3851   0.1523   0.1523     N
N       0.3851   0.1523   0.8477     N
N       0.3851   0.8477   0.1523     N
N       0.3851   0.8477   0.8477     N
H        0.389      0.0   0.3573     H
H        0.389      0.0   0.6427     H
H        0.389   0.3573      0.0     H
H        0.389   0.6427      0.0     H
H       0.3916   0.2713   0.3916     H
H       0.3916   0.2713   0.6084     H
H       0.3916   0.3916   0.2713     H
H       0.3916   0.3916   0.7287     H
H       0.3916   0.6084   0.2713     H
H       0.3916   0.6084   0.7287     H
H       0.3916   0.7287   0.3916     H
H       0.3916   0.7287   0.6084     H
C       0.3939    0.179   0.3384     C
C       0.3939    0.179   0.6616     C
C       0.3939   0.3384    0.179     C
C       0.3939   0.3384    0.821     C
C       0.3939   0.6616    0.179     C
C       0.3939   0.6616    0.821     C
C       0.3939    0.821   0.3384     C
C       0.3939    0.821   0.6616     C
C        0.407   0.2206   0.3513     C
C        0.407   0.2206   0.6487     C
C        0.407   0.3513   0.2206     C
C        0.407   0.3513   0.7794     C
C        0.407   0.6487   0.2206     C
C        0.407   0.6487   0.7794     C
C        0.407   0.7794   0.3513     C
C        0.407   0.7794   0.6487     C
H       0.4077   0.1653   0.3148     H
H       0.4077   0.1653   0.6852     H
H       0.4077   0.3148   0.1653     H
H       0.4077   0.3148   0.8347     H
H       0.4077   0.6852   0.1653     H
H       0.4077   0.6852   0.8347     H
H       0.4077   0.8347   0.3148     H
H       0.4077   0.8347   0.6852     H
O       0.4153   0.0839   0.3378     O
O       0.4153   0.0839   0.6622     O
O       0.4153   0.3378   0.0839     O
O       0.4153   0.3378   0.9161     O
O       0.4153   0.6622   0.0839     O
O       0.4153   0.6622   0.9161     O
O       0.4153   0.9161   0.3378     O
O       0.4153   0.9161   0.6622     O
O       0.4161   0.0847   0.1622     O
O       0.4161   0.0847   0.8378     O
O       0.4161   0.1622   0.0847     O
O       0.4161   0.1622   0.9153     O
O       0.4161   0.8378   0.0847     O
O       0.4161   0.8378   0.9153     O
O       0.4161   0.9153   0.1622     O
O       0.4161   0.9153   0.8378     O
C       0.4172   0.1248    0.162     C
C       0.4172   0.1248    0.838     C
C       0.4172    0.162   0.1248     C
C       0.4172    0.162   0.8752     C
C       0.4172    0.838   0.1248     C
C       0.4172    0.838   0.8752     C
C       0.4172   0.8752    0.162     C
C       0.4172   0.8752    0.838     C
H        0.435   0.2001   0.2001     H
H        0.435   0.2001   0.7999     H
H        0.435   0.7999   0.2001     H
H        0.435   0.7999   0.7999     H
C       0.4414   0.2446   0.3266     C
C       0.4414   0.2446   0.6734     C
C       0.4414   0.3266   0.2446     C
C       0.4414   0.3266   0.7554     C
C       0.4414   0.6734   0.2446     C
C       0.4414   0.6734   0.7554     C
C       0.4414   0.7554   0.3266     C
C       0.4414   0.7554   0.6734     C
O       0.4549   0.2275   0.2914     O
O       0.4549   0.2275   0.7086     O
O       0.4549   0.2914   0.2275     O
O       0.4549   0.2914   0.7725     O
O       0.4549   0.7086   0.2275     O
O       0.4549   0.7086   0.7725     O
O       0.4549   0.7725   0.2914     O
O       0.4549   0.7725   0.7086     O
O       0.4553   0.2801   0.3433     O
O       0.4553   0.2801   0.6567     O
O       0.4553   0.3433   0.2801     O
O       0.4553   0.3433   0.7199     O
O       0.4553   0.6567   0.2801     O
O       0.4553   0.6567   0.7199     O
O       0.4553   0.7199   0.3433     O
O       0.4553   0.7199   0.6567     O
C       0.4604   0.1474   0.1702     C
C       0.4604   0.1474   0.8298     C
C       0.4604   0.1702   0.1474     C
C       0.4604   0.1702   0.8526     C
C       0.4604   0.8298   0.1474     C
C       0.4604   0.8298   0.8526     C
C       0.4604   0.8526   0.1702     C
C       0.4604   0.8526   0.8298     C
C        0.463   0.1906   0.1906     C
C        0.463   0.1906   0.8094     C
C        0.463   0.8094   0.1906     C
C        0.463   0.8094   0.8094     C
H          0.5    0.111   0.1427     H
H          0.5    0.111   0.8573     H
C          0.5   0.1286   0.1598     C
C          0.5   0.1286   0.8402     C
H          0.5   0.1427    0.111     H
H          0.5   0.1427    0.889     H
C          0.5   0.1598   0.1286     C
C          0.5   0.1598   0.8714     C
N          0.5    0.205    0.205     N
N          0.5    0.205    0.795     N
Cu         0.5  0.25484  0.25484    Cu
Cu         0.5  0.25484  0.74516    Cu
Cu         0.5  0.31634  0.31634    Cu
Cu         0.5  0.31634  0.68366    Cu
Cu         0.5  0.68366  0.31634    Cu
Cu         0.5  0.68366  0.68366    Cu
Cu         0.5  0.74516  0.25484    Cu
Cu         0.5  0.74516  0.74516    Cu
N          0.5    0.795    0.205     N
N          0.5    0.795    0.795     N
C          0.5   0.8402   0.1286     C
C          0.5   0.8402   0.8714     C
H          0.5   0.8573    0.111     H
H          0.5   0.8573    0.889     H
C          0.5   0.8714   0.1598     C
C          0.5   0.8714   0.8402     C
H          0.5    0.889   0.1427     H
H          0.5    0.889   0.8573     H
C        0.537   0.1906   0.1906     C
C        0.537   0.1906   0.8094     C
C        0.537   0.8094   0.1906     C
C        0.537   0.8094   0.8094     C
C       0.5396   0.1474   0.1702     C
C       0.5396   0.1474   0.8298     C
C       0.5396   0.1702   0.1474     C
C       0.5396   0.1702   0.8526     C
C       0.5396   0.8298   0.1474     C
C       0.5396   0.8298   0.8526     C
C       0.5396   0.8526   0.1702     C
C       0.5396   0.8526   0.8298     C
O       0.5447   0.2801   0.3433     O
O       0.5447   0.2801   0.6567     O
O       0.5447   0.3433   0.2801     O
O       0.5447   0.3433   0.7199     O
O       0.5447   0.6567   0.2801     O
O       0.5447   0.6567   0.7199     O
O       0.5447   0.7199   0.3433     O
O       0.5447   0.7199   0.6567     O
O       0.5451   0.2275   0.2914     O
O       0.5451   0.2275   0.7086     O
O       0.5451   0.2914   0.2275     O
O       0.5451   0.2914   0.7725     O
O       0.5451   0.7086   0.2275     O
O       0.5451   0.7086   0.7725     O
O       0.5451   0.7725   0.2914     O
O       0.5451   0.7725   0.7086     O
C       0.5586   0.2446   0.3266     C
C       0.5586   0.2446   0.6734     C
C       0.5586   0.3266   0.2446     C
C       0.5586   0.3266   0.7554     C
C       0.5586   0.6734   0.2446     C
C       0.5586   0.6734   0.7554     C
C       0.5586   0.7554   0.3266     C
C       0.5586   0.7554   0.6734     C
H        0.565   0.2001   0.2001     H
H        0.565   0.2001   0.7999     H
H        0.565   0.7999   0.2001     H
H        0.565   0.7999   0.7999     H
C       0.5828   0.1248    0.162     C
C       0.5828   0.1248    0.838     C
C       0.5828    0.162   0.1248     C
C       0.5828    0.162   0.8752     C
C       0.5828    0.838   0.1248     C
C       0.5828    0.838   0.8752     C
C       0.5828   0.8752    0.162     C
C       0.5828   0.8752    0.838     C
O       0.5839   0.0847   0.1622     O
O       0.5839   0.0847   0.8378     O
O       0.5839   0.1622   0.0847     O
O       0.5839   0.1622   0.9153     O
O       0.5839   0.8378   0.0847     O
O       0.5839   0.8378   0.9153     O
O       0.5839   0.9153   0.1622     O
O       0.5839   0.9153   0.8378     O
O       0.5847   0.0839   0.3378     O
O       0.5847   0.0839   0.6622     O
O       0.5847   0.3378   0.0839     O
O       0.5847   0.3378   0.9161     O
O       0.5847   0.6622   0.0839     O
O       0.5847   0.6622   0.9161     O
O       0.5847   0.9161   0.3378     O
O       0.5847   0.9161   0.6622     O
H       0.5923   0.1653   0.3148     H
H       0.5923   0.1653   0.6852     H
H       0.5923   0.3148   0.1653     H
H       0.5923   0.3148   0.8347     H
H       0.5923   0.6852   0.1653     H
H       0.5923   0.6852   0.8347     H
H       0.5923   0.8347   0.3148     H
H       0.5923   0.8347   0.6852     H
C        0.593   0.2206   0.3513     C
C        0.593   0.2206   0.6487     C
C        0.593   0.3513   0.2206     C
C        0.593   0.3513   0.7794     C
C        0.593   0.6487   0.2206     C
C        0.593   0.6487   0.7794     C
C        0.593   0.7794   0.3513     C
C        0.593   0.7794   0.6487     C
C       0.6061    0.179   0.3384     C
C       0.6061    0.179   0.6616     C
C       0.6061   0.3384    0.179     C
C       0.6061   0.3384    0.821     C
C       0.6061   0.6616    0.179     C
C       0.6061   0.6616    0.821     C
C       0.6061    0.821   0.3384     C
C       0.6061    0.821   0.6616     C
H       0.6084   0.2713   0.3916     H
H       0.6084   0.2713   0.6084     H
H       0.6084   0.3916   0.2713     H
H       0.6084   0.3916   0.7287     H
H       0.6084   0.6084   0.2713     H
H       0.6084   0.6084   0.7287     H
H       0.6084   0.7287   0.3916     H
H       0.6084   0.7287   0.6084     H
H        0.611      0.0   0.3573     H
H        0.611      0.0   0.6427     H
H        0.611   0.3573      0.0     H
H        0.611   0.6427      0.0     H
N       0.6149   0.1523   0.1523     N
N       0.6149   0.1523   0.8477     N
N       0.6149   0.8477   0.1523     N
N       0.6149   0.8477   0.8477     N
H       0.6155   0.1732   0.1732     H
H       0.6155   0.1732   0.8268     H
C       0.6155   0.2424   0.3845     C
C       0.6155   0.2424   0.6155     C
C       0.6155   0.3845   0.2424     C
C       0.6155   0.3845   0.7576     C
C       0.6155   0.6155   0.2424     C
C       0.6155   0.6155   0.7576     C
C       0.6155   0.7576   0.3845     C
C       0.6155   0.7576   0.6155     C
H       0.6155   0.8268   0.1732     H
H       0.6155   0.8268   0.8268     H
C       0.6248   0.0828    0.338     C
C       0.6248   0.0828    0.662     C
C       0.6248    0.338   0.0828     C
C       0.6248    0.338   0.9172     C
C       0.6248    0.662   0.0828     C
C       0.6248    0.662   0.9172     C
C       0.6248   0.9172    0.338     C
C       0.6248   0.9172    0.662     C
C       0.6286      0.0   0.3402     C
C       0.6286      0.0   0.6598     C
C       0.6286   0.3402      0.0     C
C       0.6286   0.6598      0.0     C
C       0.6395   0.1578   0.3605     C
C       0.6395   0.1578   0.6395     C
C       0.6395   0.3605   0.1578     C
C       0.6395   0.3605   0.8422     C
C       0.6395   0.6395   0.1578     C
C       0.6395   0.6395   0.8422     C
C       0.6395   0.8422   0.3605     C
C       0.6395   0.8422   0.6395     C
H       0.6427      0.0    0.389     H
H       0.6427      0.0    0.611     H
H       0.6427    0.389      0.0     H
H       0.6427    0.611      0.0     H
C       0.6474   0.0396   0.3298     C
C       0.6474   0.0396   0.6702     C
C       0.6474   0.3298   0.0396     C
C       0.6474   0.3298   0.9604     C
C       0.6474   0.6702   0.0396     C
C       0.6474   0.6702   0.9604     C
C       0.6474   0.9604   0.3298     C
C       0.6474   0.9604   0.6702     C
C       0.6487   0.2206    0.407     C
C       0.6487   0.2206    0.593     C
C       0.6487    0.407   0.2206     C
C       0.6487    0.407   0.7794     C
C       0.6487    0.593   0.2206     C
C       0.6487    0.593   0.7794     C
C       0.6487   0.7794    0.407     C
C       0.6487   0.7794    0.593     C
N       0.6523   0.1149   0.3477     N
N       0.6523   0.1149   0.6523     N
N       0.6523   0.3477   0.1149     N
N       0.6523   0.3477   0.8851     N
N       0.6523   0.6523   0.1149     N
N       0.6523   0.6523   0.8851     N
N       0.6523   0.8851   0.3477     N
N       0.6523   0.8851   0.6523     N
O       0.6567   0.2801   0.4553     O
O       0.6567   0.2801   0.5447     O
O       0.6567   0.4553   0.2801     O
O       0.6567   0.4553   0.7199     O
O       0.6567   0.5447   0.2801     O
O       0.6567   0.5447   0.7199     O
O       0.6567   0.7199   0.4553     O
O       0.6567   0.7199   0.5447     O
C       0.6578   0.1395   0.1395     C
C       0.6578   0.1395   0.8605     C
C       0.6578   0.8605   0.1395     C
C       0.6578   0.8605   0.8605     C
C       0.6598      0.0   0.3714     C
C       0.6598      0.0   0.6286     C
C       0.6598   0.3714      0.0     C
C       0.6598   0.6286      0.0     C
C       0.6616    0.179   0.3939     C
C       0.6616    0.179   0.6061     C
C       0.6616   0.3939    0.179     C
C       0.6616   0.3939    0.821     C
C       0.6616   0.6061    0.179     C
C       0.6616   0.6061    0.821     C
C       0.6616    0.821   0.3939     C
C       0.6616    0.821   0.6061     C
C        0.662   0.0828   0.3752     C
C        0.662   0.0828   0.6248     C
C        0.662   0.3752   0.0828     C
C        0.662   0.3752   0.9172     C
C        0.662   0.6248   0.0828     C
C        0.662   0.6248   0.9172     C
C        0.662   0.9172   0.3752     C
C        0.662   0.9172   0.6248     C
O       0.6622   0.0839   0.4153     O
O       0.6622   0.0839   0.5847     O
O       0.6622   0.4153   0.0839     O
O       0.6622   0.4153   0.9161     O
O       0.6622   0.5847   0.0839     O
O       0.6622   0.5847   0.9161     O
O       0.6622   0.9161   0.4153     O
O       0.6622   0.9161   0.5847     O
H       0.6653   0.0923   0.1852     H
H       0.6653   0.0923   0.8148     H
H       0.6653   0.1852   0.0923     H
H       0.6653   0.1852   0.9077     H
H       0.6653   0.8148   0.0923     H
H       0.6653   0.8148   0.9077     H
H       0.6653   0.9077   0.1852     H
H       0.6653   0.9077   0.8148     H
C       0.6702   0.0396   0.3526     C
C       0.6702   0.0396   0.6474     C
C       0.6702   0.3526   0.0396     C
C       0.6702   0.3526   0.9604     C
C       0.6702   0.6474   0.0396     C
C       0.6702   0.6474   0.9604     C
C       0.6702   0.9604   0.3526     C
C       0.6702   0.9604   0.6474     C
H       0.6732   0.1155   0.3268     H
H       0.6732   0.1155   0.6732     H
H       0.6732   0.3268   0.1155     H
H       0.6732   0.3268   0.8845     H
H       0.6732   0.6732   0.1155     H
H       0.6732   0.6732   0.8845     H
H       0.6732   0.8845   0.3268     H
H       0.6732   0.8845   0.6732     H
C       0.6734   0.2446   0.4414     C
C       0.6734   0.2446   0.5586     C
C       0.6734   0.4414   0.2446     C
C       0.6734   0.4414   0.7554     C
C       0.6734   0.5586   0.2446     C
C       0.6734   0.5586   0.7554     C
C       0.6734   0.7554   0.4414     C
C       0.6734   0.7554   0.5586     C
C        0.679   0.1061   0.1616     C
C        0.679   0.1061   0.8384     C
C        0.679   0.1616   0.1061     C
C        0.679   0.1616   0.8939     C
C        0.679   0.8384   0.1061     C
C        0.679   0.8384   0.8939     C
C        0.679   0.8939   0.1616     C
C        0.679   0.8939   0.8384     C
Cu     0.68366  0.31634      0.5    Cu
Cu     0.68366      0.5  0.31634    Cu
Cu     0.68366      0.5  0.68366    Cu
Cu     0.68366  0.68366      0.5    Cu
H       0.6852   0.1653   0.4077     H
H       0.6852   0.1653   0.5923     H
H       0.6852   0.4077   0.1653     H
H       0.6852   0.4077   0.8347     H
H       0.6852   0.5923   0.1653     H
H       0.6852   0.5923   0.8347     H
H       0.6852   0.8347   0.4077     H
H       0.6852   0.8347   0.5923     H
C       0.6906    0.037   0.3094     C
C       0.6906    0.037   0.6906     C
C       0.6906   0.3094    0.037     C
C       0.6906   0.3094    0.963     C
C       0.6906   0.6906    0.037     C
C       0.6906   0.6906    0.963     C
C       0.6906    0.963   0.3094     C
C       0.6906    0.963   0.6906     C
H       0.7001    0.065   0.2999     H
H       0.7001    0.065   0.7001     H
H       0.7001   0.2999    0.065     H
H       0.7001   0.2999    0.935     H
H       0.7001   0.7001    0.065     H
H       0.7001   0.7001    0.935     H
H       0.7001    0.935   0.2999     H
H       0.7001    0.935   0.7001     H
N        0.705      0.0    0.295     N
N        0.705      0.0    0.705     N
N        0.705    0.295      0.0     N
N        0.705    0.705      0.0     N
O       0.7086   0.2275   0.4549     O
O       0.7086   0.2275   0.5451     O
O       0.7086   0.4549   0.2275     O
O       0.7086   0.4549   0.7725     O
O       0.7086   0.5451   0.2275     O
O       0.7086   0.5451   0.7725     O
O       0.7086   0.7725   0.4549     O
O       0.7086   0.7725   0.5451     O
O       0.7199   0.3433   0.4553     O
O       0.7199   0.3433   0.5447     O
O       0.7199   0.4553   0.3433     O
O       0.7199   0.4553   0.6567     O
O       0.7199   0.5447   0.3433     O
O       0.7199   0.5447   0.6567     O
O       0.7199   0.6567   0.4553     O
O       0.7199   0.6567   0.5447     O
C       0.7206    0.093   0.1487     C
C       0.7206    0.093   0.8513     C
C       0.7206   0.1487    0.093     C
C       0.7206   0.1487    0.907     C
C       0.7206   0.8513    0.093     C
C       0.7206   0.8513    0.907     C
C       0.7206    0.907   0.1487     C
C       0.7206    0.907   0.8513     C
O       0.7275   0.0451   0.2086     O
O       0.7275   0.0451   0.7914     O
O       0.7275   0.2086   0.0451     O
O       0.7275   0.2086   0.9549     O
O       0.7275   0.7914   0.0451     O
O       0.7275   0.7914   0.9549     O
O       0.7275   0.9549   0.2086     O
O       0.7275   0.9549   0.7914     O
H       0.7287   0.3916   0.3916     H
H       0.7287   0.3916   0.6084     H
H       0.7287   0.6084   0.3916     H
H       0.7287   0.6084   0.6084     H
C       0.7424   0.1155   0.1155     C
C       0.7424   0.1155   0.8845     C
C       0.7424   0.8845   0.1155     C
C       0.7424   0.8845   0.8845     C
C       0.7446   0.0586   0.1734     C
C       0.7446   0.0586   0.8266     C
C       0.7446   0.1734   0.0586     C
C       0.7446   0.1734   0.9414     C
C       0.7446   0.8266   0.0586     C
C       0.7446   0.8266   0.9414     C
C       0.7446   0.9414   0.1734     C
C       0.7446   0.9414   0.8266     C
Cu     0.74516  0.25484      0.5    Cu
Cu     0.74516      0.5  0.25484    Cu
Cu     0.74516      0.5  0.74516    Cu
Cu     0.74516  0.74516      0.5    Cu
Cu     0.75484      0.0  0.24516    Cu
Cu     0.75484      0.0  0.75484    Cu
Cu     0.75484  0.24516      0.0    Cu
Cu     0.75484  0.75484      0.0    Cu
C       0.7554   0.3266   0.4414     C
C       0.7554   0.3266   0.5586     C
C       0.7554   0.4414   0.3266     C
C       0.7554   0.4414   0.6734     C
C       0.7554   0.5586   0.3266     C
C       0.7554   0.5586   0.6734     C
C       0.7554   0.6734   0.4414     C
C       0.7554   0.6734   0.5586     C
C       0.7576   0.3845   0.3845     C
C       0.7576   0.3845   0.6155     C
C       0.7576   0.6155   0.3845     C
C       0.7576   0.6155   0.6155     C
H       0.7713   0.1084   0.1084     H
H       0.7713   0.1084   0.8916     H
H       0.7713   0.8916   0.1084     H
H       0.7713   0.8916   0.8916     H
O       0.7725   0.2914   0.4549     O
O       0.7725   0.2914   0.5451     O
O       0.7725   0.4549   0.2914     O
O       0.7725   0.4549   0.7086     O
O       0.7725   0.5451   0.2914     O
O       0.7725   0.5451   0.7086     O
O       0.7725   0.7086   0.4549     O
O       0.7725   0.7086   0.5451     O
C       0.7794   0.3513    0.407     C
C       0.7794   0.3513    0.593     C
C       0.7794    0.407   0.3513     C
C       0.7794    0.407   0.6487     C
C       0.7794    0.593   0.3513     C
C       0.7794    0.593   0.6487     C
C       0.7794   0.6487    0.407     C
C       0.7794   0.6487    0.593     C
O       0.7801   0.0447   0.1567     O
O       0.7801   0.0447   0.8433     O
O       0.7801   0.1567   0.0447     O
O       0.7801   0.1567   0.9553     O
O       0.7801   0.8433   0.0447     O
O       0.7801   0.8433   0.9553     O
O       0.7801   0.9553   0.1567     O
O       0.7801   0.9553   0.8433     O
O       0.7914   0.0451   0.2725     O
O       0.7914   0.0451   0.7275     O
O       0.7914   0.2725   0.0451     O
O       0.7914   0.2725   0.9549     O
O       0.7914   0.7275   0.0451     O
O       0.7914   0.7275   0.9549     O
O       0.7914   0.9549   0.2725     O
O       0.7914   0.9549   0.7275     O
N        0.795    0.205      0.5     N
N        0.795      0.5    0.205     N
N        0.795      0.5    0.795     N
N        0.795    0.795      0.5     N
H       0.7999   0.2001    0.435     H
H       0.7999   0.2001    0.565     H
H       0.7999    0.435   0.2001     H
H       0.7999    0.435   0.7999     H
H       0.7999    0.565   0.2001     H
H       0.7999    0.565   0.7999     H
H       0.7999   0.7999    0.435     H
H       0.7999   0.7999    0.565     H
C       0.8094   0.1906    0.463     C
C       0.8094   0.1906    0.537     C
C       0.8094    0.463   0.1906     C
C       0.8094    0.463   0.8094     C
C       0.8094    0.537   0.1906     C
C       0.8094    0.537   0.8094     C
C       0.8094   0.8094    0.463     C
C       0.8094   0.8094    0.537     C
H       0.8148   0.0923   0.3347     H
H       0.8148   0.0923   0.6653     H
H       0.8148   0.3347   0.0923     H
H       0.8148   0.3347   0.9077     H
H       0.8148   0.6653   0.0923     H
H       0.8148   0.6653   0.9077     H
H       0.8148   0.9077   0.3347     H
H       0.8148   0.9077   0.6653     H
Cu     0.81634      0.0  0.18366    Cu
Cu     0.81634      0.0  0.81634    Cu
Cu     0.81634  0.18366      0.0    Cu
Cu     0.81634  0.81634      0.0    Cu
C        0.821   0.3384   0.3939     C
C        0.821   0.3384   0.6061     C
C        0.821   0.3939   0.3384     C
C        0.821   0.3939   0.6616     C
C        0.821   0.6061   0.3384     C
C        0.821   0.6061   0.6616     C
C        0.821   0.6616   0.3939     C
C        0.821   0.6616   0.6061     C
C       0.8266   0.0586   0.2554     C
C       0.8266   0.0586   0.7446     C
C       0.8266   0.2554   0.0586     C
C       0.8266   0.2554   0.9414     C
C       0.8266   0.7446   0.0586     C
C       0.8266   0.7446   0.9414     C
C       0.8266   0.9414   0.2554     C
C       0.8266   0.9414   0.7446     C
H       0.8268   0.1732   0.3845     H
H       0.8268   0.1732   0.6155     H
H       0.8268   0.3845   0.1732     H
H       0.8268   0.3845   0.8268     H
H       0.8268   0.6155   0.1732     H
H       0.8268   0.6155   0.8268     H
H       0.8268   0.8268   0.3845     H
H       0.8268   0.8268   0.6155     H
C       0.8298   0.1474   0.4604     C
C       0.8298   0.1474   0.5396     C
C       0.8298   0.4604   0.1474     C
C       0.8298   0.4604   0.8526     C
C       0.8298   0.5396   0.1474     C
C       0.8298   0.5396   0.8526     C
C       0.8298   0.8526   0.4604     C
C       0.8298   0.8526   0.5396     C
H       0.8347   0.3148   0.4077     H
H       0.8347   0.3148   0.5923     H
H       0.8347   0.4077   0.3148     H
H       0.8347   0.4077   0.6852     H
H       0.8347   0.5923   0.3148     H
H       0.8347   0.5923   0.6852     H
H       0.8347   0.6852   0.4077     H
H       0.8347   0.6852   0.5923     H
O       0.8378   0.0847   0.4161     O
O       0.8378   0.0847   0.5839     O
O       0.8378   0.4161   0.0847     O
O       0.8378   0.4161   0.9153     O
O       0.8378   0.5839   0.0847     O
O       0.8378   0.5839   0.9153     O
O       0.8378   0.9153   0.4161     O
O       0.8378   0.9153   0.5839     O
C        0.838   0.1248   0.4172     C
C        0.838   0.1248   0.5828     C
C        0.838   0.4172   0.1248     C
C        0.838   0.4172   0.8752     C
C        0.838   0.5828   0.1248     C
C        0.838   0.5828   0.8752     C
C        0.838   0.8752   0.4172     C
C        0.838   0.8752   0.5828     C
C       0.8384   0.1061    0.321     C
C       0.8384   0.1061    0.679     C
C       0.8384    0.321   0.1061     C
C       0.8384    0.321   0.8939     C
C       0.8384    0.679   0.1061     C
C       0.8384    0.679   0.8939     C
C       0.8384   0.8939    0.321     C
C       0.8384   0.8939    0.679     C
C       0.8402   0.1286      0.5     C
C       0.8402      0.5   0.1286     C
C       0.8402      0.5   0.8714     C
C       0.8402   0.8714      0.5     C
C       0.8422   0.3605   0.3605     C
C       0.8422   0.3605   0.6395     C
C       0.8422   0.6395   0.3605     C
C       0.8422   0.6395   0.6395     C
O       0.8433   0.0447   0.2199     O
O       0.8433   0.0447   0.7801     O
O       0.8433   0.2199   0.0447     O
O       0.8433   0.2199   0.9553     O
O       0.8433   0.7801   0.0447     O
O       0.8433   0.7801   0.9553     O
O       0.8433   0.9553   0.2199     O
O       0.8433   0.9553   0.7801     O
N       0.8477   0.1523   0.3851     N
N       0.8477   0.1523   0.6149     N
N       0.8477   0.3851   0.1523     N
N       0.8477   0.3851   0.8477     N
N       0.8477   0.6149   0.1523     N
N       0.8477   0.6149   0.8477     N
N       0.8477   0.8477   0.3851     N
N       0.8477   0.8477   0.6149     N
C       0.8513    0.093   0.2794     C
C       0.8513    0.093   0.7206     C
C       0.8513   0.2794    0.093     C
C       0.8513   0.2794    0.907     C
C       0.8513   0.7206    0.093     C
C       0.8513   0.7206    0.907     C
C       0.8513    0.907   0.2794     C
C       0.8513    0.907   0.7206     C
C       0.8526   0.1702   0.4604     C
C       0.8526   0.1702   0.5396     C
C       0.8526   0.4604   0.1702     C
C       0.8526   0.4604   0.8298     C
C       0.8526   0.5396   0.1702     C
C       0.8526   0.5396   0.8298     C
C       0.8526   0.8298   0.4604     C
C       0.8526   0.8298   0.5396     C
H       0.8573    0.111      0.5     H
H       0.8573      0.5    0.111     H
H       0.8573      0.5    0.889     H
H       0.8573    0.889      0.5     H
C       0.8605   0.1395   0.3422     C
C       0.8605   0.1395   0.6578     C
C       0.8605   0.3422   0.1395     C
C       0.8605   0.3422   0.8605     C
C       0.8605   0.6578   0.1395     C
C       0.8605   0.6578   0.8605     C
C       0.8605   0.8605   0.3422     C
C       0.8605   0.8605   0.6578     C
C       0.8714   0.1598      0.5     C
C       0.8714      0.5   0.1598     C
C       0.8714      0.5   0.8402     C
C       0.8714   0.8402      0.5     C
C       0.8752    0.162   0.4172     C
C       0.8752    0.162   0.5828     C
C       0.8752   0.4172    0.162     C
C       0.8752   0.4172    0.838     C
C       0.8752   0.5828    0.162     C
C       0.8752   0.5828    0.838     C
C       0.8752    0.838   0.4172     C
C       0.8752    0.838   0.5828     C
C       0.8845   0.1155   0.2576     C
C       0.8845   0.1155   0.7424     C
C       0.8845   0.2576   0.1155     C
C       0.8845   0.2576   0.8845     C
H       0.8845   0.3268   0.3268     H
H       0.8845   0.3268   0.6732     H
H       0.8845   0.6732   0.3268     H
H       0.8845   0.6732   0.6732     H
C       0.8845   0.7424   0.1155     C
C       0.8845   0.7424   0.8845     C
C       0.8845   0.8845   0.2576     C
C       0.8845   0.8845   0.7424     C
N       0.8851   0.3477   0.3477     N
N       0.8851   0.3477   0.6523     N
N       0.8851   0.6523   0.3477     N
N       0.8851   0.6523   0.6523     N
H        0.889   0.1427      0.5     H
H        0.889      0.5   0.1427     H
H        0.889      0.5   0.8573     H
H        0.889   0.8573      0.5     H
H       0.8916   0.1084   0.2287     H
H       0.8916   0.1084   0.7713     H
H       0.8916   0.2287   0.1084     H
H       0.8916   0.2287   0.8916     H
H       0.8916   0.7713   0.1084     H
H       0.8916   0.7713   0.8916     H
H       0.8916   0.8916   0.2287     H
H       0.8916   0.8916   0.7713     H
C       0.8939   0.1616    0.321     C
C       0.8939   0.1616    0.679     C
C       0.8939    0.321   0.1616     C
C       0.8939    0.321   0.8384     C
C       0.8939    0.679   0.1616     C
C       0.8939    0.679   0.8384     C
C       0.8939   0.8384    0.321     C
C       0.8939   0.8384    0.679     C
C        0.907   0.1487   0.2794     C
C        0.907   0.1487   0.7206     C
C        0.907   0.2794   0.1487     C
C        0.907   0.2794   0.8513     C
C        0.907   0.7206   0.1487     C
C        0.907   0.7206   0.8513     C
C        0.907   0.8513   0.2794     C
C        0.907   0.8513   0.7206     C
H       0.9077   0.1852   0.3347     H
H       0.9077   0.1852   0.6653     H
H       0.9077   0.3347   0.1852     H
H       0.9077   0.3347   0.8148     H
H       0.9077   0.6653   0.1852     H
H       0.9077   0.6653   0.8148     H
H       0.9077   0.8148   0.3347     H
H       0.9077   0.8148   0.6653     H
O       0.9153   0.1622   0.4161     O
O       0.9153   0.1622   0.5839     O
O       0.9153   0.4161   0.1622     O
O       0.9153   0.4161   0.8378     O
O       0.9153   0.5839   0.1622     O
O       0.9153   0.5839   0.8378     O
O       0.9153   0.8378   0.4161     O
O       0.9153   0.8378   0.5839     O
O       0.9161   0.3378   0.4153     O
O       0.9161   0.3378   0.5847     O
O       0.9161   0.4153   0.3378     O
O       0.9161   0.4153   0.6622     O
O       0.9161   0.5847   0.3378     O
O       0.9161   0.5847   0.6622     O
O       0.9161   0.6622   0.4153     O
O       0.9161   0.6622   0.5847     O
C       0.9172    0.338   0.3752     C
C       0.9172    0.338   0.6248     C
C       0.9172   0.3752    0.338     C
C       0.9172   0.3752    0.662     C
C       0.9172   0.6248    0.338     C
C       0.9172   0.6248    0.662     C
C       0.9172    0.662   0.3752     C
C       0.9172    0.662   0.6248     C
H        0.935   0.2999   0.2999     H
H        0.935   0.2999   0.7001     H
H        0.935   0.7001   0.2999     H
H        0.935   0.7001   0.7001     H
C       0.9414   0.1734   0.2554     C
C       0.9414   0.1734   0.7446     C
C       0.9414   0.2554   0.1734     C
C       0.9414   0.2554   0.8266     C
C       0.9414   0.7446   0.1734     C
C       0.9414   0.7446   0.8266     C
C       0.9414   0.8266   0.2554     C
C       0.9414   0.8266   0.7446     C
O       0.9549   0.2086   0.2725     O
O       0.9549   0.2086   0.7275     O
O       0.9549   0.2725   0.2086     O
O       0.9549   0.2725   0.7914     O
O       0.9549   0.7275   0.2086     O
O       0.9549   0.7275   0.7914     O
O       0.9549   0.7914   0.2725     O
O       0.9549   0.7914   0.7275     O
O       0.9553   0.1567   0.2199     O
O       0.9553   0.1567   0.7801     O
O       0.9553   0.2199   0.1567     O
O       0.9553   0.2199   0.8433     O
O       0.9553   0.7801   0.1567     O
O       0.9553   0.7801   0.8433     O
O       0.9553   0.8433   0.2199     O
O       0.9553   0.8433   0.7801     O
C       0.9604   0.3298   0.3526     C
C       0.9604   0.3298   0.6474     C
C       0.9604   0.3526   0.3298     C
C       0.9604   0.3526   0.6702     C
C       0.9604   0.6474   0.3298     C
C       0.9604   0.6474   0.6702     C
C       0.9604   0.6702   0.3526     C
C       0.9604   0.6702   0.6474     C
C        0.963   0.3094   0.3094     C
C        0.963   0.3094   0.6906     C
C        0.963   0.6906   0.3094     C
C        0.963   0.6906   0.6906     C
