data_I
_chemical_name_common  '/home/zhangsd/repos/MofS-CGCNN/ML/data/WS24/clean_cifs/ESARAT'
_cell_length_a 28.94700
_cell_length_b  8.33210
_cell_length_c 18.32830
_cell_angle_alpha 90.00000
_cell_angle_beta  114.79200
_cell_angle_gamma 90.00000
_space_group_name_H-M_alt      'P 1'


loop_
_space_group_symop_operation_xyz
  'x, y, z' 

loop_
_atom_site_label
_atom_site_fract_x
_atom_site_fract_y
_atom_site_fract_z
_atom_site_type_symbol
C          0.0   0.0332     0.25     C
C          0.0   0.9668     0.75     C
O       0.0048   0.1197   0.9142     O
O       0.0048   0.8803   0.4142     O
H       0.0067   0.0354   0.7961     H
H       0.0067   0.9646   0.2961     H
N       0.0154    0.026   0.9881     N
N       0.0154    0.974   0.4881     N
H       0.0367   0.2179   0.2263     H
H       0.0367   0.7821   0.7263     H
H       0.0447   0.2693   0.3562     H
H       0.0447   0.7307   0.8562     H
C       0.0459   0.1311   0.2651     C
C       0.0459   0.8689   0.7651     C
H        0.054   0.4714   0.8707     H
H        0.054   0.5286   0.3707     H
H       0.0556   0.4225   0.7892     H
H       0.0556   0.5775   0.2892     H
H       0.0636    0.096    0.638     H
H       0.0636    0.904    0.138     H
C       0.0686   0.0156   0.0438     C
C       0.0686   0.9844   0.5438     C
C       0.0695    0.201   0.3487     C
C       0.0695    0.799   0.8487     C
H       0.0709   0.0648   0.2571     H
H       0.0709   0.9352   0.7571     H
C       0.0752   0.4312   0.8462     C
C       0.0752   0.5688   0.3462     C
H       0.0777   0.1143   0.3874     H
H       0.0777   0.8857   0.8874     H
C       0.0864   0.0523   0.6197     C
C       0.0864   0.9477   0.1197     C
H       0.0881   0.3274    0.868     H
H       0.0881   0.6726    0.368     H
H       0.0904   0.1243    0.965     H
H       0.0904   0.8757    0.465     H
C       0.1024    0.079    0.016     C
C       0.1024    0.921    0.516     C
N       0.1159   0.2954   0.3653     N
N       0.1159   0.7046   0.8653     N
C       0.1185   0.4566   0.3628     C
C       0.1185   0.5434   0.8628     C
O       0.1244   0.1965   0.7692     O
O       0.1244   0.8035   0.2692     O
C       0.1375   0.0546   0.6675     C
C       0.1375   0.9454   0.1675     C
C        0.154   0.1341   0.7484     C
C        0.154   0.8659   0.2484     C
C       0.1547   0.0746   0.0648     C
C       0.1547   0.9254   0.5648     C
C       0.1629   0.2341   0.3834     C
C       0.1629   0.7659   0.8834     C
N       0.1662   0.4992     0.38     N
N       0.1662   0.5008     0.88     N
H       0.1719   0.1262   0.3882     H
H       0.1719   0.8738   0.8882     H
C       0.1721   0.0105   0.1414     C
C       0.1721   0.9895   0.6414     C
O      0.17348   0.1595   0.9576     O
O      0.17348   0.8405   0.4576     O
C       0.1902   0.1384   0.0324     C
C       0.1902   0.8616   0.5324     C
Zn     0.19361  0.27793  0.88413    Zn
Zn     0.19361  0.72207  0.38413    Zn
C        0.194   0.3608    0.393     C
C        0.194   0.6392    0.893     C
O       0.1983   0.1339   0.7938     O
O       0.1983   0.8661   0.2938     O
H       0.2067   0.0109    0.175     H
H       0.2067   0.9891    0.675     H
H       0.2287    0.355   0.4063     H
H       0.2287    0.645   0.9063     H
O       0.2342   0.1636   0.0811     O
O       0.2342   0.8364   0.5811     O
O       0.2658   0.3364   0.9189     O
O       0.2658   0.6636   0.4189     O
H       0.2713    0.145   0.5937     H
H       0.2713    0.855   0.0937     H
H       0.2933   0.4891    0.825     H
H       0.2933   0.5109    0.325     H
O       0.3017   0.3661   0.2062     O
O       0.3017   0.6339   0.7062     O
C        0.306   0.1392    0.607     C
C        0.306   0.8608    0.107     C
Zn     0.30639  0.22207  0.11587    Zn
Zn     0.30639  0.77793  0.61587    Zn
C       0.3098   0.3616   0.9676     C
C       0.3098   0.6384   0.4676     C
O      0.32652   0.3405   0.0424     O
O      0.32652   0.6595   0.5424     O
C       0.3279   0.4895   0.8586     C
C       0.3279   0.5105   0.3586     C
H       0.3281   0.3738   0.6118     H
H       0.3281   0.6262   0.1118     H
N       0.3338   0.0008     0.62     N
N       0.3338   0.9992     0.12     N
C       0.3371   0.2659   0.6166     C
C       0.3371   0.7341   0.1166     C
C       0.3453   0.4254   0.9352     C
C       0.3453   0.5746   0.4352     C
C        0.346   0.3659   0.2516     C
C        0.346   0.6341   0.7516     C
C       0.3625   0.4454   0.3325     C
C       0.3625   0.5546   0.8325     C
O       0.3756   0.3035   0.2308     O
O       0.3756   0.6965   0.7308     O
C       0.3815   0.0434   0.6372     C
C       0.3815   0.9566   0.1372     C
N       0.3841   0.2046   0.6347     N
N       0.3841   0.7954   0.1347     N
C       0.3976    0.421    0.984     C
C       0.3976    0.579    0.484     C
H       0.4096   0.3757    0.035     H
H       0.4096   0.6243    0.535     H
H       0.4119   0.1726    0.132     H
H       0.4119   0.8274    0.632     H
C       0.4136   0.4477   0.3803     C
C       0.4136   0.5523   0.8803     C
H       0.4223   0.3857   0.6126     H
H       0.4223   0.6143   0.1126     H
C       0.4248   0.0688   0.1538     C
C       0.4248   0.9312   0.6538     C
H       0.4291   0.4352   0.7429     H
H       0.4291   0.5648   0.2429     H
C       0.4305    0.299   0.6513     C
C       0.4305    0.701   0.1513     C
C       0.4314   0.4844   0.9562     C
C       0.4314   0.5156   0.4562     C
H       0.4364    0.404    0.362     H
H       0.4364    0.596    0.862     H
H       0.4444   0.0775   0.2108     H
H       0.4444   0.9225   0.7108     H
H        0.446   0.0286   0.1293     H
H        0.446   0.9714   0.6293     H
C       0.4541   0.3689   0.7349     C
C       0.4541   0.6311   0.2349     C
H       0.4553   0.2307   0.6438     H
H       0.4553   0.7693   0.1438     H
H       0.4633   0.2821   0.7737     H
H       0.4633   0.7179   0.2737     H
N       0.4846    0.474   0.0119     N
N       0.4846    0.526   0.5119     N
H       0.4933   0.4646   0.2039     H
H       0.4933   0.5354   0.7039     H
O       0.4952   0.3803   0.0858     O
O       0.4952   0.6197   0.5858     O
C          0.5   0.4668     0.75     C
C          0.5   0.5332     0.25     C
O       0.5048   0.3803   0.4142     O
O       0.5048   0.6197   0.9142     O
H       0.5067   0.4646   0.2961     H
H       0.5067   0.5354   0.7961     H
N       0.5154    0.474   0.4881     N
N       0.5154    0.526   0.9881     N
H       0.5367   0.2821   0.7263     H
H       0.5367   0.7179   0.2263     H
H       0.5447   0.2307   0.8562     H
H       0.5447   0.7693   0.3562     H
C       0.5459   0.3689   0.7651     C
C       0.5459   0.6311   0.2651     C
H        0.554   0.0286   0.3707     H
H        0.554   0.9714   0.8707     H
H       0.5556   0.0775   0.2892     H
H       0.5556   0.9225   0.7892     H
H       0.5636    0.404    0.138     H
H       0.5636    0.596    0.638     H
C       0.5686   0.4844   0.5438     C
C       0.5686   0.5156   0.0438     C
C       0.5695    0.299   0.8487     C
C       0.5695    0.701   0.3487     C
H       0.5709   0.4352   0.7571     H
H       0.5709   0.5648   0.2571     H
C       0.5752   0.0688   0.3462     C
C       0.5752   0.9312   0.8462     C
H       0.5777   0.3857   0.8874     H
H       0.5777   0.6143   0.3874     H
C       0.5864   0.4477   0.1197     C
C       0.5864   0.5523   0.6197     C
H       0.5881   0.1726    0.368     H
H       0.5881   0.8274    0.868     H
H       0.5904   0.3757    0.465     H
H       0.5904   0.6243    0.965     H
C       0.6024    0.421    0.516     C
C       0.6024    0.579    0.016     C
N       0.6159   0.2046   0.8653     N
N       0.6159   0.7954   0.3653     N
C       0.6185   0.0434   0.8628     C
C       0.6185   0.9566   0.3628     C
O       0.6244   0.3035   0.2692     O
O       0.6244   0.6965   0.7692     O
C       0.6375   0.4454   0.1675     C
C       0.6375   0.5546   0.6675     C
C        0.654   0.3659   0.2484     C
C        0.654   0.6341   0.7484     C
C       0.6547   0.4254   0.5648     C
C       0.6547   0.5746   0.0648     C
C       0.6629   0.2659   0.8834     C
C       0.6629   0.7341   0.3834     C
N       0.6662   0.0008     0.88     N
N       0.6662   0.9992     0.38     N
H       0.6719   0.3738   0.8882     H
H       0.6719   0.6262   0.3882     H
C       0.6721   0.4895   0.6414     C
C       0.6721   0.5105   0.1414     C
O      0.67348   0.3405   0.4576     O
O      0.67348   0.6595   0.9576     O
C       0.6902   0.3616   0.5324     C
C       0.6902   0.6384   0.0324     C
Zn     0.69361  0.22207  0.38413    Zn
Zn     0.69361  0.77793  0.88413    Zn
C        0.694   0.1392    0.893     C
C        0.694   0.8608    0.393     C
O       0.6983   0.3661   0.2938     O
O       0.6983   0.6339   0.7938     O
H       0.7067   0.4891    0.675     H
H       0.7067   0.5109    0.175     H
H       0.7287    0.145   0.9063     H
H       0.7287    0.855   0.4063     H
O       0.7342   0.3364   0.5811     O
O       0.7342   0.6636   0.0811     O
O       0.7658   0.1636   0.4189     O
O       0.7658   0.8364   0.9189     O
H       0.7713    0.355   0.0937     H
H       0.7713    0.645   0.5937     H
H       0.7933   0.0109    0.325     H
H       0.7933   0.9891    0.825     H
O       0.8017   0.1339   0.7062     O
O       0.8017   0.8661   0.2062     O
C        0.806   0.3608    0.107     C
C        0.806   0.6392    0.607     C
Zn     0.80639  0.27793  0.61587    Zn
Zn     0.80639  0.72207  0.11587    Zn
C       0.8098   0.1384   0.4676     C
C       0.8098   0.8616   0.9676     C
O      0.82652   0.1595   0.5424     O
O      0.82652   0.8405   0.0424     O
C       0.8279   0.0105   0.3586     C
C       0.8279   0.9895   0.8586     C
H       0.8281   0.1262   0.1118     H
H       0.8281   0.8738   0.6118     H
N       0.8338   0.4992     0.12     N
N       0.8338   0.5008     0.62     N
C       0.8371   0.2341   0.1166     C
C       0.8371   0.7659   0.6166     C
C       0.8453   0.0746   0.4352     C
C       0.8453   0.9254   0.9352     C
C        0.846   0.1341   0.7516     C
C        0.846   0.8659   0.2516     C
C       0.8625   0.0546   0.8325     C
C       0.8625   0.9454   0.3325     C
O       0.8756   0.1965   0.7308     O
O       0.8756   0.8035   0.2308     O
C       0.8815   0.4566   0.1372     C
C       0.8815   0.5434   0.6372     C
N       0.8841   0.2954   0.1347     N
N       0.8841   0.7046   0.6347     N
C       0.8976    0.079    0.484     C
C       0.8976    0.921    0.984     C
H       0.9096   0.1243    0.535     H
H       0.9096   0.8757    0.035     H
H       0.9119   0.3274    0.632     H
H       0.9119   0.6726    0.132     H
C       0.9136   0.0523   0.8803     C
C       0.9136   0.9477   0.3803     C
H       0.9223   0.1143   0.1126     H
H       0.9223   0.8857   0.6126     H
C       0.9248   0.4312   0.6538     C
C       0.9248   0.5688   0.1538     C
H       0.9291   0.0648   0.2429     H
H       0.9291   0.9352   0.7429     H
C       0.9305    0.201   0.1513     C
C       0.9305    0.799   0.6513     C
C       0.9314   0.0156   0.4562     C
C       0.9314   0.9844   0.9562     C
H       0.9364    0.096    0.862     H
H       0.9364    0.904    0.362     H
H       0.9444   0.4225   0.7108     H
H       0.9444   0.5775   0.2108     H
H        0.946   0.4714   0.6293     H
H        0.946   0.5286   0.1293     H
C       0.9541   0.1311   0.2349     C
C       0.9541   0.8689   0.7349     C
H       0.9553   0.2693   0.1438     H
H       0.9553   0.7307   0.6438     H
H       0.9633   0.2179   0.2737     H
H       0.9633   0.7821   0.7737     H
N       0.9846    0.026   0.5119     N
N       0.9846    0.974   0.0119     N
H       0.9933   0.0354   0.7039     H
H       0.9933   0.9646   0.2039     H
O       0.9952   0.1197   0.5858     O
O       0.9952   0.8803   0.0858     O
