data_I
_chemical_name_common  '/home/zhangsd/repos/MofS-CGCNN/ML/data/WS24/clean_cifs/ESAROH'
_cell_length_a 10.37300
_cell_length_b 15.08800
_cell_length_c 24.12600
_cell_angle_alpha 90.00000
_cell_angle_beta  90.00000
_cell_angle_gamma 90.00000
_space_group_name_H-M_alt      'P 1'


loop_
_space_group_symop_operation_xyz
  'x, y, z' 

loop_
_atom_site_label
_atom_site_fract_x
_atom_site_fract_y
_atom_site_fract_z
_atom_site_type_symbol
C       0.0067   0.1027   0.3811     C
N       0.0249   0.0222   0.4091     N
C       0.0272   0.8092   0.9088     C
H       0.0299   0.3572   0.0658     H
C       0.0307   0.7666   0.6761     C
C       0.0331   0.8074   0.8513     C
C       0.0367   0.1949   0.9065     C
N       0.0375   0.7748   0.7382     N
C       0.0385   0.7519   0.5624     C
H       0.0402   0.7476    0.524     H
H       0.0451   0.6596   0.4023     H
C       0.0459   0.2476   0.6781     C
C       0.0477   0.2034   0.8491     C
N       0.0489    0.242   0.7349     N
H       0.0501   0.5684   0.7819     H
O       0.0502   0.9017   0.9851     O
C       0.0509    0.248   0.5628     C
H       0.0522   0.2481   0.5243     H
O       0.0615   0.0931   0.9794     O
H       0.0641   0.4612   0.8488     H
H       0.0681   0.1472   0.3774     H
N       0.0684   0.5251   0.4172     N
H       0.0796    0.556   0.6881     H
C       0.0839   0.4783   0.0955     C
H       0.0885   0.8453   0.8324     H
H       0.0908   0.5552   0.8736     H
Zn     0.09298  0.99976  0.04028    Zn
C       0.0969   0.6098   0.3976     C
C       0.0978   0.8789   0.9407     C
H        0.099   0.3506   0.4219     H
H       0.1046   0.1687   0.8287     H
C       0.1105   0.8151   0.5893     C
C       0.1108   0.1216    0.935     C
C       0.1108   0.6053    0.139     C
C        0.111    0.388   0.0714     C
C       0.1115   0.8212   0.6461     C
C       0.1253   0.5098   0.8493     C
C       0.1271   0.1866   0.5921     C
C       0.1278   0.1887   0.6499     C
O       0.1319   0.8322   0.7513     O
C       0.1352   0.5472    0.792     C
H       0.1359    0.436   0.7441     H
H       0.1386   0.4309   0.9911     H
O       0.1407   0.9046   0.5112     O
H       0.1466   0.6513   0.1596     H
H       0.1475    0.437   0.6364     H
O       0.1544   0.0941   0.5148     O
H        0.161   0.5295    0.608     H
H       0.1615    0.354   0.0977     H
C       0.1641   0.4738    0.402     C
H       0.1649   0.5965    0.969     H
H       0.1655   0.8613   0.6639     H
C       0.1682   0.5356     0.69     C
N       0.1717   0.5272   0.1242     N
O       0.1797   0.2375   0.7553     O
H       0.1822   0.1513   0.6697     H
C       0.1828   0.3782   0.4172     C
C        0.183   0.4915   0.7445     C
C       0.1837   0.3924   0.0161     C
Zn     0.18487    9e-05  0.45426    Zn
C       0.1861   0.8818   0.5558     C
H        0.189   0.3341   0.0003     H
H       0.1907   0.5988   0.7941     H
C       0.1952   0.4923   0.6373     C
O       0.1972   0.9097   0.9173     O
O       0.1973   0.9095   0.0831     O
C        0.203    0.119   0.5604     C
O       0.2077   0.0923   0.0773     O
H       0.2082   0.3812   0.5014     H
C       0.2096   0.6086   0.3714     C
H       0.2128   0.6948    0.973     H
O       0.2136   0.0958   0.9131     O
H       0.2218   0.5883   0.6912     H
H       0.2265   0.3482    0.387     H
H       0.2267   0.5221   0.2504     H
H        0.231   0.5851   0.5223     H
C       0.2395   0.6341     0.97     C
N       0.2467   0.4775   0.8729     N
H        0.249   0.3433   0.8551     H
H        0.251   0.6567   0.3551     H
N       0.2533   0.5225   0.3729     N
C       0.2605   0.3659     0.47     C
H        0.269   0.4149   0.0223     H
H       0.2733   0.4779   0.7504     H
H       0.2735   0.6518    0.887     H
H       0.2782   0.4117   0.1912     H
O       0.2864   0.9042   0.4131     O
H       0.2872   0.3052    0.473     H
C       0.2904   0.3914   0.8714     C
H       0.2918   0.6188   0.0014     H
O       0.2923   0.9077   0.5773     O
C        0.297    0.881   0.0604     C
O       0.3027   0.0905   0.5831     O
O       0.3028   0.0903   0.4173     O
C       0.3048   0.5077   0.1373     C
H       0.3093   0.4012   0.2941     H
H        0.311   0.6659   0.5003     H
C       0.3139   0.1182   0.0558     C
Zn     0.31513  0.99991  0.95426    Zn
C       0.3163   0.6076   0.5161     C
C        0.317   0.5085   0.2445     C
C       0.3172   0.6218   0.9172     C
H       0.3178   0.8487   0.1697     H
O       0.3203   0.7625   0.2553     O
N       0.3283   0.4728   0.6242     N
C       0.3318   0.4644     0.19     C
H       0.3345   0.1387   0.1639     H
H       0.3351   0.4035    0.469     H
C       0.3359   0.5262    0.902     C
H       0.3385    0.646   0.5977     H
H        0.339   0.4705    0.108     H
O       0.3456   0.9059   0.0148     O
H       0.3525    0.563   0.1364     H
H       0.3534   0.3487   0.6596     H
O       0.3593   0.0954   0.0112     O
H       0.3614   0.5691   0.4911     H
H       0.3641    0.564   0.2441     H
C       0.3648   0.4528    0.292     C
O       0.3681   0.1678   0.2513     O
C       0.3722   0.8113   0.1499     C
C       0.3729   0.8134   0.0921     C
C       0.3747   0.4902   0.3493     C
C       0.3885   0.1788   0.1461     C
C        0.389    0.612   0.5714     C
C       0.3892   0.3947    0.639     C
C       0.3892   0.8784    0.435     C
C       0.3895   0.1849   0.0893     C
H       0.3954   0.8313   0.3287     H
H        0.401   0.6494   0.9219     H
C       0.4022   0.1211   0.4407     C
C       0.4031   0.3902   0.8976     C
Zn     0.40702  0.00024  0.54028    Zn
H       0.4092   0.4448   0.3736     H
H       0.4115   0.1547   0.3324     H
C       0.4161   0.5217   0.5955     C
H       0.4204    0.444   0.1881     H
N       0.4316   0.4749   0.9172     N
H       0.4319   0.8528   0.8774     H
H       0.4359   0.5388   0.3488     H
O       0.4385   0.9069   0.4794     O
H       0.4478   0.7519   0.0243     H
C       0.4491    0.752   0.0628     C
O       0.4498   0.0983   0.4851     O
H       0.4499   0.4316   0.2819     H
N       0.4511    0.758   0.2349     N
C       0.4523   0.7966   0.3491     C
C       0.4541   0.7524   0.1781     C
H       0.4549   0.3404   0.9023     H
H       0.4598   0.2524    0.024     H
C       0.4615   0.2481   0.0624     C
N       0.4625   0.2252   0.2382     N
C       0.4633   0.8051   0.4065     C
C       0.4669   0.1926   0.3513     C
C       0.4693   0.2334   0.1761     C
H       0.4701   0.6428   0.5658     H
C       0.4728   0.1908   0.4088     C
N       0.4751   0.9778   0.9091     N
C       0.4933   0.8973   0.8811     C
C       0.5067   0.3973   0.6189     C
N       0.5249   0.4778   0.5909     N
C       0.5272   0.6908   0.0912     C
H       0.5299   0.1428   0.9342     H
C       0.5307   0.7334   0.3239     C
C       0.5331   0.6926   0.1487     C
C       0.5367   0.3051   0.0935     C
N       0.5375   0.7252   0.2618     N
C       0.5385   0.7481   0.4376     C
H       0.5402   0.7524    0.476     H
H       0.5451   0.8404   0.5977     H
C       0.5459   0.2524   0.3219     C
C       0.5477   0.2966   0.1509     C
N       0.5489    0.258   0.2651     N
H       0.5501   0.9316   0.2181     H
O       0.5502   0.5983   0.0149     O
C       0.5509    0.252   0.4372     C
H       0.5522   0.2519   0.4757     H
O       0.5615   0.4069   0.0206     O
H       0.5641   0.0388   0.1512     H
H       0.5681   0.3528   0.6226     H
N       0.5684   0.9749   0.5828     N
H       0.5796    0.944   0.3119     H
C       0.5839   0.0217   0.9045     C
H       0.5885   0.6547   0.1676     H
H       0.5908   0.9448   0.1264     H
Zn     0.59298  0.50024  0.95972    Zn
C       0.5969   0.8902   0.6024     C
C       0.5978   0.6211   0.0593     C
H        0.599   0.1494   0.5781     H
H       0.6046   0.3313   0.1713     H
C       0.6105   0.6849   0.4107     C
C       0.6108   0.3784    0.065     C
C       0.6108   0.8947    0.861     C
C        0.611    0.112   0.9286     C
C       0.6115   0.6788   0.3539     C
C       0.6253   0.9902   0.1507     C
C       0.6271   0.3134   0.4079     C
C       0.6278   0.3113   0.3501     C
O       0.6319   0.6678   0.2487     O
C       0.6352   0.9528    0.208     C
H       0.6359    0.064   0.2559     H
H       0.6386   0.0691   0.0089     H
O       0.6407   0.5954   0.4888     O
H       0.6466   0.8487   0.8404     H
H       0.6475    0.063   0.3636     H
O       0.6544   0.4059   0.4852     O
H        0.661   0.9705    0.392     H
H       0.6615    0.146   0.9023     H
C       0.6641   0.0262    0.598     C
H       0.6649   0.9035    0.031     H
H       0.6655   0.6387   0.3361     H
C       0.6682   0.9644     0.31     C
N       0.6717   0.9728   0.8758     N
O       0.6797   0.2625   0.2447     O
H       0.6822   0.3487   0.3303     H
C       0.6828   0.1218   0.5828     C
C        0.683   0.0085   0.2555     C
C       0.6837   0.1076   0.9839     C
Zn     0.68487  0.49991  0.54574    Zn
C       0.6861   0.6182   0.4442     C
H        0.689   0.1659   0.9997     H
H       0.6907   0.9012   0.2059     H
C       0.6952   0.0077   0.3627     C
O       0.6972   0.5903   0.0827     O
O       0.6973   0.5905   0.9169     O
C        0.703    0.381   0.4396     C
O       0.7077   0.4077   0.9227     O
H       0.7082   0.1188   0.4986     H
C       0.7096   0.8914   0.6286     C
H       0.7128   0.8052    0.027     H
O       0.7136   0.4042   0.0869     O
H       0.7218   0.9117   0.3088     H
H       0.7265   0.1518    0.613     H
H       0.7267   0.9779   0.7496     H
H        0.731   0.9149   0.4777     H
C       0.7395   0.8659     0.03     C
N       0.7467   0.0225   0.1271     N
H        0.749   0.1567   0.1449     H
H        0.751   0.8433   0.6449     H
N       0.7533   0.9775   0.6271     N
C       0.7605   0.1341     0.53     C
H        0.769   0.0851   0.9777     H
H       0.7733   0.0221   0.2496     H
H       0.7735   0.8482    0.113     H
H       0.7782   0.0883   0.8088     H
O       0.7864   0.5958   0.5869     O
H       0.7872   0.1948    0.527     H
C       0.7904   0.1086   0.1286     C
H       0.7918   0.8812   0.9986     H
O       0.7923   0.5923   0.4227     O
C        0.797    0.619   0.9396     C
O       0.8027   0.4095   0.4169     O
O       0.8028   0.4097   0.5827     O
C       0.8048   0.9923   0.8627     C
H       0.8093   0.0988   0.7059     H
H        0.811   0.8341   0.4997     H
C       0.8139   0.3818   0.9442     C
Zn     0.81513  0.50009  0.04574    Zn
C       0.8163   0.8924   0.4839     C
C        0.817   0.9915   0.7555     C
C       0.8172   0.8782   0.0828     C
H       0.8178   0.6513   0.8303     H
O       0.8203   0.7375   0.7447     O
N       0.8283   0.0272   0.3758     N
C       0.8318   0.0356     0.81     C
H       0.8345   0.3613   0.8361     H
H       0.8351   0.0965    0.531     H
C       0.8359   0.9738    0.098     C
H       0.8385    0.854   0.4023     H
H        0.839   0.0295    0.892     H
O       0.8456   0.5941   0.9852     O
H       0.8525    0.937   0.8636     H
H       0.8534   0.1513   0.3404     H
O       0.8593   0.4046   0.9888     O
H       0.8614   0.9309   0.5089     H
H       0.8641    0.936   0.7559     H
C       0.8648   0.0472    0.708     C
O       0.8681   0.3322   0.7487     O
C       0.8722   0.6887   0.8501     C
C       0.8729   0.6866   0.9079     C
C       0.8747   0.0098   0.6507     C
C       0.8885   0.3212   0.8539     C
C        0.889    0.888   0.4286     C
C       0.8892   0.1053    0.361     C
C       0.8892   0.6216    0.565     C
C       0.8895   0.3151   0.9107     C
H       0.8954   0.6687   0.6713     H
H        0.901   0.8506   0.0781     H
C       0.9022   0.3789   0.5593     C
C       0.9031   0.1098   0.1024     C
Zn     0.90702  0.49976  0.45972    Zn
H       0.9092   0.0552   0.6264     H
H       0.9115   0.3453   0.6676     H
C       0.9161   0.9783   0.4045     C
H       0.9204    0.056   0.8119     H
N       0.9316   0.0251   0.0828     N
H       0.9319   0.6472   0.1226     H
H       0.9359   0.9612   0.6512     H
O       0.9385   0.5931   0.5206     O
H       0.9478   0.7481   0.9757     H
C       0.9491    0.748   0.9372     C
O       0.9498   0.4017   0.5149     O
H       0.9499   0.0684   0.7181     H
N       0.9511    0.742   0.7651     N
C       0.9523   0.7034   0.6509     C
C       0.9541   0.7476   0.8219     C
H       0.9549   0.1596   0.0977     H
H       0.9598   0.2476    0.976     H
C       0.9615   0.2519   0.9376     C
N       0.9625   0.2748   0.7618     N
C       0.9633   0.6949   0.5935     C
C       0.9669   0.3074   0.6487     C
C       0.9693   0.2666   0.8239     C
H       0.9701   0.8572   0.4342     H
C       0.9728   0.3092   0.5912     C
N       0.9751   0.5222   0.0909     N
C       0.9933   0.6027   0.1189     C
