data_I
_chemical_name_common  '/home/zhangsd/repos/MofS-CGCNN/ML/data/WS24/clean_cifs/FEYDET'
_cell_length_a  7.31810
_cell_length_b 17.02000
_cell_length_c 10.57890
_cell_angle_alpha 90.00000
_cell_angle_beta  102.65100
_cell_angle_gamma 90.00000
_space_group_name_H-M_alt      'P 1'


loop_
_space_group_symop_operation_xyz
  'x, y, z' 

loop_
_atom_site_label
_atom_site_fract_x
_atom_site_fract_y
_atom_site_fract_z
_atom_site_type_symbol
C        0.019    0.658   0.9161     C
C       0.0243   0.5772   0.9147     C
H       0.0459   0.9827   0.2063     H
C        0.047   0.0373   0.2034     C
C        0.056   0.2893    0.189     C
C        0.059   0.2008   0.1925     C
H       0.0699   0.6844   0.9927     H
O       0.0803   0.9502   0.7094     O
O        0.084   0.8204   0.8873     O
C        0.098   0.5295   0.0351     C
O       0.1111   0.4572   0.0348     O
O       0.1167   0.9713   0.4502     O
C       0.1175   0.0792   0.3115     C
C       0.1333   0.1607   0.3071     C
O       0.1445   0.5673   0.1427     O
C        0.184   0.0378   0.4388     C
O       0.1932   0.3285   0.2591     O
H       0.1933   0.1883   0.3804     H
In     0.20093  0.45343  0.26209    In
O       0.2541   0.5496   0.4096     O
H       0.2813    0.655   0.5706     H
O       0.2825   0.7892    0.679     O
O       0.2972   0.4333   0.5011     O
C        0.299   0.5062   0.5061     C
O          0.3   0.0694   0.5321     O
In     0.30667  0.89814  0.81957    In
O       0.3309   0.0367   0.9182     O
C        0.343   0.6269   0.6429     C
C        0.361   0.5465   0.6353     C
C         0.39   0.7519   0.7722     C
C        0.402   0.0012   0.0158     C
O        0.414   0.9252   0.0196     O
C        0.417   0.6666    0.759     C
C       0.4462   0.5057   0.7474     C
H       0.4594   0.4515   0.7437     H
H       0.4616   0.1503   0.0528     H
O        0.462   0.7875   0.8735     O
C       0.4878   0.0446    0.135     C
O       0.4956    0.451   0.2672     O
C        0.496   0.6241   0.8692     C
C        0.504   0.1241   0.1308     C
O       0.5044    0.951   0.7328     O
C       0.5122   0.5446    0.865     C
O        0.538   0.2875   0.1265     O
H       0.5384   0.6503   0.9472     H
H       0.5406   0.9515   0.2563     H
C       0.5538   0.0057   0.2526     C
C        0.583   0.1666    0.241     C
O        0.586   0.4252   0.9804     O
C        0.598   0.5012   0.9842     C
C         0.61   0.2519   0.2278     C
C        0.639   0.0465   0.3647     C
C        0.657   0.1269   0.3571     C
O       0.6691   0.5367   0.0818     O
In     0.69333  0.39814  0.18043    In
O          0.7   0.5694   0.4679     O
C        0.701   0.0062   0.4939     C
O       0.7028   0.9333   0.4989     O
O       0.7175   0.2892    0.321     O
H       0.7187    0.155   0.4294     H
O       0.7459   0.0496   0.5904     O
In     0.79907  0.95343  0.73791    In
H       0.8067   0.6883   0.6196     H
O       0.8068   0.8285   0.7409     O
C        0.816   0.5378   0.5612     C
O       0.8555   0.0673   0.8573     O
C       0.8667   0.6607   0.6929     C
C       0.8825   0.5792   0.6885     C
O       0.8833   0.4713   0.5498     O
O       0.8889   0.9572   0.9652     O
C        0.902   0.0295   0.9649     C
O        0.916   0.3204   0.1127     O
O       0.9197   0.4502   0.2906     O
H       0.9301   0.1844   0.0073     H
C        0.941   0.7008   0.8075     C
C        0.944   0.7893    0.811     C
C        0.953   0.5373   0.7966     C
H       0.9541   0.4827   0.7937     H
C       0.9757   0.0772   0.0853     C
C        0.981    0.158   0.0839     C
