data_I
_chemical_name_common  '/home/zhangsd/repos/MofS-CGCNN/ML/data/WS24/clean_cifs/FOJLOH'
_cell_length_a 36.99100
_cell_length_b  8.39400
_cell_length_c 36.94000
_cell_angle_alpha 90.00000
_cell_angle_beta  116.75000
_cell_angle_gamma 90.00000
_space_group_name_H-M_alt      'P 1'


loop_
_space_group_symop_operation_xyz
  'x, y, z' 

loop_
_atom_site_label
_atom_site_fract_x
_atom_site_fract_y
_atom_site_fract_z
_atom_site_type_symbol
C      0.00161   0.3463  0.44336     C
C      0.00161   0.6537  0.94336     C
C      0.00302   0.2462  0.50574     C
C      0.00302   0.7538  0.00574     C
H        0.005   0.4195   0.3919     H
H        0.005   0.5805   0.8919     H
H       0.0079   0.2743   0.5627     H
H       0.0079   0.7257   0.0627     H
C      0.02061   0.3378  0.48485     C
C      0.02061   0.6622  0.98485     C
C       0.0226   0.4232   0.4205     C
C       0.0226   0.5768   0.9205     C
C      0.02452   0.2304  0.55139     C
C      0.02452   0.7696  0.05139     C
H        0.029   0.4679    0.929     H
H        0.029   0.5321    0.429     H
H       0.0296   0.1199   0.5586     H
H       0.0296   0.8801   0.0586     H
H       0.0307    0.018   0.9724     H
H       0.0307    0.982   0.4724     H
C      0.03442    0.173  0.01622     C
C      0.03442    0.827  0.51622     C
C      0.03704   0.2803  0.07809     C
C      0.03704   0.7197  0.57809     C
H       0.0435   0.3561   0.1339     H
H       0.0435   0.6439   0.6339     H
H       0.0472   0.3664   0.4263     H
H       0.0472   0.6336   0.9263     H
H       0.0497    0.287   0.5618     H
H       0.0497    0.713   0.0618     H
C      0.05201   0.0749  0.99466     C
C      0.05201   0.9251  0.49466     C
C       0.0555   0.1945  0.05836     C
C       0.0555   0.8055  0.55836     C
H       0.0599   0.4747   0.5325     H
H       0.0599   0.5253   0.0325     H
C      0.06014   0.4231  0.50913     C
C      0.06014   0.5769  0.00913     C
C      0.06117   0.3232   0.1222     C
C      0.06117   0.6768   0.6222     C
H       0.0644   0.4963   0.9926     H
H       0.0644   0.5037   0.4926     H
H       0.0708   0.0024   0.5131     H
H       0.0708   0.9976   0.0131     H
O       0.0727   0.1791  0.97952     O
O       0.0727   0.8209  0.47952     O
H       0.0775   0.1241   0.4607     H
H       0.0775   0.2339   0.1376     H
H       0.0775   0.7661   0.6376     H
H       0.0775   0.8759   0.9607     H
O      0.08638   0.4535  0.12169     O
O      0.08638   0.5465  0.62169     O
C      0.08677   0.1095  0.95489     C
C      0.08677   0.8905  0.45489     C
C      0.08767   0.0524  0.44831     C
C      0.08767   0.9476  0.94831     C
H       0.0898   0.4356   0.1952     H
H       0.0898   0.5644   0.6952     H
O      0.09234    0.303  0.52214     O
O      0.09234    0.697  0.02214     O
H       0.0977   0.0168    0.078     H
H       0.0977   0.9832    0.578     H
C      0.09797   0.1302  0.08151     C
C      0.09797   0.8698  0.58151     C
H       0.1001   0.3247   0.9393     H
H       0.1001   0.6753   0.4393     H
C       0.1011   0.2156   0.9354     C
C       0.1011   0.7844   0.4354     C
C       0.1024   0.4741   0.6915     C
C       0.1024   0.5259   0.1915     C
C      0.10353    0.449  0.65538     C
C      0.10353    0.551  0.15538     C
C       0.1038   0.1073   0.4231     C
C       0.1038   0.8927   0.9231     C
H       0.1055   0.2163   0.4196     H
H       0.1055   0.7837   0.9196     H
H        0.108   0.1547   0.1098     H
H        0.108   0.8453   0.6098     H
H       0.1152   0.1783   0.0714     H
H       0.1152   0.8217   0.5714     H
C       0.1172   0.1579   0.9098     C
C       0.1172   0.8421   0.4098     C
C       0.1176   0.0004   0.9029     C
C       0.1176   0.9996   0.4029     C
H       0.1187   0.3809   0.7467     H
H       0.1187   0.6191   0.2467     H
C       0.1199   0.3646  0.72235     C
C       0.1199   0.6354  0.22235     C
H        0.121   0.3033   0.3786     H
H        0.121   0.6967   0.8786     H
H       0.1225   0.4045   0.0442     H
H       0.1225   0.5955   0.5442     H
C       0.1241   0.3174   0.6507     C
C       0.1241   0.6826   0.1507     C
H       0.1268    0.303   0.6271     H
H       0.1268    0.697   0.1271     H
H       0.1277    0.229   0.8976     H
H       0.1277    0.771   0.3976     H
C      0.13061   0.3562  0.54721     C
C      0.13061   0.6438  0.04721     C
C       0.1338   0.0633   0.3746     C
C       0.1338   0.9367   0.8746     C
O       0.1364   0.2183   0.3723     O
O       0.1364   0.7817   0.8723     O
C      0.13881   0.2336  0.71777     C
C      0.13881   0.7664  0.21777     C
C       0.1402   0.2106   0.6818     C
C       0.1402   0.7894   0.1818     C
C      0.14167   0.4846  0.05589     C
C      0.14167   0.5154  0.55589     C
O      0.14448   0.0403   0.8573     O
O      0.14448   0.9597   0.3573     O
H       0.1524    0.119   0.6784     H
H       0.1524    0.881   0.1784     H
H       0.1529   0.1309   0.5563     H
H       0.1529   0.8691   0.0563     H
O      0.15352   0.1375  0.78289     O
O      0.15352   0.8625  0.28289     O
C       0.1563   0.1143   0.7522     C
C       0.1563   0.8857   0.2522     C
C      0.15991   0.2371  0.56288     C
C      0.15991   0.7629  0.06288     C
Zn     0.16925  0.03267  0.32298    Zn
Zn     0.16925  0.96733  0.82298    Zn
O       0.1779   0.0119   0.7497     O
O       0.1779   0.9881   0.2497     O
C      0.18069    0.447  0.08166     C
C      0.18069    0.553  0.58166     C
H       0.1879   0.3406   0.0878     H
H       0.1879   0.6594   0.5878     H
C      0.19953   0.2791  0.58839     C
C      0.19953   0.7209  0.08839     C
C      0.21007    0.436  0.59905     C
C      0.21007    0.564  0.09905     C
H       0.2193   0.2004   0.5985     H
H       0.2193   0.7996   0.0985     H
O      0.22138    0.132   0.3553     O
O      0.22138    0.868   0.8553     O
O       0.2373   0.1237  0.86743     O
O       0.2373   0.8763  0.36743     O
C      0.24652   0.0149  0.37251     C
C      0.24652   0.9851  0.87251     C
C      0.25348   0.4851  0.62749     C
C      0.25348   0.5149  0.12749     C
O       0.2627   0.3763  0.13257     O
O       0.2627   0.6237  0.63257     O
O      0.27862    0.368   0.6447     O
O      0.27862    0.632   0.1447     O
H       0.2807   0.2996   0.4015     H
H       0.2807   0.7004   0.9015     H
C      0.28993    0.064  0.40095     C
C      0.28993    0.936  0.90095     C
C      0.30047   0.2209  0.41161     C
C      0.30047   0.7791  0.91161     C
H       0.3121   0.1594   0.9122     H
H       0.3121   0.8406   0.4122     H
C      0.31931    0.053  0.91834     C
C      0.31931    0.947  0.41834     C
O       0.3221   0.4881   0.2503     O
O       0.3221   0.5119   0.7503     O
Zn     0.33075  0.46733  0.67702    Zn
Zn     0.33075  0.53267  0.17702    Zn
C      0.34009   0.2629  0.43712     C
C      0.34009   0.7371  0.93712     C
C       0.3437   0.3857   0.2478     C
C       0.3437   0.6143   0.7478     C
O      0.34648   0.3625  0.21711     O
O      0.34648   0.6375  0.71711     O
H       0.3471   0.3691   0.4437     H
H       0.3471   0.6309   0.9437     H
H       0.3476    0.381   0.3216     H
H       0.3476    0.619   0.8216     H
O      0.35552   0.4597   0.1427     O
O      0.35552   0.5403   0.6427     O
C      0.35833   0.0154  0.94411     C
C      0.35833   0.9846  0.44411     C
C       0.3598   0.2894   0.3182     C
C       0.3598   0.7106   0.8182     C
C      0.36119   0.2664  0.28223     C
C      0.36119   0.7336  0.78223     C
O       0.3636   0.2817   0.6277     O
O       0.3636   0.7183   0.1277     O
C       0.3662   0.4367   0.6254     C
C       0.3662   0.5633   0.1254     C
C      0.36939   0.1438  0.45279     C
C      0.36939   0.8562  0.95279     C
H       0.3723    0.271   0.1024     H
H       0.3723    0.729   0.6024     H
H       0.3732    0.197   0.3729     H
H       0.3732    0.803   0.8729     H
C       0.3759   0.1826   0.3493     C
C       0.3759   0.8174   0.8493     C
H       0.3775   0.0955   0.9558     H
H       0.3775   0.9045   0.4558     H
H        0.379   0.1967   0.6214     H
H        0.379   0.8033   0.1214     H
C       0.3801   0.1354  0.27765     C
C       0.3801   0.8646  0.77765     C
H       0.3813   0.1191   0.2533     H
H       0.3813   0.8809   0.7533     H
C       0.3824   0.4996   0.0971     C
C       0.3824   0.5004   0.5971     C
C       0.3828   0.3421   0.0902     C
C       0.3828   0.6579   0.5902     C
H       0.3848   0.3217   0.9286     H
H       0.3848   0.6783   0.4286     H
H        0.392   0.3453   0.8902     H
H        0.392   0.6547   0.3902     H
H       0.3945   0.2837   0.5804     H
H       0.3945   0.7163   0.0804     H
C       0.3962   0.3927   0.5769     C
C       0.3962   0.6073   0.0769     C
C      0.39647    0.051  0.34462     C
C      0.39647    0.949  0.84462     C
C       0.3976   0.0259   0.3085     C
C       0.3976   0.9741   0.8085     C
C       0.3989   0.2844   0.0646     C
C       0.3989   0.7156   0.5646     C
H       0.3999   0.1753   0.0607     H
H       0.3999   0.8247   0.5607     H
C      0.40203   0.3698  0.91849     C
C      0.40203   0.6302  0.41849     C
H       0.4023   0.4832    0.922     H
H       0.4023   0.5168    0.422     H
O      0.40766    0.197  0.47786     O
O      0.40766    0.803  0.97786     O
H       0.4102   0.0644   0.8048     H
H       0.4102   0.9356   0.3048     H
C      0.41233   0.4476  0.55169     C
C      0.41233   0.5524  0.05169     C
C      0.41323   0.3905  0.04511     C
C      0.41323   0.6095  0.54511     C
O      0.41362   0.0465  0.87831     O
O      0.41362   0.9535  0.37831     O
H       0.4225   0.2661   0.8624     H
H       0.4225   0.3759   0.5393     H
H       0.4225   0.6241   0.0393     H
H       0.4225   0.7339   0.3624     H
O       0.4273   0.3209  0.02048     O
O       0.4273   0.6791  0.52048     O
H       0.4292   0.4976   0.4869     H
H       0.4292   0.5024   0.9869     H
H       0.4356   0.0037   0.0074     H
H       0.4356   0.9963   0.5074     H
C      0.43883   0.1768   0.8778     C
C      0.43883   0.8232   0.3778     C
C      0.43986   0.0769  0.49087     C
C      0.43986   0.9231  0.99087     C
H       0.4401   0.0253   0.4675     H
H       0.4401   0.9747   0.9675     H
C       0.4445   0.3055  0.94164     C
C       0.4445   0.6945  0.44164     C
C      0.44799   0.4251  0.00534     C
C      0.44799   0.5749  0.50534     C
H       0.4503    0.213   0.4382     H
H       0.4503    0.787   0.9382     H
H       0.4528   0.1336   0.5737     H
H       0.4528   0.8664   0.0737     H
H       0.4565   0.1439   0.8661     H
H       0.4565   0.8561   0.3661     H
C      0.46296   0.2197  0.92191     C
C      0.46296   0.7803  0.42191     C
C      0.46558    0.327  0.98378     C
C      0.46558    0.673  0.48378     C
H       0.4693    0.482   0.0276     H
H       0.4693    0.518   0.5276     H
H       0.4704   0.3801   0.4414     H
H       0.4704   0.6199   0.9414     H
H        0.471   0.0321    0.071     H
H        0.471   0.9679    0.571     H
C      0.47548   0.2696  0.44861     C
C      0.47548   0.7304  0.94861     C
C       0.4774   0.0768   0.5795     C
C       0.4774   0.9232   0.0795     C
C      0.47939   0.1622  0.51515     C
C      0.47939   0.8378  0.01515     C
H       0.4921   0.2257   0.4373     H
H       0.4921   0.7743   0.9373     H
H        0.495   0.0805   0.6081     H
H        0.495   0.9195   0.1081     H
C      0.49698   0.2538  0.49426     C
C      0.49698   0.7462  0.99426     C
C      0.49839   0.1537  0.55664     C
C      0.49839   0.8463  0.05664     C
C      0.50161   0.1537  0.94336     C
C      0.50161   0.8463  0.44336     C
C      0.50302   0.2538  0.00574     C
C      0.50302   0.7462  0.50574     C
H        0.505   0.0805   0.8919     H
H        0.505   0.9195   0.3919     H
H       0.5079   0.2257   0.0627     H
H       0.5079   0.7743   0.5627     H
C      0.52061   0.1622  0.98485     C
C      0.52061   0.8378  0.48485     C
C       0.5226   0.0768   0.9205     C
C       0.5226   0.9232   0.4205     C
C      0.52452   0.2696  0.05139     C
C      0.52452   0.7304  0.55139     C
H        0.529   0.0321    0.429     H
H        0.529   0.9679    0.929     H
H       0.5296   0.3801   0.0586     H
H       0.5296   0.6199   0.5586     H
H       0.5307    0.482   0.4724     H
H       0.5307    0.518   0.9724     H
C      0.53442    0.327  0.51622     C
C      0.53442    0.673  0.01622     C
C      0.53704   0.2197  0.57809     C
C      0.53704   0.7803  0.07809     C
H       0.5435   0.1439   0.6339     H
H       0.5435   0.8561   0.1339     H
H       0.5472   0.1336   0.9263     H
H       0.5472   0.8664   0.4263     H
H       0.5497    0.213   0.0618     H
H       0.5497    0.787   0.5618     H
C      0.55201   0.4251  0.49466     C
C      0.55201   0.5749  0.99466     C
C       0.5555   0.3055  0.55836     C
C       0.5555   0.6945  0.05836     C
H       0.5599   0.0253   0.0325     H
H       0.5599   0.9747   0.5325     H
C      0.56014   0.0769  0.00913     C
C      0.56014   0.9231  0.50913     C
C      0.56117   0.1768   0.6222     C
C      0.56117   0.8232   0.1222     C
H       0.5644   0.0037   0.4926     H
H       0.5644   0.9963   0.9926     H
H       0.5708   0.4976   0.0131     H
H       0.5708   0.5024   0.5131     H
O       0.5727   0.3209  0.47952     O
O       0.5727   0.6791  0.97952     O
H       0.5775   0.2661   0.6376     H
H       0.5775   0.3759   0.9607     H
H       0.5775   0.6241   0.4607     H
H       0.5775   0.7339   0.1376     H
O      0.58638   0.0465  0.62169     O
O      0.58638   0.9535  0.12169     O
C      0.58677   0.3905  0.45489     C
C      0.58677   0.6095  0.95489     C
C      0.58767   0.4476  0.94831     C
C      0.58767   0.5524  0.44831     C
H       0.5898   0.0644   0.6952     H
H       0.5898   0.9356   0.1952     H
O      0.59234    0.197  0.02214     O
O      0.59234    0.803  0.52214     O
H       0.5977   0.4832    0.578     H
H       0.5977   0.5168    0.078     H
C      0.59797   0.3698  0.58151     C
C      0.59797   0.6302  0.08151     C
H       0.6001   0.1753   0.4393     H
H       0.6001   0.8247   0.9393     H
C       0.6011   0.2844   0.4354     C
C       0.6011   0.7156   0.9354     C
C       0.6024   0.0259   0.1915     C
C       0.6024   0.9741   0.6915     C
C      0.60353    0.051  0.15538     C
C      0.60353    0.949  0.65538     C
C       0.6038   0.3927   0.9231     C
C       0.6038   0.6073   0.4231     C
H       0.6055   0.2837   0.9196     H
H       0.6055   0.7163   0.4196     H
H        0.608   0.3453   0.6098     H
H        0.608   0.6547   0.1098     H
H       0.6152   0.3217   0.5714     H
H       0.6152   0.6783   0.0714     H
C       0.6172   0.3421   0.4098     C
C       0.6172   0.6579   0.9098     C
C       0.6176   0.4996   0.4029     C
C       0.6176   0.5004   0.9029     C
H       0.6187   0.1191   0.2467     H
H       0.6187   0.8809   0.7467     H
C       0.6199   0.1354  0.22235     C
C       0.6199   0.8646  0.72235     C
H        0.621   0.1967   0.8786     H
H        0.621   0.8033   0.3786     H
H       0.6225   0.0955   0.5442     H
H       0.6225   0.9045   0.0442     H
C       0.6241   0.1826   0.1507     C
C       0.6241   0.8174   0.6507     C
H       0.6268    0.197   0.1271     H
H       0.6268    0.803   0.6271     H
H       0.6277    0.271   0.3976     H
H       0.6277    0.729   0.8976     H
C      0.63061   0.1438  0.04721     C
C      0.63061   0.8562  0.54721     C
C       0.6338   0.4367   0.8746     C
C       0.6338   0.5633   0.3746     C
O       0.6364   0.2817   0.8723     O
O       0.6364   0.7183   0.3723     O
C      0.63881   0.2664  0.21777     C
C      0.63881   0.7336  0.71777     C
C       0.6402   0.2894   0.1818     C
C       0.6402   0.7106   0.6818     C
C      0.64167   0.0154  0.55589     C
C      0.64167   0.9846  0.05589     C
O      0.64448   0.4597   0.3573     O
O      0.64448   0.5403   0.8573     O
H       0.6524    0.381   0.1784     H
H       0.6524    0.619   0.6784     H
H       0.6529   0.3691   0.0563     H
H       0.6529   0.6309   0.5563     H
O      0.65352   0.3625  0.28289     O
O      0.65352   0.6375  0.78289     O
C       0.6563   0.3857   0.2522     C
C       0.6563   0.6143   0.7522     C
C      0.65991   0.2629  0.06288     C
C      0.65991   0.7371  0.56288     C
Zn     0.66925  0.46733  0.82298    Zn
Zn     0.66925  0.53267  0.32298    Zn
O       0.6779   0.4881   0.2497     O
O       0.6779   0.5119   0.7497     O
C      0.68069    0.053  0.58166     C
C      0.68069    0.947  0.08166     C
H       0.6879   0.1594   0.5878     H
H       0.6879   0.8406   0.0878     H
C      0.69953   0.2209  0.08839     C
C      0.69953   0.7791  0.58839     C
C      0.71007    0.064  0.09905     C
C      0.71007    0.936  0.59905     C
H       0.7193   0.2996   0.0985     H
H       0.7193   0.7004   0.5985     H
O      0.72138    0.368   0.8553     O
O      0.72138    0.632   0.3553     O
O       0.7373   0.3763  0.36743     O
O       0.7373   0.6237  0.86743     O
C      0.74652   0.4851  0.87251     C
C      0.74652   0.5149  0.37251     C
C      0.75348   0.0149  0.12749     C
C      0.75348   0.9851  0.62749     C
O       0.7627   0.1237  0.63257     O
O       0.7627   0.8763  0.13257     O
O      0.77862    0.132   0.1447     O
O      0.77862    0.868   0.6447     O
H       0.7807   0.2004   0.9015     H
H       0.7807   0.7996   0.4015     H
C      0.78993    0.436  0.90095     C
C      0.78993    0.564  0.40095     C
C      0.80047   0.2791  0.91161     C
C      0.80047   0.7209  0.41161     C
H       0.8121   0.3406   0.4122     H
H       0.8121   0.6594   0.9122     H
C      0.81931    0.447  0.41834     C
C      0.81931    0.553  0.91834     C
O       0.8221   0.0119   0.7503     O
O       0.8221   0.9881   0.2503     O
Zn     0.83075  0.03267  0.17702    Zn
Zn     0.83075  0.96733  0.67702    Zn
C      0.84009   0.2371  0.93712     C
C      0.84009   0.7629  0.43712     C
C       0.8437   0.1143   0.7478     C
C       0.8437   0.8857   0.2478     C
O      0.84648   0.1375  0.71711     O
O      0.84648   0.8625  0.21711     O
H       0.8471   0.1309   0.9437     H
H       0.8471   0.8691   0.4437     H
H       0.8476    0.119   0.8216     H
H       0.8476    0.881   0.3216     H
O      0.85552   0.0403   0.6427     O
O      0.85552   0.9597   0.1427     O
C      0.85833   0.4846  0.44411     C
C      0.85833   0.5154  0.94411     C
C       0.8598   0.2106   0.8182     C
C       0.8598   0.7894   0.3182     C
C      0.86119   0.2336  0.78223     C
C      0.86119   0.7664  0.28223     C
O       0.8636   0.2183   0.1277     O
O       0.8636   0.7817   0.6277     O
C       0.8662   0.0633   0.1254     C
C       0.8662   0.9367   0.6254     C
C      0.86939   0.3562  0.95279     C
C      0.86939   0.6438  0.45279     C
H       0.8723    0.229   0.6024     H
H       0.8723    0.771   0.1024     H
H       0.8732    0.303   0.8729     H
H       0.8732    0.697   0.3729     H
C       0.8759   0.3174   0.8493     C
C       0.8759   0.6826   0.3493     C
H       0.8775   0.4045   0.4558     H
H       0.8775   0.5955   0.9558     H
H        0.879   0.3033   0.1214     H
H        0.879   0.6967   0.6214     H
C       0.8801   0.3646  0.77765     C
C       0.8801   0.6354  0.27765     C
H       0.8813   0.3809   0.7533     H
H       0.8813   0.6191   0.2533     H
C       0.8824   0.0004   0.5971     C
C       0.8824   0.9996   0.0971     C
C       0.8828   0.1579   0.5902     C
C       0.8828   0.8421   0.0902     C
H       0.8848   0.1783   0.4286     H
H       0.8848   0.8217   0.9286     H
H        0.892   0.1547   0.3902     H
H        0.892   0.8453   0.8902     H
H       0.8945   0.2163   0.0804     H
H       0.8945   0.7837   0.5804     H
C       0.8962   0.1073   0.0769     C
C       0.8962   0.8927   0.5769     C
C      0.89647    0.449  0.84462     C
C      0.89647    0.551  0.34462     C
C       0.8976   0.4741   0.8085     C
C       0.8976   0.5259   0.3085     C
C       0.8989   0.2156   0.5646     C
C       0.8989   0.7844   0.0646     C
H       0.8999   0.3247   0.5607     H
H       0.8999   0.6753   0.0607     H
C      0.90203   0.1302  0.41849     C
C      0.90203   0.8698  0.91849     C
H       0.9023   0.0168    0.422     H
H       0.9023   0.9832    0.922     H
O      0.90766    0.303  0.97786     O
O      0.90766    0.697  0.47786     O
H       0.9102   0.4356   0.3048     H
H       0.9102   0.5644   0.8048     H
C      0.91233   0.0524  0.05169     C
C      0.91233   0.9476  0.55169     C
C      0.91323   0.1095  0.54511     C
C      0.91323   0.8905  0.04511     C
O      0.91362   0.4535  0.37831     O
O      0.91362   0.5465  0.87831     O
H       0.9225   0.1241   0.0393     H
H       0.9225   0.2339   0.3624     H
H       0.9225   0.7661   0.8624     H
H       0.9225   0.8759   0.5393     H
O       0.9273   0.1791  0.52048     O
O       0.9273   0.8209  0.02048     O
H       0.9292   0.0024   0.9869     H
H       0.9292   0.9976   0.4869     H
H       0.9356   0.4963   0.5074     H
H       0.9356   0.5037   0.0074     H
C      0.93883   0.3232   0.3778     C
C      0.93883   0.6768   0.8778     C
C      0.93986   0.4231  0.99087     C
C      0.93986   0.5769  0.49087     C
H       0.9401   0.4747   0.9675     H
H       0.9401   0.5253   0.4675     H
C       0.9445   0.1945  0.44164     C
C       0.9445   0.8055  0.94164     C
C      0.94799   0.0749  0.50534     C
C      0.94799   0.9251  0.00534     C
H       0.9503    0.287   0.9382     H
H       0.9503    0.713   0.4382     H
H       0.9528   0.3664   0.0737     H
H       0.9528   0.6336   0.5737     H
H       0.9565   0.3561   0.3661     H
H       0.9565   0.6439   0.8661     H
C      0.96296   0.2803  0.42191     C
C      0.96296   0.7197  0.92191     C
C      0.96558    0.173  0.48378     C
C      0.96558    0.827  0.98378     C
H       0.9693    0.018   0.5276     H
H       0.9693    0.982   0.0276     H
H       0.9704   0.1199   0.9414     H
H       0.9704   0.8801   0.4414     H
H        0.971   0.4679    0.571     H
H        0.971   0.5321    0.071     H
C      0.97548   0.2304  0.94861     C
C      0.97548   0.7696  0.44861     C
C       0.9774   0.4232   0.0795     C
C       0.9774   0.5768   0.5795     C
C      0.97939   0.3378  0.01515     C
C      0.97939   0.6622  0.51515     C
H       0.9921   0.2743   0.9373     H
H       0.9921   0.7257   0.4373     H
H        0.995   0.4195   0.1081     H
H        0.995   0.5805   0.6081     H
C      0.99698   0.2462  0.99426     C
C      0.99698   0.7538  0.49426     C
C      0.99839   0.3463  0.05664     C
C      0.99839   0.6537  0.55664     C
