data_I
_chemical_name_common  '/home/zhangsd/repos/MofS-CGCNN/ML/data/WS24/clean_cifs/FOTNIN'
_cell_length_a 39.29290
_cell_length_b 39.29290
_cell_length_c 39.29290
_cell_angle_alpha 60.00000
_cell_angle_beta  60.00000
_cell_angle_gamma 60.00000
_space_group_name_H-M_alt      'P 1'


loop_
_space_group_symop_operation_xyz
  'x, y, z' 

loop_
_atom_site_label
_atom_site_fract_x
_atom_site_fract_y
_atom_site_fract_z
_atom_site_type_symbol
C      0.01391  0.19847  0.83557     C
C      0.01391  0.19847  0.95205     C
C      0.01391  0.83557  0.19847     C
C      0.01391  0.83557  0.95205     C
C      0.01391  0.95205  0.19847     C
C      0.01391  0.95205  0.83557     C
C       0.0165   0.0165  0.13906     C
C       0.0165   0.0165  0.82794     C
C       0.0165  0.13906   0.0165     C
C       0.0165  0.13906  0.82794     C
C       0.0165  0.82794   0.0165     C
C       0.0165  0.82794  0.13906     C
N      0.02107  0.07757  0.07757     N
N      0.02107  0.07757  0.82379     N
N      0.02107  0.82379  0.07757     N
H      0.02983  0.21273  0.83807     H
H      0.02983  0.21273  0.91937     H
H      0.02983  0.83807  0.21273     H
H      0.02983  0.83807  0.91937     H
H      0.02983  0.91937  0.21273     H
H      0.02983  0.91937  0.83807     H
C      0.03618  0.15938   0.8301     C
C      0.03618  0.15938  0.97434     C
C      0.03618   0.8301  0.15938     C
C      0.03618   0.8301  0.97434     C
C      0.03618  0.97434  0.15938     C
C      0.03618  0.97434   0.8301     C
C       0.0392   0.0392   0.0962     C
C       0.0392   0.0392   0.8254     C
C       0.0392   0.0962   0.0392     C
C       0.0392   0.0962   0.8254     C
C       0.0392   0.8254   0.0392     C
C       0.0392   0.8254   0.0962     C
H      0.06864  0.14474  0.82844     H
H      0.06864  0.14474  0.95818     H
H      0.06864  0.82844  0.14474     H
H      0.06864  0.82844  0.95818     H
H      0.06864  0.95818  0.14474     H
H      0.06864  0.95818  0.82844     H
N      0.07757  0.02107  0.07757     N
N      0.07757  0.02107  0.82379     N
N      0.07757  0.07757  0.02107     N
N      0.07757  0.07757  0.82379     N
N      0.07757  0.82379  0.02107     N
N      0.07757  0.82379  0.07757     N
C       0.0962   0.0392   0.0392     C
C       0.0962   0.0392   0.8254     C
C       0.0962   0.8254   0.0392     C
C      0.13906   0.0165   0.0165     C
C      0.13906   0.0165  0.82794     C
C      0.13906  0.82794   0.0165     C
H      0.14474  0.06864  0.82844     H
H      0.14474  0.06864  0.95818     H
H      0.14474  0.82844  0.06864     H
H      0.14474  0.82844  0.95818     H
H      0.14474  0.95818  0.06864     H
H      0.14474  0.95818  0.82844     H
C      0.15938  0.03618   0.8301     C
C      0.15938  0.03618  0.97434     C
C      0.15938   0.8301  0.03618     C
C      0.15938   0.8301  0.97434     C
C      0.15938  0.97434  0.03618     C
C      0.15938  0.97434   0.8301     C
C      0.19847  0.01391  0.83557     C
C      0.19847  0.01391  0.95205     C
C      0.19847  0.83557  0.01391     C
C      0.19847  0.83557  0.95205     C
C      0.19847  0.95205  0.01391     C
C      0.19847  0.95205  0.83557     C
H      0.21273  0.02983  0.83807     H
H      0.21273  0.02983  0.91937     H
H      0.21273  0.83807  0.02983     H
H      0.21273  0.83807  0.91937     H
H      0.21273  0.91937  0.02983     H
H      0.21273  0.91937  0.83807     H
C      0.21823  0.83899  0.97139     C
C      0.21823  0.97139  0.83899     C
C      0.21823  0.97139  0.97139     C
C      0.25786  0.84862  0.94676     C
C      0.25786  0.94676  0.84862     C
C      0.25786  0.94676  0.94676     C
O      0.27356  0.85318  0.90756     O
O      0.27356  0.85318   0.9657     O
O      0.27356  0.90756  0.85318     O
O      0.27356  0.90756   0.9657     O
O      0.27356   0.9657  0.85318     O
O      0.27356   0.9657  0.90756     O
O      0.30954  0.89682  0.89682     O
Zr     0.33088  0.85948  0.85948    Zr
Zr     0.33088  0.85948  0.95016    Zr
Zr     0.33088  0.95016  0.85948    Zr
O      0.35052  0.82316  0.91316     O
O      0.35052  0.91316  0.82316     O
O      0.35052  0.91316  0.91316     O
O      0.39777  0.83727  0.83727     O
O      0.39777  0.83727  0.92769     O
O      0.39777  0.92769  0.83727     O
Zr      0.4179   0.8001    0.891    Zr
Zr      0.4179    0.891   0.8001    Zr
Zr      0.4179    0.891    0.891    Zr
O      0.43935  0.85355  0.85355     O
O      0.47435  0.78315  0.84129     O
O      0.47435  0.78315  0.90121     O
O      0.47435  0.84129  0.78315     O
O      0.47435  0.84129  0.90121     O
O      0.47435  0.90121  0.78315     O
O      0.47435  0.90121  0.84129     O
C      0.49005  0.80209  0.80209     C
C      0.49005  0.80209  0.90577     C
C      0.49005  0.90577  0.80209     C
C      0.52968  0.77746  0.77746     C
C      0.52968  0.77746   0.9154     C
C      0.52968   0.9154  0.77746     C
H      0.53518  0.71902  0.82948     H
H      0.53518  0.71902  0.91632     H
H      0.53518  0.82948  0.71902     H
H      0.53518  0.82948  0.91632     H
H      0.53518  0.91632  0.71902     H
H      0.53518  0.91632  0.82948     H
C      0.54944  0.73494   0.7968     C
C      0.54944  0.73494  0.91882     C
C      0.54944   0.7968  0.73494     C
C      0.54944   0.7968  0.91882     C
C      0.54944  0.91882  0.73494     C
C      0.54944  0.91882   0.7968     C
C      0.58853  0.71267  0.77451     C
C      0.58853  0.71267  0.92429     C
C      0.58853  0.77451  0.71267     C
C      0.58853  0.77451  0.92429     C
C      0.58853  0.92429  0.71267     C
C      0.58853  0.92429  0.77451     C
H      0.60317  0.68021  0.79067     H
H      0.60317  0.68021  0.92595     H
H      0.60317  0.79067  0.68021     H
H      0.60317  0.79067  0.92595     H
H      0.60317  0.92595  0.68021     H
H      0.60317  0.92595  0.79067     H
C      0.60885  0.73235  0.73235     C
C      0.60885  0.73235  0.92645     C
C      0.60885  0.92645  0.73235     C
C      0.65171  0.70965  0.70965     C
C      0.65171  0.70965  0.92899     C
C      0.65171  0.92899  0.70965     C
N      0.67081  0.67081  0.72825     N
N      0.67081  0.67081  0.93013     N
N      0.67081  0.72825  0.67081     N
N      0.67081  0.72825  0.93013     N
N      0.67081  0.93013  0.67081     N
N      0.67081  0.93013  0.72825     N
H      0.68021  0.60317  0.79067     H
H      0.68021  0.60317  0.92595     H
H      0.68021  0.79067  0.60317     H
H      0.68021  0.79067  0.92595     H
H      0.68021  0.92595  0.60317     H
H      0.68021  0.92595  0.79067     H
C      0.70965  0.65171  0.70965     C
C      0.70965  0.65171  0.92899     C
C      0.70965  0.70965  0.65171     C
C      0.70965  0.70965  0.92899     C
C      0.70965  0.92899  0.65171     C
C      0.70965  0.92899  0.70965     C
C      0.71267  0.58853  0.77451     C
C      0.71267  0.58853  0.92429     C
C      0.71267  0.77451  0.58853     C
C      0.71267  0.77451  0.92429     C
C      0.71267  0.92429  0.58853     C
C      0.71267  0.92429  0.77451     C
H      0.71902  0.53518  0.82948     H
H      0.71902  0.53518  0.91632     H
H      0.71902  0.82948  0.53518     H
H      0.71902  0.82948  0.91632     H
H      0.71902  0.91632  0.53518     H
H      0.71902  0.91632  0.82948     H
N      0.72825  0.67081  0.67081     N
N      0.72825  0.67081  0.93013     N
N      0.72825  0.93013  0.67081     N
C      0.73235  0.60885  0.73235     C
C      0.73235  0.60885  0.92645     C
C      0.73235  0.73235  0.60885     C
C      0.73235  0.73235  0.92645     C
C      0.73235  0.92645  0.60885     C
C      0.73235  0.92645  0.73235     C
C      0.73494  0.54944   0.7968     C
C      0.73494  0.54944  0.91882     C
C      0.73494   0.7968  0.54944     C
C      0.73494   0.7968  0.91882     C
C      0.73494  0.91882  0.54944     C
C      0.73494  0.91882   0.7968     C
C      0.77451  0.58853  0.71267     C
C      0.77451  0.58853  0.92429     C
C      0.77451  0.71267  0.58853     C
C      0.77451  0.71267  0.92429     C
C      0.77451  0.92429  0.58853     C
C      0.77451  0.92429  0.71267     C
C      0.77746  0.52968  0.77746     C
C      0.77746  0.52968   0.9154     C
C      0.77746  0.77746  0.52968     C
C      0.77746  0.77746   0.9154     C
C      0.77746   0.9154  0.52968     C
C      0.77746   0.9154  0.77746     C
O      0.78315  0.47435  0.84129     O
O      0.78315  0.47435  0.90121     O
O      0.78315  0.84129  0.47435     O
O      0.78315  0.84129  0.90121     O
O      0.78315  0.90121  0.47435     O
O      0.78315  0.90121  0.84129     O
H      0.79067  0.60317  0.68021     H
H      0.79067  0.60317  0.92595     H
H      0.79067  0.68021  0.60317     H
H      0.79067  0.68021  0.92595     H
H      0.79067  0.92595  0.60317     H
H      0.79067  0.92595  0.68021     H
C       0.7968  0.54944  0.73494     C
C       0.7968  0.54944  0.91882     C
C       0.7968  0.73494  0.54944     C
C       0.7968  0.73494  0.91882     C
C       0.7968  0.91882  0.54944     C
C       0.7968  0.91882  0.73494     C
Zr      0.8001   0.4179    0.891    Zr
Zr      0.8001    0.891   0.4179    Zr
Zr      0.8001    0.891    0.891    Zr
C      0.80209  0.49005  0.80209     C
C      0.80209  0.49005  0.90577     C
C      0.80209  0.80209  0.49005     C
C      0.80209  0.80209  0.90577     C
C      0.80209  0.90577  0.49005     C
C      0.80209  0.90577  0.80209     C
O      0.82316  0.35052  0.91316     O
O      0.82316  0.91316  0.35052     O
O      0.82316  0.91316  0.91316     O
N      0.82379  0.02107  0.07757     N
N      0.82379  0.07757  0.02107     N
N      0.82379  0.07757  0.07757     N
C       0.8254   0.0392   0.0392     C
C       0.8254   0.0392   0.0962     C
C       0.8254   0.0962   0.0392     C
C      0.82794   0.0165   0.0165     C
C      0.82794   0.0165  0.13906     C
C      0.82794  0.13906   0.0165     C
H      0.82844  0.06864  0.14474     H
H      0.82844  0.06864  0.95818     H
H      0.82844  0.14474  0.06864     H
H      0.82844  0.14474  0.95818     H
H      0.82844  0.95818  0.06864     H
H      0.82844  0.95818  0.14474     H
H      0.82948  0.53518  0.71902     H
H      0.82948  0.53518  0.91632     H
H      0.82948  0.71902  0.53518     H
H      0.82948  0.71902  0.91632     H
H      0.82948  0.91632  0.53518     H
H      0.82948  0.91632  0.71902     H
C       0.8301  0.03618  0.15938     C
C       0.8301  0.03618  0.97434     C
C       0.8301  0.15938  0.03618     C
C       0.8301  0.15938  0.97434     C
C       0.8301  0.97434  0.03618     C
C       0.8301  0.97434  0.15938     C
C      0.83557  0.01391  0.19847     C
C      0.83557  0.01391  0.95205     C
C      0.83557  0.19847  0.01391     C
C      0.83557  0.19847  0.95205     C
C      0.83557  0.95205  0.01391     C
C      0.83557  0.95205  0.19847     C
O      0.83727  0.39777  0.83727     O
O      0.83727  0.39777  0.92769     O
O      0.83727  0.83727  0.39777     O
O      0.83727  0.83727  0.92769     O
O      0.83727  0.92769  0.39777     O
O      0.83727  0.92769  0.83727     O
H      0.83807  0.02983  0.21273     H
H      0.83807  0.02983  0.91937     H
H      0.83807  0.21273  0.02983     H
H      0.83807  0.21273  0.91937     H
H      0.83807  0.91937  0.02983     H
H      0.83807  0.91937  0.21273     H
C      0.83899  0.21823  0.97139     C
C      0.83899  0.97139  0.21823     C
C      0.83899  0.97139  0.97139     C
O      0.84129  0.47435  0.78315     O
O      0.84129  0.47435  0.90121     O
O      0.84129  0.78315  0.47435     O
O      0.84129  0.78315  0.90121     O
O      0.84129  0.90121  0.47435     O
O      0.84129  0.90121  0.78315     O
C      0.84862  0.25786  0.94676     C
C      0.84862  0.94676  0.25786     C
C      0.84862  0.94676  0.94676     C
O      0.85318  0.27356  0.90756     O
O      0.85318  0.27356   0.9657     O
O      0.85318  0.90756  0.27356     O
O      0.85318  0.90756   0.9657     O
O      0.85318   0.9657  0.27356     O
O      0.85318   0.9657  0.90756     O
O      0.85355  0.43935  0.85355     O
O      0.85355  0.85355  0.43935     O
O      0.85355  0.85355  0.85355     O
Zr     0.85948  0.33088  0.85948    Zr
Zr     0.85948  0.33088  0.95016    Zr
Zr     0.85948  0.85948  0.33088    Zr
Zr     0.85948  0.85948  0.95016    Zr
Zr     0.85948  0.95016  0.33088    Zr
Zr     0.85948  0.95016  0.85948    Zr
Zr       0.891   0.4179   0.8001    Zr
Zr       0.891   0.4179    0.891    Zr
Zr       0.891   0.8001   0.4179    Zr
Zr       0.891   0.8001    0.891    Zr
Zr       0.891    0.891   0.4179    Zr
Zr       0.891    0.891   0.8001    Zr
O      0.89682  0.30954  0.89682     O
O      0.89682  0.89682  0.30954     O
O      0.89682  0.89682  0.89682     O
O      0.90121  0.47435  0.78315     O
O      0.90121  0.47435  0.84129     O
O      0.90121  0.78315  0.47435     O
O      0.90121  0.78315  0.84129     O
O      0.90121  0.84129  0.47435     O
O      0.90121  0.84129  0.78315     O
C      0.90577  0.49005  0.80209     C
C      0.90577  0.80209  0.49005     C
C      0.90577  0.80209  0.80209     C
O      0.90756  0.27356  0.85318     O
O      0.90756  0.27356   0.9657     O
O      0.90756  0.85318  0.27356     O
O      0.90756  0.85318   0.9657     O
O      0.90756   0.9657  0.27356     O
O      0.90756   0.9657  0.85318     O
O      0.91316  0.35052  0.82316     O
O      0.91316  0.35052  0.91316     O
O      0.91316  0.82316  0.35052     O
O      0.91316  0.82316  0.91316     O
O      0.91316  0.91316  0.35052     O
O      0.91316  0.91316  0.82316     O
C       0.9154  0.52968  0.77746     C
C       0.9154  0.77746  0.52968     C
C       0.9154  0.77746  0.77746     C
H      0.91632  0.53518  0.71902     H
H      0.91632  0.53518  0.82948     H
H      0.91632  0.71902  0.53518     H
H      0.91632  0.71902  0.82948     H
H      0.91632  0.82948  0.53518     H
H      0.91632  0.82948  0.71902     H
C      0.91882  0.54944  0.73494     C
C      0.91882  0.54944   0.7968     C
C      0.91882  0.73494  0.54944     C
C      0.91882  0.73494   0.7968     C
C      0.91882   0.7968  0.54944     C
C      0.91882   0.7968  0.73494     C
H      0.91937  0.02983  0.21273     H
H      0.91937  0.02983  0.83807     H
H      0.91937  0.21273  0.02983     H
H      0.91937  0.21273  0.83807     H
H      0.91937  0.83807  0.02983     H
H      0.91937  0.83807  0.21273     H
C      0.92429  0.58853  0.71267     C
C      0.92429  0.58853  0.77451     C
C      0.92429  0.71267  0.58853     C
C      0.92429  0.71267  0.77451     C
C      0.92429  0.77451  0.58853     C
C      0.92429  0.77451  0.71267     C
H      0.92595  0.60317  0.68021     H
H      0.92595  0.60317  0.79067     H
H      0.92595  0.68021  0.60317     H
H      0.92595  0.68021  0.79067     H
H      0.92595  0.79067  0.60317     H
H      0.92595  0.79067  0.68021     H
C      0.92645  0.60885  0.73235     C
C      0.92645  0.73235  0.60885     C
C      0.92645  0.73235  0.73235     C
O      0.92769  0.39777  0.83727     O
O      0.92769  0.83727  0.39777     O
O      0.92769  0.83727  0.83727     O
C      0.92899  0.65171  0.70965     C
C      0.92899  0.70965  0.65171     C
C      0.92899  0.70965  0.70965     C
N      0.93013  0.67081  0.67081     N
N      0.93013  0.67081  0.72825     N
N      0.93013  0.72825  0.67081     N
C      0.94676  0.25786  0.84862     C
C      0.94676  0.25786  0.94676     C
C      0.94676  0.84862  0.25786     C
C      0.94676  0.84862  0.94676     C
C      0.94676  0.94676  0.25786     C
C      0.94676  0.94676  0.84862     C
Zr     0.95016  0.33088  0.85948    Zr
Zr     0.95016  0.85948  0.33088    Zr
Zr     0.95016  0.85948  0.85948    Zr
C      0.95205  0.01391  0.19847     C
C      0.95205  0.01391  0.83557     C
C      0.95205  0.19847  0.01391     C
C      0.95205  0.19847  0.83557     C
C      0.95205  0.83557  0.01391     C
C      0.95205  0.83557  0.19847     C
H      0.95818  0.06864  0.14474     H
H      0.95818  0.06864  0.82844     H
H      0.95818  0.14474  0.06864     H
H      0.95818  0.14474  0.82844     H
H      0.95818  0.82844  0.06864     H
H      0.95818  0.82844  0.14474     H
O       0.9657  0.27356  0.85318     O
O       0.9657  0.27356  0.90756     O
O       0.9657  0.85318  0.27356     O
O       0.9657  0.85318  0.90756     O
O       0.9657  0.90756  0.27356     O
O       0.9657  0.90756  0.85318     O
C      0.97139  0.21823  0.83899     C
C      0.97139  0.21823  0.97139     C
C      0.97139  0.83899  0.21823     C
C      0.97139  0.83899  0.97139     C
C      0.97139  0.97139  0.21823     C
C      0.97139  0.97139  0.83899     C
C      0.97434  0.03618  0.15938     C
C      0.97434  0.03618   0.8301     C
C      0.97434  0.15938  0.03618     C
C      0.97434  0.15938   0.8301     C
C      0.97434   0.8301  0.03618     C
C      0.97434   0.8301  0.15938     C
