data_I
_chemical_name_common  '/home/zhangsd/repos/MofS-CGCNN/ML/data/WS24/clean_cifs/FUWYAY'
_cell_length_a  6.91280
_cell_length_b  9.24000
_cell_length_c 16.09500
_cell_angle_alpha 90.00000
_cell_angle_beta  90.00000
_cell_angle_gamma 90.00000
_space_group_name_H-M_alt      'P 1'


loop_
_space_group_symop_operation_xyz
  'x, y, z' 

loop_
_atom_site_label
_atom_site_fract_x
_atom_site_fract_y
_atom_site_fract_z
_atom_site_type_symbol
Mn         0.0      0.0      0.0    Mn
Mn         0.0      0.5      0.5    Mn
O       0.0766   0.1677  0.90792     O
O       0.0766   0.6677  0.59208     O
N        0.089   0.1988  0.16298     N
N        0.089   0.6988  0.33702     N
H       0.1423   0.3667   0.2879     H
H       0.1423   0.8667   0.2121     H
N       0.1566   0.1187  0.10019     N
N       0.1566   0.6187  0.39981     N
O         0.25   0.0308   0.8046     O
S         0.25  0.16319  0.85526     S
C         0.25    0.247   0.2004     C
O         0.25   0.2893   0.7992     O
H         0.25    0.295    0.509     H
Mn        0.25  0.30221  0.66521    Mn
N         0.25   0.3372   0.2672     N
O         0.25   0.3738  0.53498     O
O         0.25   0.5308   0.6954     O
S         0.25  0.66319  0.64474     S
C         0.25    0.747   0.2996     C
O         0.25   0.7893   0.7008     O
H         0.25    0.795    0.991     H
Mn        0.25  0.80221  0.83479    Mn
N         0.25   0.8372   0.2328     N
O         0.25   0.8738  0.96502     O
N       0.3434   0.1187  0.10019     N
N       0.3434   0.6187  0.39981     N
H       0.3577   0.3667   0.2879     H
H       0.3577   0.8667   0.2121     H
N        0.411   0.1988  0.16298     N
N        0.411   0.6988  0.33702     N
O       0.4234   0.1677  0.90792     O
O       0.4234   0.6677  0.59208     O
Mn         0.5      0.0      0.0    Mn
Mn         0.5      0.5      0.5    Mn
O       0.5766   0.3323  0.40792     O
O       0.5766   0.8323  0.09208     O
N        0.589   0.3012  0.66298     N
N        0.589   0.8012  0.83702     N
H       0.6423   0.1333   0.7879     H
H       0.6423   0.6333   0.7121     H
N       0.6566   0.3813  0.60019     N
N       0.6566   0.8813  0.89981     N
O         0.75   0.1262  0.03498     O
N         0.75   0.1628   0.7672     N
Mn        0.75  0.19779  0.16521    Mn
H         0.75    0.205    0.009     H
O         0.75   0.2107   0.2992     O
C         0.75    0.253   0.7004     C
S         0.75  0.33681  0.35526     S
O         0.75   0.4692   0.3046     O
O         0.75   0.6262  0.46502     O
N         0.75   0.6628   0.7328     N
Mn        0.75  0.69779  0.33479    Mn
H         0.75    0.705    0.491     H
O         0.75   0.7107   0.2008     O
C         0.75    0.753   0.7996     C
S         0.75  0.83681  0.14474     S
O         0.75   0.9692   0.1954     O
N       0.8434   0.3813  0.60019     N
N       0.8434   0.8813  0.89981     N
H       0.8577   0.1333   0.7879     H
H       0.8577   0.6333   0.7121     H
N        0.911   0.3012  0.66298     N
N        0.911   0.8012  0.83702     N
O       0.9234   0.3323  0.40792     O
O       0.9234   0.8323  0.09208     O
