data_I
_chemical_name_common  '/home/zhangsd/repos/MofS-CGCNN/ML/data/WS24/clean_cifs/FUYCAF'
_cell_length_a 17.80480
_cell_length_b 17.80480
_cell_length_c 17.80480
_cell_angle_alpha 90.00000
_cell_angle_beta  90.00000
_cell_angle_gamma 90.00000
_space_group_name_H-M_alt      'P 1'


loop_
_space_group_symop_operation_xyz
  'x, y, z' 

loop_
_atom_site_label
_atom_site_fract_x
_atom_site_fract_y
_atom_site_fract_z
_atom_site_type_symbol
C       0.0187   0.7337   0.9354     C
C       0.0187   0.7663   0.4354     C
C       0.0219   0.1526   0.6916     C
C       0.0219   0.3474   0.1916     C
H        0.022   0.5328   0.7374     H
H        0.022   0.9672   0.2374     H
S       0.0225   0.5942   0.5563     S
S       0.0225   0.9058   0.0563     S
H       0.0328   0.7374    0.478     H
H       0.0328   0.7626    0.978     H
O       0.0357   0.5956   0.4618     O
O       0.0357   0.9044   0.9618     O
H       0.0359   0.1251   0.7352     H
H       0.0359   0.3749   0.2352     H
O       0.0382   0.5357   0.5956     O
O       0.0382   0.9643   0.0956     O
C       0.0437   0.6303   0.8496     C
C       0.0437   0.8697   0.3496     C
C       0.0456   0.2472   0.1036     C
C       0.0456   0.2528   0.6036     C
O       0.0458   0.6608   0.5972     O
O       0.0458   0.8392   0.0972     O
O       0.0526   0.5653   0.4171     O
O       0.0526   0.9347   0.9171     O
S       0.0563   0.0225   0.9058     S
S       0.0563   0.4775   0.4058     S
C       0.0643   0.6719   0.9132     C
C       0.0643   0.8281   0.4132     C
C       0.0646   0.5187   0.7663     C
C       0.0646   0.9813   0.2663     C
C       0.0648   0.2128   0.6696     C
C       0.0648   0.2872   0.1696     C
O       0.0653   0.0829   0.9474     O
O       0.0653   0.4171   0.4474     O
Fe     0.07385  0.07385  0.07385    Fe
Fe     0.07385  0.42615  0.57385    Fe
O      0.08242  0.09307  0.19218     O
O      0.08242  0.40693  0.69218     O
O       0.0829   0.5526   0.5653     O
O       0.0829   0.9474   0.0653     O
C       0.0868   0.5643   0.8281     C
C       0.0868   0.9357   0.3281     C
O      0.09307  0.19218  0.08242     O
O      0.09307  0.30782  0.58242     O
S       0.0942   0.5563   0.4775     S
S       0.0942   0.9437   0.9775     S
O       0.0956   0.0382   0.9643     O
O       0.0956   0.4618   0.4643     O
O       0.0972   0.0458   0.8392     O
O       0.0972   0.4542   0.3392     O
C       0.1036   0.0456   0.2472     C
C       0.1036   0.4544   0.7472     C
H       0.1251   0.7352   0.0359     H
H       0.1251   0.7648   0.5359     H
O      0.12666  0.23673  0.70711     O
O      0.12666  0.26327  0.20711     O
C       0.1303   0.6504   0.9563     C
C       0.1303   0.8496   0.4563     C
C       0.1504   0.5437   0.8697     C
C       0.1504   0.9563   0.3697     C
C       0.1526   0.6916   0.0219     C
C       0.1526   0.8084   0.5219     C
O       0.1608   0.5972   0.4542     O
O       0.1608   0.9028   0.9542     O
Fe     0.16756  0.16756  0.16756    Fe
Fe     0.16756  0.33244  0.66756    Fe
C       0.1696   0.0648   0.2872     C
C       0.1696   0.4352   0.7872     C
C       0.1719   0.5868   0.9357     C
C       0.1719   0.9132   0.4357     C
C       0.1916   0.0219   0.3474     C
C       0.1916   0.4781   0.8474     C
O      0.19218  0.08242  0.09307     O
O      0.19218  0.41758  0.59307     O
O      0.20711  0.12666  0.26327     O
O      0.20711  0.37334  0.76327     O
C       0.2128   0.6696   0.0648     C
C       0.2128   0.8304   0.5648     C
C       0.2337   0.5646   0.9813     C
C       0.2337   0.9354   0.4813     C
H       0.2352   0.0359   0.3749     H
H       0.2352   0.4641   0.8749     H
O      0.23673  0.70711  0.12666     O
O      0.23673  0.79289  0.62666     O
H       0.2374    0.022   0.9672     H
H       0.2374    0.478   0.4672     H
C       0.2472   0.1036   0.0456     C
C       0.2472   0.3964   0.5456     C
C       0.2528   0.6036   0.0456     C
C       0.2528   0.8964   0.5456     C
H       0.2626    0.522   0.9672     H
H       0.2626    0.978   0.4672     H
O      0.26327  0.20711  0.12666     O
O      0.26327  0.29289  0.62666     O
H       0.2648   0.5359   0.3749     H
H       0.2648   0.9641   0.8749     H
C       0.2663   0.0646   0.9813     C
C       0.2663   0.4354   0.4813     C
C       0.2872   0.1696   0.0648     C
C       0.2872   0.3304   0.5648     C
O      0.29289  0.62666  0.26327     O
O      0.29289  0.87334  0.76327     O
O      0.30782  0.58242  0.09307     O
O      0.30782  0.91758  0.59307     O
C       0.3084   0.5219   0.3474     C
C       0.3084   0.9781   0.8474     C
C       0.3281   0.0868   0.9357     C
C       0.3281   0.4132   0.4357     C
C       0.3304   0.5648   0.2872     C
C       0.3304   0.9352   0.7872     C
Fe     0.33244  0.66756  0.16756    Fe
Fe     0.33244  0.83244  0.66756    Fe
O       0.3392   0.0972   0.4542     O
O       0.3392   0.4028   0.9542     O
C       0.3474   0.1916   0.0219     C
C       0.3474   0.3084   0.5219     C
C       0.3496   0.0437   0.8697     C
C       0.3496   0.4563   0.3697     C
C       0.3697   0.1504   0.9563     C
C       0.3697   0.3496   0.4563     C
O      0.37334  0.73673  0.70711     O
O      0.37334  0.76327  0.20711     O
H       0.3749   0.2352   0.0359     H
H       0.3749   0.2648   0.5359     H
C       0.3964   0.5456   0.2472     C
C       0.3964   0.9544   0.7472     C
O       0.4028   0.5458   0.8392     O
O       0.4028   0.9542   0.3392     O
O       0.4044   0.5382   0.9643     O
O       0.4044   0.9618   0.4643     O
S       0.4058   0.0563   0.4775     S
S       0.4058   0.4437   0.9775     S
O      0.40693  0.69218  0.08242     O
O      0.40693  0.80782  0.58242     O
C       0.4132   0.0643   0.8281     C
C       0.4132   0.4357   0.3281     C
O       0.4171   0.0526   0.5653     O
O       0.4171   0.4474   0.0653     O
O      0.41758  0.59307  0.19218     O
O      0.41758  0.90693  0.69218     O
Fe     0.42615  0.57385  0.07385    Fe
Fe     0.42615  0.92615  0.57385    Fe
O       0.4347   0.5829   0.9474     O
O       0.4347   0.9171   0.4474     O
C       0.4352   0.7128   0.6696     C
C       0.4352   0.7872   0.1696     C
C       0.4354   0.0187   0.7663     C
C       0.4354   0.4813   0.2663     C
C       0.4357   0.1719   0.9132     C
C       0.4357   0.3281   0.4132     C
S       0.4437   0.5225   0.9058     S
S       0.4437   0.9775   0.4058     S
O       0.4474   0.0653   0.4171     O
O       0.4474   0.4347   0.9171     O
O       0.4542   0.1608   0.5972     O
O       0.4542   0.3392   0.0972     O
C       0.4544   0.7472   0.1036     C
C       0.4544   0.7528   0.6036     C
C       0.4563   0.1303   0.8496     C
C       0.4563   0.3697   0.3496     C
O       0.4618   0.0357   0.5956     O
O       0.4618   0.4643   0.0956     O
H       0.4641   0.6251   0.7352     H
H       0.4641   0.8749   0.2352     H
O       0.4643   0.0956   0.4618     O
O       0.4643   0.4044   0.9618     O
H       0.4672   0.2374    0.478     H
H       0.4672   0.2626    0.978     H
S       0.4775   0.0942   0.5563     S
S       0.4775   0.4058   0.0563     S
H        0.478   0.0328   0.7374     H
H        0.478   0.4672   0.2374     H
C       0.4781   0.6526   0.6916     C
C       0.4781   0.8474   0.1916     C
C       0.4813   0.2337   0.9354     C
C       0.4813   0.2663   0.4354     C
C       0.5187   0.7337   0.5646     C
C       0.5187   0.7663   0.0646     C
C       0.5219   0.1526   0.8084     C
C       0.5219   0.3474   0.3084     C
H        0.522   0.5328   0.7626     H
H        0.522   0.9672   0.2626     H
S       0.5225   0.5942   0.9437     S
S       0.5225   0.9058   0.4437     S
H       0.5328   0.7374    0.022     H
H       0.5328   0.7626    0.522     H
O       0.5357   0.5956   0.0382     O
O       0.5357   0.9044   0.5382     O
H       0.5359   0.1251   0.7648     H
H       0.5359   0.3749   0.2648     H
O       0.5382   0.5357   0.9044     O
O       0.5382   0.9643   0.4044     O
C       0.5437   0.6303   0.6504     C
C       0.5437   0.8697   0.1504     C
C       0.5456   0.2472   0.3964     C
C       0.5456   0.2528   0.8964     C
O       0.5458   0.6608   0.9028     O
O       0.5458   0.8392   0.4028     O
O       0.5526   0.5653   0.0829     O
O       0.5526   0.9347   0.5829     O
S       0.5563   0.0225   0.5942     S
S       0.5563   0.4775   0.0942     S
C       0.5643   0.6719   0.5868     C
C       0.5643   0.8281   0.0868     C
C       0.5646   0.5187   0.7337     C
C       0.5646   0.9813   0.2337     C
C       0.5648   0.2128   0.8304     C
C       0.5648   0.2872   0.3304     C
O       0.5653   0.0829   0.5526     O
O       0.5653   0.4171   0.0526     O
Fe     0.57385  0.07385  0.42615    Fe
Fe     0.57385  0.42615  0.92615    Fe
O      0.58242  0.09307  0.30782     O
O      0.58242  0.40693  0.80782     O
O       0.5829   0.5526   0.9347     O
O       0.5829   0.9474   0.4347     O
C       0.5868   0.5643   0.6719     C
C       0.5868   0.9357   0.1719     C
O      0.59307  0.19218  0.41758     O
O      0.59307  0.30782  0.91758     O
S       0.5942   0.5563   0.0225     S
S       0.5942   0.9437   0.5225     S
O       0.5956   0.0382   0.5357     O
O       0.5956   0.4618   0.0357     O
O       0.5972   0.0458   0.6608     O
O       0.5972   0.4542   0.1608     O
C       0.6036   0.0456   0.2528     C
C       0.6036   0.4544   0.7528     C
H       0.6251   0.7352   0.4641     H
H       0.6251   0.7648   0.9641     H
O      0.62666  0.23673  0.79289     O
O      0.62666  0.26327  0.29289     O
C       0.6303   0.6504   0.5437     C
C       0.6303   0.8496   0.0437     C
C       0.6504   0.5437   0.6303     C
C       0.6504   0.9563   0.1303     C
C       0.6526   0.6916   0.4781     C
C       0.6526   0.8084   0.9781     C
O       0.6608   0.5972   0.0458     O
O       0.6608   0.9028   0.5458     O
Fe     0.66756  0.16756  0.33244    Fe
Fe     0.66756  0.33244  0.83244    Fe
C       0.6696   0.0648   0.2128     C
C       0.6696   0.4352   0.7128     C
C       0.6719   0.5868   0.5643     C
C       0.6719   0.9132   0.0643     C
C       0.6916   0.0219   0.1526     C
C       0.6916   0.4781   0.6526     C
O      0.69218  0.08242  0.40693     O
O      0.69218  0.41758  0.90693     O
O      0.70711  0.12666  0.23673     O
O      0.70711  0.37334  0.73673     O
C       0.7128   0.6696   0.4352     C
C       0.7128   0.8304   0.9352     C
C       0.7337   0.5646   0.5187     C
C       0.7337   0.9354   0.0187     C
H       0.7352   0.0359   0.1251     H
H       0.7352   0.4641   0.6251     H
O      0.73673  0.70711  0.37334     O
O      0.73673  0.79289  0.87334     O
H       0.7374    0.022   0.5328     H
H       0.7374    0.478   0.0328     H
C       0.7472   0.1036   0.4544     C
C       0.7472   0.3964   0.9544     C
C       0.7528   0.6036   0.4544     C
C       0.7528   0.8964   0.9544     C
H       0.7626    0.522   0.5328     H
H       0.7626    0.978   0.0328     H
O      0.76327  0.20711  0.37334     O
O      0.76327  0.29289  0.87334     O
H       0.7648   0.5359   0.1251     H
H       0.7648   0.9641   0.6251     H
C       0.7663   0.0646   0.5187     C
C       0.7663   0.4354   0.0187     C
C       0.7872   0.1696   0.4352     C
C       0.7872   0.3304   0.9352     C
O      0.79289  0.62666  0.23673     O
O      0.79289  0.87334  0.73673     O
O      0.80782  0.58242  0.40693     O
O      0.80782  0.91758  0.90693     O
C       0.8084   0.5219   0.1526     C
C       0.8084   0.9781   0.6526     C
C       0.8281   0.0868   0.5643     C
C       0.8281   0.4132   0.0643     C
C       0.8304   0.5648   0.2128     C
C       0.8304   0.9352   0.7128     C
Fe     0.83244  0.66756  0.33244    Fe
Fe     0.83244  0.83244  0.83244    Fe
O       0.8392   0.0972   0.0458     O
O       0.8392   0.4028   0.5458     O
C       0.8474   0.1916   0.4781     C
C       0.8474   0.3084   0.9781     C
C       0.8496   0.0437   0.6303     C
C       0.8496   0.4563   0.1303     C
C       0.8697   0.1504   0.5437     C
C       0.8697   0.3496   0.0437     C
O      0.87334  0.73673  0.79289     O
O      0.87334  0.76327  0.29289     O
H       0.8749   0.2352   0.4641     H
H       0.8749   0.2648   0.9641     H
C       0.8964   0.5456   0.2528     C
C       0.8964   0.9544   0.7528     C
O       0.9028   0.5458   0.6608     O
O       0.9028   0.9542   0.1608     O
O       0.9044   0.5382   0.5357     O
O       0.9044   0.9618   0.0357     O
S       0.9058   0.0563   0.0225     S
S       0.9058   0.4437   0.5225     S
O      0.90693  0.69218  0.41758     O
O      0.90693  0.80782  0.91758     O
C       0.9132   0.0643   0.6719     C
C       0.9132   0.4357   0.1719     C
O       0.9171   0.0526   0.9347     O
O       0.9171   0.4474   0.4347     O
O      0.91758  0.59307  0.30782     O
O      0.91758  0.90693  0.80782     O
Fe     0.92615  0.57385  0.42615    Fe
Fe     0.92615  0.92615  0.92615    Fe
O       0.9347   0.5829   0.5526     O
O       0.9347   0.9171   0.0526     O
C       0.9352   0.7128   0.8304     C
C       0.9352   0.7872   0.3304     C
C       0.9354   0.0187   0.7337     C
C       0.9354   0.4813   0.2337     C
C       0.9357   0.1719   0.5868     C
C       0.9357   0.3281   0.0868     C
S       0.9437   0.5225   0.5942     S
S       0.9437   0.9775   0.0942     S
O       0.9474   0.0653   0.0829     O
O       0.9474   0.4347   0.5829     O
O       0.9542   0.1608   0.9028     O
O       0.9542   0.3392   0.4028     O
C       0.9544   0.7472   0.3964     C
C       0.9544   0.7528   0.8964     C
C       0.9563   0.1303   0.6504     C
C       0.9563   0.3697   0.1504     C
O       0.9618   0.0357   0.9044     O
O       0.9618   0.4643   0.4044     O
H       0.9641   0.6251   0.7648     H
H       0.9641   0.8749   0.2648     H
O       0.9643   0.0956   0.0382     O
O       0.9643   0.4044   0.5382     O
H       0.9672   0.2374    0.022     H
H       0.9672   0.2626    0.522     H
S       0.9775   0.0942   0.9437     S
S       0.9775   0.4058   0.4437     S
H        0.978   0.0328   0.7626     H
H        0.978   0.4672   0.2626     H
C       0.9781   0.6526   0.8084     C
C       0.9781   0.8474   0.3084     C
C       0.9813   0.2337   0.5646     C
C       0.9813   0.2663   0.0646     C
