data_I
_chemical_name_common  '/home/zhangsd/repos/MofS-CGCNN/ML/data/WS24/clean_cifs/GAZLAW'
_cell_length_a 14.94140
_cell_length_b 15.99180
_cell_length_c 16.03810
_cell_angle_alpha 90.00000
_cell_angle_beta  90.00000
_cell_angle_gamma 90.00000
_space_group_name_H-M_alt      'P 1'


loop_
_space_group_symop_operation_xyz
  'x, y, z' 

loop_
_atom_site_label
_atom_site_fract_x
_atom_site_fract_y
_atom_site_fract_z
_atom_site_type_symbol
H       0.0003   0.6123   0.0132     H
O      0.00099  0.43869  0.17027     O
C      0.01149  0.38513   0.7645     C
O       0.0183  0.09661  0.68861     O
H        0.019    0.414    0.205     H
C      0.02068  0.22826  0.76243     C
C      0.02258  0.38513  0.85938     C
H       0.0235   0.7215   0.6155     H
H       0.0252   0.9331    0.752     H
C       0.0257  0.64786  0.76583     C
C      0.03314  0.80573   0.7646     C
C      0.03402  0.22865  0.85739     C
H       0.0368   0.8824   0.6148     H
H       0.0383   0.8065   0.8249     H
H       0.0415   0.5015   0.8687     H
O      0.04974   0.5915  0.03428     O
Na     0.06207  0.44699   0.0377    Na
O      0.06636  0.45853  0.88725     O
H       0.0718   0.1819   0.8731     H
C      0.07673  0.30968  0.88754     C
H       0.0798   0.7241   0.9363     H
O      0.08033  0.31188  0.97733     O
O      0.08732  0.26007  0.42927     O
O      0.09101  0.16922  0.53343     O
H       0.0911   0.8133   0.0399     H
H        0.093   0.8026   0.7414     H
O      0.09435  0.76372  0.05233     O
C      0.09525  0.93548  0.32308     C
O      0.09602   0.3893  0.72215     O
H       0.1017   0.0319   0.2379     H
O       0.1032  0.94094  0.47126     O
H       0.1039   0.9438    0.195     H
O      0.10412  0.63816  0.74343     O
O      0.10784  0.22993  0.72345     O
H       0.1095   0.0394   0.3975     H
H       0.1107   0.2822   0.9937     H
H       0.1151   0.8771   0.3247     H
H       0.1223   0.4321   0.7359     H
C      0.12347  0.71662  0.98135     C
C      0.12407  0.22902  0.49069     C
H       0.1255   0.2814   0.7219     H
C      0.12636  0.97594   0.2418     C
H       0.1281   0.9618   0.5042     H
C      0.13115  0.62356  0.00075     C
C       0.1331  0.98219  0.39771     C
H       0.1376   0.3139   0.8651     H
Co     0.14421  0.13324  0.64511    Co
H       0.1448   0.5936    0.949     H
H       0.1623   0.3677   0.5785     H
H       0.1696   0.9731   0.8099     H
O      0.18524  0.01522  0.60941     O
H        0.187   0.6291   0.1177     H
H       0.1874   0.3855   0.4853     H
C      0.20384   0.6049   0.0638     C
C      0.20699  0.35774  0.53583     C
H        0.208   0.8125   0.9443     H
O       0.2088  0.51583  0.07182     O
H        0.211    0.776    0.108     H
C      0.21366  0.75272  0.95295     C
C      0.21423  0.26468  0.51981     C
H       0.2216   0.5031   0.1168     H
O      0.22499  0.09592  0.89317     O
C      0.22796   0.9806  0.23673     C
H       0.2312   0.7273   0.9005     H
O      0.23188  0.09589  0.14449     O
C      0.23449  0.97313  0.81255     C
H        0.235     0.12    0.781     H
C      0.23542  0.98592  0.39345     C
O      0.23644  0.22145  0.59577     O
O      0.23677  0.10414  0.73412     O
H       0.2395   0.1209   0.9357     H
C      0.24018    0.976  0.65634     C
H       0.2416    0.982    0.941     H
H       0.2454   0.0845   0.3115     H
H       0.2546   0.9155   0.8115     H
H       0.2584    0.018    0.441     H
C      0.25982    0.024  0.15634     C
H       0.2605   0.8791   0.4357     H
O      0.26323  0.89586  0.23412     O
O      0.26356  0.77855  0.09577     O
C      0.26458  0.01408  0.89345     C
H        0.265     0.88    0.281     H
C      0.26551  0.02687  0.31255     C
O      0.26812  0.90411  0.64449     O
H       0.2688   0.2727   0.4005     H
C      0.27204   0.0194  0.73673     C
O      0.27501  0.90408  0.39317     O
H       0.2784   0.4969   0.6168     H
C      0.28577  0.73532  0.01981     C
C      0.28634  0.24728  0.45295     C
H        0.289    0.224    0.608     H
O       0.2912  0.48417  0.57182     O
H        0.292   0.1875   0.4443     H
C      0.29301  0.64226  0.03583     C
C      0.29616   0.3951   0.5638     C
H       0.3126   0.6145   0.9853     H
H        0.313   0.3709   0.6177     H
O      0.31476  0.98478  0.10941     O
H       0.3304   0.0269   0.3099     H
H       0.3377   0.6323   0.0785     H
H       0.3552   0.4064    0.449     H
Co     0.35579  0.86676  0.14511    Co
H       0.3624   0.6861   0.3651     H
C       0.3669  0.01781  0.89771     C
C      0.36885  0.37644  0.50075     C
H       0.3719   0.0382   0.0042     H
C      0.37364  0.02406   0.7418     C
H       0.3745   0.7186   0.2219     H
C      0.37593  0.77098  0.99069     C
C      0.37653  0.28338  0.48135     C
H       0.3777   0.5679   0.2359     H
H       0.3849   0.1229   0.8247     H
H       0.3893   0.7178   0.4937     H
H       0.3905   0.9606   0.8975     H
O      0.39216  0.77007  0.22345     O
O      0.39588  0.36184  0.24343     O
H       0.3961   0.0562    0.695     H
O       0.3968  0.05906  0.97126     O
H       0.3983   0.9681   0.7379     H
O      0.40398   0.6107  0.22215     O
C      0.40475  0.06452  0.82308     C
O      0.40565  0.23628  0.55233     O
H        0.407   0.1974   0.2414     H
H       0.4089   0.1867   0.5399     H
O      0.40899  0.83078  0.03343     O
O      0.41268  0.73993  0.92927     O
O      0.41967  0.68812  0.47733     O
H       0.4202   0.2759   0.4363     H
C      0.42327  0.69032  0.38754     C
H       0.4282   0.8181   0.3731     H
O      0.43364  0.54147  0.38725     O
Na     0.43793  0.55301   0.5377    Na
O      0.45026   0.4085  0.53428     O
H       0.4585   0.4985   0.3687     H
H       0.4617   0.1935   0.3249     H
H       0.4632   0.1176   0.1148     H
C      0.46598  0.77135  0.35739     C
C      0.46686  0.19427   0.2646     C
C       0.4743  0.35214  0.26583     C
H       0.4748   0.0669    0.252     H
H       0.4765   0.2785   0.1155     H
C      0.47742  0.61487  0.35938     C
C      0.47932  0.77174  0.26243     C
H        0.481    0.586    0.705     H
O       0.4817  0.90339  0.18861     O
C      0.48851  0.61487   0.2645     C
O      0.49901  0.56131  0.67027     O
H       0.4997   0.3877   0.5132     H
H       0.5003   0.8877   0.9868     H
O      0.50099  0.06131  0.82973     O
C      0.51149  0.11487   0.2355     C
O       0.5183  0.40339  0.31139     O
H        0.519    0.086    0.795     H
C      0.52068  0.27174  0.23757     C
C      0.52258  0.11487  0.14062     C
H       0.5235   0.7785   0.3845     H
H       0.5252   0.5669    0.248     H
C       0.5257  0.85214  0.23417     C
C      0.53314  0.69427   0.2354     C
C      0.53402  0.27135  0.14261     C
H       0.5368   0.6176   0.3852     H
H       0.5383   0.6935   0.1751     H
H       0.5415   0.9985   0.1313     H
O      0.54974   0.9085  0.96572     O
Na     0.56207  0.05301   0.9623    Na
O      0.56636  0.04147  0.11275     O
H       0.5718   0.3181   0.1269     H
C      0.57673  0.19032  0.11246     C
H       0.5798   0.7759   0.0637     H
O      0.58033  0.18812  0.02267     O
O      0.58732  0.23993  0.57073     O
O      0.59101  0.33078  0.46657     O
H       0.5911   0.6867   0.9601     H
H        0.593   0.6974   0.2586     H
O      0.59435  0.73628  0.94767     O
C      0.59525  0.56452  0.67692     C
O      0.59602   0.1107  0.27785     O
H       0.6017   0.4681   0.7621     H
O       0.6032  0.55906  0.52874     O
H       0.6039   0.5562    0.805     H
O      0.60412  0.86184  0.25657     O
O      0.60784  0.27007  0.27655     O
H       0.6095   0.4606   0.6025     H
H       0.6107   0.2178   0.0063     H
H       0.6151   0.6229   0.6753     H
H       0.6223   0.0679   0.2641     H
C      0.62347  0.78338  0.01865     C
C      0.62407  0.27098  0.50931     C
H       0.6255   0.2186   0.2781     H
C      0.62636  0.52406   0.7582     C
H       0.6281   0.5382   0.4958     H
C      0.63115  0.87644  0.99925     C
C       0.6331  0.51781  0.60229     C
H       0.6376   0.1861   0.1349     H
Co     0.64421  0.36676  0.35489    Co
H       0.6448   0.9064    0.051     H
H       0.6623   0.1323   0.4215     H
H       0.6696   0.5269   0.1901     H
O      0.68524  0.48478  0.39059     O
H        0.687   0.8709   0.8823     H
H       0.6874   0.1145   0.5147     H
C      0.70384   0.8951   0.9362     C
C      0.70699  0.14226  0.46417     C
H        0.708   0.6875   0.0557     H
O       0.7088  0.98417  0.92818     O
H        0.711    0.724    0.892     H
C      0.71366  0.74728  0.04705     C
C      0.71423  0.23532  0.48019     C
H       0.7216   0.9969   0.8832     H
O      0.72499  0.40408  0.10683     O
C      0.72796   0.5194  0.76327     C
H       0.7312   0.7727   0.0995     H
O      0.73188  0.40411  0.85551     O
C      0.73449  0.52687  0.18745     C
H        0.735     0.38    0.219     H
C      0.73542  0.51408  0.60655     C
O      0.73644  0.27855  0.40423     O
O      0.73677  0.39586  0.26588     O
H       0.7395   0.3791   0.0643     H
C      0.74018    0.524  0.34366     C
H       0.7416    0.518    0.059     H
H       0.7454   0.4155   0.6885     H
H       0.7546   0.5845   0.1885     H
H       0.7584    0.482    0.559     H
C      0.75982    0.476  0.84366     C
H       0.7605   0.6209   0.5643     H
O      0.76323  0.60414  0.76588     O
O      0.76356  0.72145  0.90423     O
C      0.76458  0.48592  0.10655     C
H        0.765     0.62    0.719     H
C      0.76551  0.47313  0.68745     C
O      0.76812  0.59589  0.35551     O
H       0.7688   0.2273   0.5995     H
C      0.77204   0.4806  0.26327     C
O      0.77501  0.59592  0.60683     O
H       0.7784   0.0031   0.3832     H
C      0.78577  0.76468  0.98019     C
C      0.78634  0.25272  0.54705     C
H        0.789    0.276    0.392     H
O       0.7912  0.01583  0.42818     O
H        0.792   0.3125   0.5557     H
C      0.79301  0.85774  0.96417     C
C      0.79616   0.1049   0.4362     C
H       0.8126   0.8855   0.0147     H
H        0.813   0.1291   0.3823     H
O      0.81476  0.51522  0.89059     O
H       0.8304   0.4731   0.6901     H
H       0.8377   0.8677   0.9215     H
H       0.8552   0.0936    0.551     H
Co     0.85579  0.63324  0.85489    Co
H       0.8624   0.8139   0.6349     H
C       0.8669  0.48219  0.10229     C
C      0.86885  0.12356  0.49925     C
H       0.8719   0.4618   0.9958     H
C      0.87364  0.47594   0.2582     C
H       0.8745   0.7814   0.7781     H
C      0.87593  0.72902  0.00931     C
C      0.87653  0.21662  0.51865     C
H       0.8777   0.9321   0.7641     H
H       0.8849   0.3771   0.1753     H
H       0.8893   0.7822   0.5063     H
H       0.8905   0.5394   0.1025     H
O      0.89216  0.72993  0.77655     O
O      0.89588  0.13816  0.75657     O
H       0.8961   0.4438    0.305     H
O       0.8968  0.44094  0.02874     O
H       0.8983   0.5319   0.2621     H
O      0.90398   0.8893  0.77785     O
C      0.90475  0.43548  0.17692     C
O      0.90565  0.26372  0.44767     O
H        0.907   0.3026   0.7586     H
H       0.9089   0.3133   0.4601     H
O      0.90899  0.66922  0.96657     O
O      0.91268  0.76007  0.07073     O
O      0.91967  0.81188  0.52267     O
H       0.9202   0.2241   0.5637     H
C      0.92327  0.80968  0.61246     C
H       0.9282   0.6819   0.6269     H
O      0.93364  0.95853  0.61275     O
Na     0.93793  0.94699   0.4623    Na
O      0.95026   0.0915  0.46572     O
H       0.9585   0.0015   0.6313     H
H       0.9617   0.3065   0.6751     H
H       0.9632   0.3824   0.8852     H
C      0.96598  0.72865  0.64261     C
C      0.96686  0.30573   0.7354     C
C       0.9743  0.14786  0.73417     C
H       0.9748   0.4331    0.748     H
H       0.9765   0.2215   0.8845     H
C      0.97742  0.88513  0.64062     C
C      0.97932  0.72826  0.73757     C
H        0.981    0.914    0.295     H
O       0.9817  0.59661  0.81139     O
C      0.98851  0.88513   0.7355     C
O      0.99901  0.93869  0.32973     O
H       0.9997   0.1123   0.4868     H
