data_I
_chemical_name_common  '/home/zhangsd/repos/MofS-CGCNN/ML/data/WS24/clean_cifs/GEFZAU'
_cell_length_a 18.41000
_cell_length_b 18.41000
_cell_length_c 21.32100
_cell_angle_alpha 90.00000
_cell_angle_beta  90.00000
_cell_angle_gamma 120.00000
_space_group_name_H-M_alt      'P 1'


loop_
_space_group_symop_operation_xyz
  'x, y, z' 

loop_
_atom_site_label
_atom_site_fract_x
_atom_site_fract_y
_atom_site_fract_z
_atom_site_type_symbol
H       0.0002   0.6283  0.57943     H
C       0.0023   0.5189  0.57283     C
C       0.0025    0.408  0.26843     C
C       0.0028   0.1965  0.51603     C
H       0.0057   0.3585   0.0645     H
C       0.0097   0.2271  0.45483     C
H       0.0138   0.4178   0.7824     H
H       0.0166   0.3077   0.9406     H
C       0.0221    0.599   0.7762     C
C       0.0281    0.534   0.0323     C
C       0.0286   0.2958   0.8998     C
C       0.0304   0.4741   0.7932     C
H       0.0338   0.1708  0.52973     H
C       0.0395    0.572  0.26673     C
H       0.0412   0.5307  0.60593     H
H       0.0444   0.2185  0.42633     H
H       0.0499    0.628  0.26793     H
N       0.0511    0.474   0.0329     N
C       0.0536   0.2598   0.7764     C
H       0.0603   0.5816   0.0065     H
H       0.0612   0.2467   0.7346     H
H       0.0676   0.5463  0.41687     H
C       0.0699   0.4697  0.23463     C
H       0.0754   0.4237  0.40767     H
C        0.079   0.6387   0.8246     C
C       0.0874   0.5138   0.8415     C
C       0.0884   0.3625   0.8606     C
C       0.0899   0.5496  0.23093     C
C       0.0952   0.3386   0.7956     C
H       0.0957   0.6951   0.8353     H
H       0.1042   0.4534  0.21243     H
C       0.1117   0.5962   0.8572     C
C       0.1185   0.5494  0.40387     C
C       0.1231   0.4766  0.39847     C
H       0.1305   0.3812   0.7668     H
H        0.137   0.9662  0.86307     H
P        0.139   0.4702  0.88651     P
H       0.1428   0.4388   0.5232     H
H       0.1497   0.5378  0.12373     H
H       0.1506   0.6233   0.8903     H
H       0.1529    0.378   0.6178     H
Cu      0.1561   0.4926  0.99152    Cu
C       0.1594   0.6153  0.19563     C
Cl      0.1621   0.3787  0.03923    Cl
H       0.1708   0.0338  0.13693     H
H       0.1741   0.9556  0.75967     H
C       0.1795   0.4742    0.555     C
C       0.1812   0.5939  0.13853     C
H        0.185   0.6765  0.39397     H
H       0.1855   0.9388  0.06793     H
C        0.188   0.4361   0.6096     C
C       0.1883   0.6268  0.39027     C
H       0.1894   0.7124  0.25443     H
C       0.1937   0.9972  0.84937     C
C       0.1965   0.0028  0.15063     C
C       0.1974   0.4811  0.37937     C
H       0.2006   0.4313  0.37567     H
H       0.2009   0.7341  0.02013     H
H       0.2048   0.5726   0.5089     H
C       0.2054   0.6969  0.21663     C
C       0.2062   0.9464  0.10973     C
Cl      0.2166   0.8379  0.37257    Cl
C       0.2173    0.552   0.5457     C
C       0.2174   0.9903  0.78817     C
H       0.2185   0.0444  0.24033     H
H       0.2227   0.5584   0.7661     H
H       0.2251   0.8471  0.95113     H
C       0.2271   0.0097  0.21183     C
H       0.2307   0.7994    0.709     H
C       0.2375   0.7476  0.98523     C
C       0.2408   0.5182   0.8492     C
C       0.2434   0.9048  0.12893     C
H       0.2435    0.682   0.6861     H
H       0.2467   0.0612  0.93207     H
C       0.2472   0.6521  0.10313     C
C       0.2481    0.812  0.94293     C
H       0.2507   0.8695  0.10013     H
C       0.2524   0.4899   0.6519     C
C       0.2598   0.0536  0.89027     C
C       0.2626   0.6313  0.37127     C
C       0.2641    0.557   0.7919     C
P       0.2653   0.6197  0.02658     P
H       0.2659   0.4668   0.6868     H
C       0.2672   0.5584  0.36577     C
C       0.2672   0.9714  0.23313     C
C       0.2741   0.9116  0.19393     C
C       0.2764   0.6088    0.587     C
C       0.2774   0.7592  0.18253     C
C       0.2795   0.7058  0.97573     C
C       0.2837   0.8026   0.7127     C
H       0.2876    0.477   0.9211     H
H       0.2911   0.9834  0.27393     H
C       0.2912   0.7328   0.6991     C
C       0.2929   0.7359  0.12523     C
C       0.2942   0.5737   0.6424     C
C       0.2947   0.8205  0.88833     C
C       0.2958   0.0286  0.76687     C
H        0.296   0.8572  0.85653     H
C       0.3031   0.5085   0.8833     C
H        0.304   0.6675   0.5796     H
H       0.3049   0.4006  0.50197     H
H       0.3077   0.0166  0.72607     H
H        0.318   0.5615  0.35277     H
H       0.3235   0.5085  0.06063     H
P       0.3312    0.861  0.21984     P
C       0.3324   0.7236  0.92033     C
H       0.3325   0.6365  0.24627     H
C       0.3347   0.7827  0.87903     C
H       0.3357   0.7773  0.09943     H
Cu      0.3365   0.8439  0.32486    Cu
C       0.3386   0.0952  0.87107     C
C       0.3479   0.5951   0.7698     C
H       0.3483   0.9246    0.741     H
H       0.3492   0.8958  0.54577     H
H       0.3528   0.9943  0.39783     H
C       0.3535   0.8769   0.7318     C
P       0.3544   0.7347  0.35992     P
H       0.3585   0.0057  0.60217     H
C       0.3613   0.4403  0.49127     C
C       0.3625   0.0884  0.80607     C
H       0.3635    0.696  0.91293     H
H       0.3678   0.7952  0.84223     H
C       0.3687   0.6313  0.03793     C
C       0.3687   0.7374   0.7046     C
H       0.3717   0.3719   0.2461     H
H       0.3719   0.3717  0.42057     H
H        0.372   0.4219   0.9346     H
C       0.3732   0.5615  0.05693     C
H       0.3767   0.5273  0.55697     H
H        0.378   0.1529  0.04887     H
Cl      0.3787   0.1621  0.62743    Cl
P       0.3803   0.6456  0.69325     P
H       0.3812   0.1305  0.89987     H
C       0.3847   0.5441   0.8623     C
H       0.3881   0.8503  0.45707     H
C       0.3912   0.6676  0.25367     C
C       0.3998   0.9301  0.56797     C
H       0.4006   0.3049   0.1647     H
C        0.401   0.4231  0.44287     C
C       0.4038   0.5155  0.52387     C
H        0.404   0.9862  0.11573     H
C       0.4049   0.7528  0.43647     C
C       0.4055   0.9975  0.60177     C
C       0.4061   0.5873   0.8052     C
C        0.408   0.0025  0.39823     C
C       0.4127   0.8188  0.47187     C
H       0.4178   0.0138  0.88427     H
H       0.4184   0.4787  0.67317     H
H       0.4219    0.372  0.73207     H
N       0.4229   0.9489  0.36623     N
C       0.4231    0.401   0.2238     C
H       0.4237   0.0754    0.259     H
C       0.4263   0.7205  0.30907     C
C       0.4264   0.9126  0.17483     C
H       0.4274   0.6322  0.17557     H
C        0.428   0.4675   0.9334     C
C       0.4309   0.8815   0.7372     C
H       0.4313   0.2006    0.291     H
C       0.4361    0.188  0.05707     C
H       0.4385   0.7565  0.01943     H
C       0.4385   0.8117   0.7236     C
H       0.4388   0.1428  0.14347     H
C       0.4403   0.3613   0.1754     C
H       0.4416   0.6643  0.43277     H
C       0.4416   0.7088  0.03243     C
C        0.443   0.7071  0.45857     C
C       0.4437   0.9696  0.12653     C
C        0.448   0.6653  0.21237     C
C       0.4504   0.5403   0.8976     C
C       0.4506   0.5691  0.07053     C
H       0.4534   0.1042  0.45423     H
H       0.4537   0.5213  0.08353     H
C       0.4559   0.8406  0.52897     C
C       0.4597   0.9101  0.56427     C
H       0.4622   0.6119   0.7904     H
C        0.466   0.4941  0.69897     C
H       0.4668   0.2659  0.97987     H
C       0.4675    0.428  0.73327     C
H       0.4693   0.5105   0.2726     H
C       0.4697   0.0699  0.43203     C
P       0.4702    0.139  0.78016     P
H       0.4727   0.8494  0.22363     H
N        0.474   0.0511  0.63377     N
C       0.4741   0.0304  0.87347     C
C       0.4742   0.1795  0.11167     C
C       0.4766   0.1231   0.2682     C
H        0.477   0.2876  0.74557     H
H       0.4787   0.4184   0.9935     H
H       0.4787   0.9324   0.7502     H
C       0.4811   0.1974   0.2873     C
C       0.4811   0.4834   0.2395     C
C       0.4818   0.7226  0.51587     C
C       0.4834   0.4811  0.42717     C
C       0.4845   0.8883  0.19053     C
C       0.4862   0.5736  0.50817     C
H       0.4895   0.9588  0.93927     H
C       0.4899   0.2524  0.01477     C
C       0.4915   0.7946  0.54997     C
H       0.4915    0.815   0.7273     H
Cu      0.4926   0.1561  0.67514    Cu
C       0.4941    0.466   0.9677     C
C       0.5059   0.9719  0.36563     C
Cu      0.5074   0.6635  0.65819    Cu
C       0.5085   0.3031  0.78337     C
H       0.5085   0.3235  0.60603     H
C       0.5101   0.7625  0.31857     C
H       0.5105   0.4693  0.39407     H
C       0.5138   0.0874  0.82517     C
C       0.5155   0.4038   0.1428     C
C       0.5166   0.9977  0.90617     C
C       0.5182   0.2408  0.81747     C
C       0.5189   0.0023  0.09383     C
C       0.5189   0.7163  0.04603     C
H       0.5213   0.4537  0.58313     H
H       0.5213   0.9397  0.33983     H
H        0.523   0.8106  0.58777     H
C       0.5234   0.6465  0.06513     C
C       0.5258   0.7053  0.22167     C
C       0.5259   0.5563  0.45987     C
N        0.526   0.5771  0.69957     N
H       0.5273   0.3767   0.1097     H
P       0.5298   0.6688  0.55318     P
C       0.5303   0.6002   0.9013     C
H       0.5307   0.0412  0.06073     H
C       0.5325   0.9605  0.60007     C
H       0.5332   0.7991  0.35347     H
C        0.534   0.0281  0.63437     C
H       0.5378   0.1497  0.54293     H
C       0.5403   0.4504  0.76907     C
C       0.5441   0.3847  0.80437     C
H       0.5463   0.0676   0.2498     H
H       0.5466   0.6508   0.8791     H
C       0.5494   0.1185   0.2628     C
C       0.5496   0.0899  0.43573     C
C        0.552   0.2173  0.12097     C
C       0.5563   0.5259   0.2068     C
C        0.557   0.2641  0.87477     C
H       0.5584   0.2227  0.90057     H
C       0.5584   0.2672   0.3009     C
C       0.5597    0.921  0.15793     C
H       0.5612    0.704  0.18987     H
H       0.5615    0.318   0.3139     H
C       0.5615   0.3732  0.60973     C
C       0.5639   0.7519  0.27627     C
H       0.5687   0.7693  0.04233     H
C       0.5691   0.4506  0.59613     C
C        0.572   0.0395  0.39993     C
H       0.5726   0.2048  0.15777     H
C       0.5736   0.4862   0.1585     C
C       0.5737   0.2942  0.02427     C
H       0.5763   0.6517  0.07433     H
C       0.5769   0.9779  0.10953     C
N       0.5771    0.526   0.9671     N
H       0.5781   0.9501  0.60127     H
H       0.5816   0.0603  0.66017     H
H       0.5822    0.596  0.44907     H
C       0.5873   0.4061  0.86147     C
C        0.592   0.5945   0.9351     C
C       0.5939   0.1812  0.52813     C
C       0.5945    0.592  0.73157     C
C       0.5951   0.3479  0.89687     C
H        0.596   0.5822   0.2176     H
C       0.5962   0.1117  0.80947     C
C        0.599   0.0221  0.89047     C
H       0.5994   0.9043  0.16863     H
C       0.6002   0.5303  0.76537     C
C       0.6088   0.2764  0.07967     C
H       0.6119   0.4622  0.87627     H
C       0.6153   0.1594  0.47103     C
H       0.6188   0.7493  0.43347     H
P       0.6197   0.2653  0.64008     P
Cl      0.6213   0.7834   0.7059    Cl
H        0.622   0.7749  0.28447     H
H       0.6233   0.1506  0.77637     H
C       0.6268   0.1883   0.2764     C
H        0.628   0.0499  0.39873     H
H       0.6281   0.9998  0.91277     H
H       0.6283   0.0002  0.08723     H
C       0.6313   0.2626   0.2954     C
C       0.6313   0.3687  0.62873     C
H       0.6322   0.4274   0.4911     H
H       0.6365   0.3325   0.4204     H
C       0.6375   0.7259  0.52727     C
C       0.6387    0.079  0.84207     C
H       0.6415   0.6472  0.73117     H
P       0.6456   0.3803  0.97342     P
C       0.6465   0.5234  0.60153     C
H       0.6472   0.6415   0.9355     H
H       0.6508   0.5466  0.78757     H
H       0.6517   0.5763  0.59233     H
C       0.6521   0.2472  0.56353     C
C       0.6614   0.7566  0.46227     C
Cu      0.6635   0.5074  0.00848    Cu
H       0.6643   0.4416   0.2339     H
C       0.6653    0.448   0.4543     C
H       0.6675    0.304  0.08707     H
C       0.6676   0.3912    0.413     C
P       0.6688   0.5298  0.11349     P
H       0.6765    0.185   0.2727     H
H        0.682   0.2435  0.98057     H
H       0.6923   0.7089  0.60727     H
H       0.6951   0.0957  0.83137     H
H        0.696   0.3635  0.75373     H
C       0.6969   0.2054  0.45003     C
H        0.704   0.5612   0.4768     H
C       0.7042   0.7328  0.56647     C
C       0.7053   0.5258    0.445     C
C       0.7058   0.2795  0.69093     C
C       0.7071    0.443   0.2081     C
C       0.7088   0.4416  0.63423     C
H       0.7089   0.6923   0.0594     H
H       0.7124   0.1894  0.41223     H
C       0.7163   0.5189  0.62063     C
C       0.7205   0.4263   0.3576     C
C       0.7226   0.4818   0.1508     C
C       0.7236   0.3324  0.74633     C
C       0.7259   0.6375   0.1394     C
C       0.7328   0.2912  0.96757     C
C       0.7328   0.7042   0.1002     C
H       0.7341   0.2009  0.64653     H
P       0.7347   0.3544  0.30675     P
C       0.7359   0.2929  0.54143     C
C       0.7374   0.3687  0.96207     C
C       0.7402   0.7938  0.44307     C
C       0.7476   0.2375  0.68143     C
H       0.7493   0.6188   0.2332     H
C       0.7519   0.5639   0.3904     C
C       0.7528   0.4049   0.2302     C
H       0.7533   0.8145  0.40127     H
H       0.7565   0.4385  0.64723     H
C       0.7566   0.6614   0.2044     C
C       0.7592   0.2774  0.48413     C
C       0.7625   0.5101   0.3481     C
H       0.7693   0.5687  0.62433     H
C       0.7729   0.7826   0.1215     C
H       0.7749    0.622   0.3822     H
H       0.7773   0.3357  0.56723     H
H       0.7815   0.8259    0.093     H
C       0.7826   0.7729  0.54517     C
C       0.7827   0.3347  0.78763     C
Cl      0.7834   0.6213  0.96077    Cl
C       0.7938   0.7402   0.2236     C
C       0.7946   0.4915   0.1167     C
H       0.7952   0.3678  0.82443     H
H       0.7991   0.5332   0.3132     H
H       0.7994   0.2307  0.95767     H
C       0.8026   0.2837  0.95397     C
C       0.8035   0.8063   0.1827     C
C       0.8063   0.8035  0.48397     C
H       0.8106    0.523   0.0789     H
C       0.8117   0.4385  0.94307     C
C        0.812   0.2481  0.72373     C
H       0.8145   0.7533   0.2654     H
H        0.815   0.4915  0.93937     H
C       0.8188   0.4127   0.1948     C
C       0.8205   0.2947  0.77833     C
H       0.8259   0.7815  0.57367     H
H       0.8292    0.863   0.1964     H
Cl      0.8379   0.2166   0.2941    Cl
C       0.8406   0.4559   0.1377     C
Cu      0.8439   0.3365  0.34181    Cu
H       0.8471   0.2251  0.71553     H
H       0.8494   0.4727  0.44303     H
H       0.8503   0.3881   0.2096     H
H       0.8572    0.296  0.81013     H
P        0.861   0.3312  0.44682     P
H        0.863   0.8292  0.47027     H
H       0.8695   0.2507  0.56653     H
C       0.8769   0.3535  0.93487     C
C       0.8815   0.4309  0.92947     C
C       0.8883   0.4845  0.47613     C
H       0.8958   0.3492   0.1209     H
H       0.9043   0.5994  0.49803     H
C       0.9048   0.2434  0.53773     C
C       0.9101   0.4597   0.1024     C
C       0.9116   0.2741  0.47273     C
C       0.9126   0.4264  0.49183     C
C        0.921   0.5597  0.50873     C
H       0.9246   0.3483  0.92567     H
C       0.9301   0.3998   0.0987     C
H       0.9324   0.4787  0.91647     H
H       0.9388   0.1855  0.59873     H
H       0.9397   0.5213  0.32683     H
C       0.9464   0.2062  0.55693     C
N       0.9489   0.4229  0.30043     N
H       0.9501   0.5781   0.0654     H
H       0.9556   0.1741    0.907     H
H       0.9588   0.4895   0.7274     H
C       0.9605   0.5325   0.0666     C
H       0.9662    0.137   0.8036     H
C       0.9696   0.4437  0.54013     C
C       0.9714   0.2672  0.43353     C
C       0.9719   0.5059  0.30103     C
C       0.9779   0.5769  0.55713     C
H       0.9834   0.2911  0.39273     H
H       0.9862    0.404  0.55093     H
C       0.9903   0.2174   0.8785     C
H       0.9943   0.3528  0.26883     H
C       0.9972   0.1937   0.8173     C
C       0.9975   0.4055   0.0649     C
C       0.9977   0.5166   0.7605     C
H       0.9998   0.6281   0.7539     H
