data_I
_chemical_name_common  '/home/zhangsd/repos/MofS-CGCNN/ML/data/WS24/clean_cifs/GIYTAK'
_cell_length_a  8.94360
_cell_length_b  9.45380
_cell_length_c 19.00500
_cell_angle_alpha 95.16600
_cell_angle_beta  93.05000
_cell_angle_gamma 117.53400
_space_group_name_H-M_alt      'P 1'


loop_
_space_group_symop_operation_xyz
  'x, y, z' 

loop_
_atom_site_label
_atom_site_fract_x
_atom_site_fract_y
_atom_site_fract_z
_atom_site_type_symbol
Cd         0.0      0.0      0.0    Cd
Cd     0.01638  0.10181  0.17922    Cd
H       0.0387   0.5683   0.0812     H
O       0.1158   0.8564   0.1921     O
O       0.1378   0.2674  0.01373     O
O       0.1383   0.9976  0.10409     O
C        0.154   0.8858   0.1324     C
O       0.1564   0.3329  0.13065     O
C       0.1584   0.6236   0.0984     C
H       0.1691   0.6148   0.1487     H
H       0.1699   0.0141   0.3175     H
N       0.1718   0.2049   0.2862     N
C       0.1748   0.3657   0.0688     C
O       0.1979   0.9865  0.92861     O
H       0.2024   0.4223   0.2785     H
C        0.211   0.1239   0.3305     C
H        0.213   0.8094   0.0378     H
C       0.2302   0.3623   0.3078     C
C       0.2322   0.8008   0.0881     C
H       0.2358   0.5496   0.0077     H
C       0.2495   0.5421   0.0585     C
O       0.2499   0.1229  0.83707     O
C       0.2976   0.0985   0.8961     C
C       0.3081   0.1919   0.3941     C
C       0.3286   0.4387   0.3707     C
H       0.3351   0.1295   0.4221     H
C       0.3662   0.3524   0.4168     C
H       0.3701    0.549   0.3824     H
C        0.424   0.8887   0.1121     C
C       0.4392   0.6309   0.0849     C
H       0.4421   0.8906    0.163     H
H       0.4543   0.6223    0.135     H
C       0.4697   0.4239   0.4863     C
H       0.4709   0.9992   0.1022     H
C       0.4816   0.1923   0.9256     C
H        0.491   0.1845   0.9766     H
H       0.4939   0.3572   0.5126     H
H       0.4968   0.5804   0.0594     H
H       0.5032   0.4196   0.9406     H
H       0.5061   0.6428   0.4874     H
H        0.509   0.8155   0.0234     H
C       0.5184   0.8077   0.0744     C
H       0.5291   0.0008   0.8978     H
C       0.5303   0.5761   0.5137     C
H       0.5457   0.3777    0.865     H
H       0.5579   0.1094    0.837     H
C       0.5608   0.3691   0.9151     C
C        0.576   0.1113   0.8879     C
H       0.6299    0.451   0.6176     H
C       0.6338   0.6476   0.5832     C
H       0.6649   0.8705   0.5779     H
C       0.6714   0.5613   0.6293     C
C       0.6919   0.8081   0.6059     C
C       0.7024   0.9015   0.1039     C
O       0.7501   0.8771  0.16293     O
C       0.7505   0.4579   0.9415     C
H       0.7642   0.4504   0.9923     H
C       0.7678   0.1992   0.9119     C
C       0.7698   0.6377   0.6922     C
H        0.787   0.1906   0.9622     H
C        0.789   0.8761   0.6695     C
H       0.7976   0.5777   0.7215     H
O       0.8021   0.0135  0.07139     O
C       0.8252   0.6343   0.9312     C
N       0.8282   0.7951   0.7138     N
H       0.8301   0.9859   0.6825     H
H       0.8309   0.3852   0.8513     H
C       0.8416   0.3764   0.9016     C
O       0.8436   0.6671  0.86935     O
C        0.846   0.1142   0.8676     C
O       0.8617   0.0024  0.89591     O
O       0.8622   0.7326  0.98627     O
O       0.8842   0.1436   0.8079     O
H       0.9613   0.4317   0.9188     H
Cd     0.98362  0.89819  0.82078    Cd
