data_I
_chemical_name_common  '/home/zhangsd/repos/MofS-CGCNN/ML/data/WS24/clean_cifs/GUCTAB'
_cell_length_a 27.29504
_cell_length_b 27.29504
_cell_length_c 27.29504
_cell_angle_alpha 109.47122
_cell_angle_beta  109.47122
_cell_angle_gamma 109.47122
_space_group_name_H-M_alt      'P 1'


loop_
_space_group_symop_operation_xyz
  'x, y, z' 

loop_
_atom_site_label
_atom_site_fract_x
_atom_site_fract_y
_atom_site_fract_z
_atom_site_type_symbol
H          0.0   0.1708      0.5     H
O          0.0   0.2074      0.5     O
O          0.0    0.937      0.5     O
C        0.003   0.5528   0.8302     C
C       0.0031   0.4781   0.2784     C
H       0.0044   0.6411   0.1171     H
H       0.0047   0.9615   0.5338     H
N       0.0064   0.6023   0.8307     N
C       0.0075   0.4559   0.2262     C
Tb    0.008533 0.770875 0.587572    Tb
O       0.0087   0.2748   0.4445     O
O       0.0089   0.6845   0.5966     O
C       0.0108   0.6774   0.1168     C
C       0.0117   0.1661   0.3616     C
C       0.0119   0.2412   0.0757     C
H       0.0121   0.2768   0.4153     H
H       0.0123   0.6893   0.6302     H
O       0.0127   0.7813   0.6788     O
H       0.0138   0.8139   0.0359     H
C       0.0146   0.1477   0.8779     C
H       0.0147   0.0526   0.8651     H
C       0.0159   0.1341   0.3084     C
H       0.0186   0.2998   0.6968     H
H        0.019   0.6513   0.7929     H
C       0.0217   0.6187   0.7966     C
C       0.0219   0.3003    0.025     C
H       0.0221   0.4862   0.8001     H
H        0.024   0.3829   0.3873     H
C       0.0242   0.1975   0.0857     C
C        0.025   0.5219   0.8003     C
H       0.0259   0.4466   0.1359     H
C        0.026    0.082    0.208     C
H       0.0283   0.0658   0.1727     H
O       0.0283   0.8644   0.6435     O
H       0.0291   0.9568   0.4953     H
O       0.0292    0.919   0.5954     O
C         0.03   0.6047   0.2327     C
C       0.0321   0.7846   0.1191     C
C       0.0337   0.6358   0.2889     C
H       0.0338   0.4615   0.5047     H
C       0.0354   0.6864    0.924     C
H       0.0359   0.5138   0.3139     H
H       0.0366   0.1837   0.8763     H
H       0.0375   0.6444   0.9717     H
H       0.0379   0.3504   0.9853     H
H       0.0383   0.6819   0.5944     H
H       0.0385   0.5432   0.0723     H
O       0.0387   0.6926   0.3949     O
H       0.0387   0.8218   0.1211     H
C       0.0414    0.589    0.767     C
C       0.0414   0.9137   0.6419     C
H       0.0431   0.1482   0.9121     H
H       0.0432   0.5723   0.0385     H
H       0.0436   0.8142   0.7082     H
C       0.0441   0.2703   0.0516     C
C       0.0476   0.9586   0.2256     C
H       0.0494   0.6001   0.7399     H
C       0.0498    0.997   0.3272     C
H       0.0507   0.9506   0.1905     H
C       0.0516   0.5441   0.7703     C
H       0.0526   0.0147   0.3651     H
C       0.0528   0.3302    0.003     C
H       0.0534   0.1893   0.0793     H
N       0.0535   0.7315   0.1704     N
O       0.0555   0.3303   0.5642     O
C        0.056    0.682    0.974     C
H       0.0561   0.6436   0.4617     H
H       0.0591   0.8821   0.8698     H
O       0.0601   0.2034   0.4119     O
C       0.0606   0.3832    0.394     C
N       0.0611   0.3296   0.3831     N
C       0.0615   0.4758   0.1733     C
O        0.063    0.563    0.063     O
C       0.0638   0.4881   0.2293     C
C       0.0642   0.7838   0.1686     C
O       0.0642   0.8303   0.5555     O
H       0.0658   0.0283   0.6727     H
O       0.0662   0.8898   0.4708     O
C       0.0675   0.1425   0.3134     C
H       0.0679   0.7496   0.8977     H
H       0.0709   0.6683   0.3228     H
H       0.0723   0.5385   0.0432     H
C       0.0747     0.97   0.7027     C
C        0.075   0.7459   0.9325     C
C       0.0757   0.5119   0.7412     C
C        0.076   0.1114   0.2624     C
Tb    0.079039 0.762342 0.491467    Tb
H       0.0793   0.5534   0.6893     H
O        0.081   0.6102   0.1764     O
C        0.082    0.026    0.708     C
H       0.0824   0.4613   0.7831     H
H       0.0847   0.3615   0.5968     H
C       0.0857   0.5242   0.6975     C
C       0.0863   0.6277   0.2282     C
C        0.087   0.4679   0.7525     C
H       0.0875   0.9439   0.9056     H
Tb    0.087572 0.270875 0.508533    Tb
O       0.0877   0.6756   0.4911     O
H       0.0879    0.131   0.7361     H
O       0.0879   0.9123   0.9034     O
O       0.0881   0.2915   0.6482     O
C        0.089    0.267   0.0414     C
H       0.0944   0.1819   0.5383     H
O       0.0954    0.419   0.5292     O
H       0.0955   0.8209   0.2036     H
N       0.0959   0.9936   0.3243     N
O       0.0966   0.1845   0.5089     O
H       0.0968   0.8615   0.5847     H
C        0.097   0.9783   0.2749     C
H       0.0974   0.9291   0.7519     H
H       0.1001   0.2399   0.0494     H
C       0.1005   0.8723   0.4586     C
C       0.1021   0.9663   0.7552     C
H       0.1023   0.1702   0.3519     H
N       0.1023   0.3307   0.0064     N
O       0.1025   0.8339   0.8212     O
H        0.103   0.8032   0.8218     H
C       0.1044   0.4358   0.7196     C
C       0.1047   0.7327     0.03     C
H       0.1051    0.369   0.9569     H
O       0.1051   0.7977   0.6438     O
C        0.106   0.4892   0.6666     C
H        0.106   0.8354   0.7918     H
H       0.1069   0.9625   0.4342     H
H       0.1081   0.4045   0.7254     H
H         0.11   0.4741   0.4207     H
O       0.1102   0.6764    0.081     O
C       0.1114    0.076   0.7624     C
C       0.1118   0.4385   0.4143     C
H       0.1127   0.4956   0.6367     H
C       0.1152   0.3314   0.3956     C
O       0.1152   0.8361   0.4717     O
C       0.1168   0.5108   0.1774     C
N       0.1169   0.4465    0.678     N
H       0.1171   0.5044   0.1411     H
H       0.1173   0.2964   0.3919     H
H       0.1179    0.677   0.4877     H
C       0.1182   0.7925   0.9841     C
C       0.1187   0.2966   0.0217     C
C       0.1191   0.5321   0.2846     C
H       0.1211   0.5387   0.3218     H
C       0.1221   0.1367   0.7698     C
H       0.1237   0.1603   0.8074     H
C        0.126    0.944    0.418     C
C       0.1277   0.7282   0.0863     C
C        0.128   0.8953   0.4253     C
H       0.1302   0.1893   0.5123     H
H        0.131   0.0879   0.2361     H
H       0.1323    0.981   0.2739     H
C       0.1331   0.3633   0.9854     C
C       0.1341   0.0159   0.8084     C
H       0.1349   0.1496   0.6875     H
O       0.1356   0.6639   0.2791     O
C       0.1358   0.7889   0.0337     C
H       0.1359   0.5259   0.9466     H
C       0.1367   0.1221   0.2698     C
H       0.1367   0.9956   0.6127     H
C       0.1384   0.3045   0.6501     C
H       0.1385   0.7353   0.2232     H
H       0.1398   0.4493   0.8999     H
H       0.1411   0.6171   0.0044     H
H       0.1416   0.3677   0.8487     H
C       0.1419   0.4137   0.5414     C
C       0.1425   0.0675   0.8134     C
O       0.1433   0.8518   0.9399     O
O       0.1435   0.3644   0.5283     O
H       0.1436   0.9617   0.0561     H
O       0.1438   0.2977   0.6051     O
H       0.1444   0.4717   0.0375     H
H       0.1471   0.3397   0.9634     H
C       0.1477   0.0146   0.3779     C
H       0.1481   0.3183   0.7504     H
Tb     0.14812  0.64812  0.14812    Tb
H       0.1482   0.0431   0.4121     H
O       0.1482   0.7915   0.5881     O
H       0.1496   0.1349   0.1875     H
C       0.1501   0.8045   0.6384     C
C        0.151   0.9646   0.3886     C
H       0.1513   0.2929    0.019     H
C       0.1531   0.8642   0.3979     C
O       0.1539   0.9613   0.8562     O
C       0.1544   0.8499   0.9883     C
H       0.1545   0.8317   0.4026     H
H       0.1603   0.1237   0.3074     H
O       0.1639   0.7791   0.1356     O
H       0.1646   0.7706   0.4564     H
C       0.1655   0.3809    0.413     C
C       0.1655   0.4362   0.4243     C
C       0.1661   0.0117   0.8616     C
O       0.1661   0.7686   0.4873     O
C       0.1666   0.9892    0.606     C
H       0.1683   0.8228   0.0709     H
C       0.1686   0.5642   0.2838     C
N       0.1693   0.1757   0.2716     N
O       0.1697   0.7339   0.2252     O
C       0.1698   0.1728   0.2226     C
H       0.1702   0.1023   0.8519     H
N       0.1704   0.5535   0.2315     N
H       0.1708      1.0      1.0     H
C       0.1709    0.925   0.3575     C
H       0.1727   0.5283   0.5658     H
C       0.1728   0.1698   0.7226     C
C       0.1733   0.5615   0.9758     C
C       0.1743   0.8818   0.3659     C
O       0.1756   0.9911   0.0877     O
N       0.1757   0.1693   0.7716     N
O       0.1764    0.581   0.1102     O
H        0.177   0.9877   0.1179     H
H       0.1772   0.8455   0.7481     H
C       0.1774   0.6168   0.0108     C
C       0.1779    0.403   0.8813     C
C        0.178   0.4524    0.911     C
N        0.178   0.9465   0.6169     N
H       0.1782   0.2812   0.4814     H
H       0.1782   0.7169   0.7993     H
O       0.1788   0.2813   0.5127     O
H       0.1791   0.7746   0.8827     H
H       0.1817   0.9321   0.3298     H
H       0.1819   0.0944   0.0383     H
C        0.182    0.474    0.056     C
Tb    0.183303 0.920961 0.912428    Tb
H       0.1837   0.0366   0.3763     H
O       0.1845   0.0966   0.0089     O
H       0.1858   0.7294    0.394     H
H       0.1861   0.6999    0.722     H
C       0.1864    0.424   0.0354     C
C       0.1866   0.3291   0.7541     C
H       0.1875   0.6496   0.6349     H
H       0.1893   0.0534   0.5793     H
H       0.1893   0.1302   0.0123     H
H       0.1905   0.5507   0.4506     H
C       0.1916   0.3257   0.7075     C
H       0.1926   0.3163   0.8529     H
O       0.1926   0.8949   0.0387     O
C       0.1955   0.8456   0.3339     C
H       0.1968   0.7998   0.5186     H
C       0.1975   0.0242   0.5857     C
C       0.1997   0.2247   0.2216     C
H       0.1999    0.222   0.1861     H
H       0.2002    0.897   0.2188     H
H       0.2007   0.3789   0.4176     H
O       0.2023   0.8074   0.3461     O
C       0.2027     0.47   0.5747     C
O       0.2034   0.0601   0.9119     O
C       0.2034   0.2251   0.3221     C
H       0.2036   0.5955   0.3209     H
H       0.2071   0.2261   0.3584     H
O       0.2074      1.0      1.0     O
C       0.2075   0.8257   0.6916     C
C        0.208    0.526    0.582     C
H       0.2082   0.3142   0.5436     H
O       0.2085   0.8567   0.2966     O
C       0.2111   0.8469   0.7448     C
C       0.2154   0.7475   0.8345     C
C       0.2162   0.7804   0.8848     C
H       0.2169   0.2993   0.1782     H
C       0.2187   0.4925   0.4484     C
O       0.2187   0.7314   0.3975     O
H       0.2188   0.7002    0.397     H
C       0.2196   0.9358   0.6044     C
O       0.2209   0.8848   0.8565     O
C       0.2216   0.6997   0.7247     C
H        0.222   0.1999   0.6861     H
C       0.2226   0.6698   0.6728     C
H       0.2232   0.6385   0.2353     H
C       0.2247   0.1997   0.7216     C
C       0.2251   0.2034   0.8221     C
O       0.2252   0.6697   0.2339     O
H       0.2254   0.9045   0.6081     H
C       0.2256   0.5476   0.4586     C
H       0.2261   0.2071   0.8584     H
C       0.2262   0.5075   0.9559     C
C       0.2282   0.5863   0.1277     C
N       0.2284   0.4041   0.8977     N
Tb    0.229125 0.737658 0.316697    Tb
C       0.2293   0.5638   0.9881     C
H       0.2294    0.894   0.1858     H
C       0.2297   0.2813   0.2738     C
C       0.2302   0.3523   0.8669     C
O       0.2314   0.8975   0.2187     O
N       0.2315   0.6704   0.0535     N
C       0.2327     0.53   0.1047     C
C        0.233   0.2744    0.322     C
O       0.2339   0.7252   0.1697     O
H       0.2353   0.7232   0.1385     H
H       0.2361    0.631   0.5879     H
C       0.2376    0.349   0.8136     C
Tb    0.237658 0.816697 0.229125    Tb
H       0.2399   0.1001   0.5494     H
C       0.2412   0.0119   0.5757     C
C       0.2448   0.3469   0.7111     C
C       0.2459   0.4325    0.075     C
C       0.2475   0.3345   0.2154     C
H       0.2481   0.3455   0.6772     H
H       0.2496   0.3977   0.0679     H
H       0.2504   0.8183   0.6481     H
H       0.2519   0.4291   0.5974     H
C       0.2525   0.9679    0.587     C
C       0.2541   0.8291   0.6866     C
C       0.2552   0.4663   0.6021     C
C       0.2588   0.3345   0.2707     C
H       0.2601   0.3095   0.3602     H
Tb    0.262342 0.991467 0.079039    Tb
C       0.2624    0.576   0.6114     C
H       0.2639   0.3518   0.8949     H
H       0.2647   0.9032   0.9879     H
O       0.2661   0.9358   0.9913     O
C        0.267    0.089   0.5414     C
C       0.2673    0.872   0.7973     C
N       0.2685    0.822   0.9389     N
O       0.2686   0.9873   0.1661     O
C       0.2698   0.6367   0.6221     C
C       0.2703   0.0441   0.5516     C
H       0.2706   0.9564   0.1646     H
C       0.2707   0.7588   0.8345     C
Tb    0.270875 0.087572 0.008533    Tb
N       0.2716   0.6693   0.6757     N
C       0.2718   0.8995   0.8581     C
C       0.2738   0.7297   0.7813     C
H       0.2739   0.6323    0.481     H
C       0.2744    0.233    0.822     C
H       0.2746   0.3827   0.1791     H
O       0.2748   0.0087   0.9445     O
C       0.2749    0.597   0.4783     C
C       0.2753   0.4969    0.475     C
H       0.2768   0.0121   0.9153     H
C       0.2774   0.4502   0.9472     C
H        0.278   0.4641   0.4779     H
C       0.2784   0.5031   0.9781     C
O       0.2791   0.6356   0.1639     O
C       0.2804   0.3848   0.2162     C
H       0.2812   0.1782   0.9814     H
O       0.2813   0.1788   0.0127     O
C       0.2813   0.2297   0.7738     C
H       0.2831   0.9613   0.5824     H
C       0.2838   0.6686   0.0642     C
C       0.2846   0.6191   0.0321     C
C       0.2889   0.5337   0.1358     C
O       0.2915   0.0881   0.1482     O
H       0.2918   0.3354    0.606     H
C        0.292    0.374    0.818     C
C       0.2925   0.4841   0.1182     C
O       0.2926   0.7926   0.2926     O
H       0.2929   0.1513    0.519     H
H       0.2964   0.1173   0.8919     H
C       0.2966   0.1187   0.5217     C
O       0.2966   0.7085   0.3567     O
C       0.2973    0.372   0.7673     C
O       0.2977   0.1438   0.1051     O
H       0.2993   0.2169   0.6782     H
H       0.2998   0.0186   0.1968     H
H       0.3001   0.9862   0.5221     H
C       0.3003   0.0219    0.525     C
C       0.3025   0.3882   0.3267     C
H       0.3032   0.3218    0.103     H
C       0.3045   0.1384   0.1501     C
H       0.3074   0.6603   0.6237     H
O       0.3074   0.8461   0.2023     O
C       0.3084   0.5159   0.6341     C
H       0.3095   0.2601   0.8602     H
H       0.3107     0.39   0.3641     H
H       0.3107    0.823   0.4409     H
H       0.3125   0.4474   0.9621     H
C       0.3134   0.5675   0.6425     C
C       0.3136    0.849   0.7376     C
H       0.3139   0.5359   0.0138     H
H       0.3142   0.2082   0.0436     H
O       0.3155   0.8244   0.4121     O
H       0.3163   0.1926   0.3529     H
Tb    0.316697 0.729125 0.237658    Tb
C        0.318    0.874    0.792     C
H       0.3181   0.8564   0.4125     H
H       0.3183   0.1481   0.2504     H
H       0.3209   0.7036   0.0955     H
O       0.3212   0.3339   0.6025     O
H       0.3218   0.3032    0.603     H
H       0.3218   0.6211   0.0387     H
N        0.322   0.4389   0.2685     N
C        0.322    0.733   0.7744     C
C       0.3221   0.7034   0.7251     C
C       0.3226   0.8334   0.9394     C
H       0.3228   0.5709   0.1683     H
H        0.323   0.9409   0.3107     H
O       0.3236   0.9338   0.9046     O
N       0.3243   0.5959   0.4936     N
O       0.3244   0.9121   0.3155     O
C       0.3257   0.1916   0.2075     C
C       0.3267   0.8025   0.8882     C
C       0.3272   0.5498    0.497     C
H       0.3273   0.3931   0.8556     H
C       0.3291   0.1866   0.2541     C
H       0.3292   0.8292   0.3292     H
N       0.3296   0.0611   0.8831     N
H       0.3298   0.6817   0.4321     H
C       0.3302   0.0528    0.503     C
O       0.3303   0.0555   0.0642     O
N       0.3307   0.1023   0.5064     N
C       0.3314   0.1152   0.8956     C
H       0.3317   0.9026   0.1545     H
C       0.3334   0.4394   0.3226     C
O       0.3339   0.3212   0.1025     O
C       0.3339   0.6955   0.3456     C
C       0.3345   0.2475   0.7154     C
C       0.3345   0.2588   0.7707     C
H       0.3354   0.2918    0.106     H
O       0.3361   0.9717   0.1152     O
H       0.3397   0.1471   0.4634     H
H       0.3455   0.2481   0.1772     H
C       0.3456   0.8339   0.1955     C
O       0.3461   0.7023   0.3074     O
C       0.3469   0.2448   0.2111     C
H       0.3487   0.8677   0.6416     H
C        0.349   0.2376   0.3136     C
C       0.3499   0.4883   0.1544     C
H       0.3504   0.0379   0.4853     H
H       0.3518   0.2639   0.3949     H
O       0.3518   0.4399   0.1433     O
Tb     0.35188      1.0      1.0    Tb
H       0.3519   0.6023   0.6702     H
C       0.3523   0.2302   0.3669     C
H       0.3529   0.8163   0.6926     H
H       0.3556   0.8931   0.8273     H
O       0.3562   0.4613   0.6539     O
H       0.3564   0.9125   0.3181     H
O       0.3565   0.3848   0.7209     O
O       0.3567   0.7966   0.2085     O
C       0.3575   0.6709    0.425     C
C       0.3581   0.3995   0.7718     C
H       0.3584   0.7071   0.7261     H
H       0.3589   0.8633    0.976     H
H       0.3602   0.7601   0.8095     H
H       0.3615   0.0847   0.0968     H
C       0.3616   0.5117   0.6661     C
C       0.3633   0.1331   0.4854     C
H       0.3633    0.476   0.3589     H
H       0.3641   0.8107     0.89     H
C       0.3642   0.8979   0.1531     C
O       0.3644   0.1435   0.0283     O
H       0.3651   0.5526   0.5147     H
C       0.3659   0.6743   0.3818     C
C       0.3669   0.8523   0.7302     C
H       0.3677   0.1416   0.3487     H
H        0.369   0.1051   0.4569     H
H       0.3698   0.3821   0.5591     H
C        0.372   0.2973   0.2673     C
C       0.3723   0.9586   0.1005     C
C        0.374    0.292    0.318     C
H       0.3763   0.6837   0.5366     H
C       0.3779   0.6477   0.5146     C
H       0.3789   0.2007   0.9176     H
C       0.3809   0.1655    0.913     C
C       0.3813    0.903   0.6779     C
C       0.3818   0.8659   0.1743     C
H       0.3821   0.3698   0.0591     H
H       0.3827   0.2746   0.6791     H
H       0.3829    0.024   0.8873     H
N       0.3831   0.5611   0.8296     N
C       0.3832   0.0606    0.894     C
C       0.3848   0.2804   0.7162     C
O       0.3848   0.3565   0.2209     O
H       0.3873    0.524   0.8829     H
C       0.3882   0.3025   0.8267     C
C       0.3886    0.651   0.4646     C
O       0.3898   0.9708   0.0662     O
H         0.39   0.3107   0.8641     H
H       0.3919   0.6173   0.7964     H
H       0.3931   0.3273   0.3556     H
C        0.394   0.5606   0.8832     C
H        0.394   0.6858   0.2294     H
O       0.3949   0.5387   0.1926     O
H       0.3949   0.8518   0.7639     H
C       0.3953   0.9253    0.128     C
C       0.3956   0.6152   0.8314     C
H        0.397   0.7188   0.2002     H
O       0.3975   0.7187   0.2314     O
H       0.3977   0.2496   0.5679     H
N       0.3977   0.9041   0.7284     N
C       0.3979   0.6531   0.3642     C
C       0.3995   0.3581   0.2718     C
H       0.3999   0.9493   0.6398     H
H       0.4026   0.6545   0.3317     H
C        0.403   0.1779   0.3813     C
H       0.4032   0.4879   0.2647     H
O       0.4034   0.4123   0.5879     O
N       0.4041   0.2284   0.3977     N
H       0.4045   0.1081   0.2254     H
O       0.4046   0.4338   0.8236     O
H       0.4056   0.4439   0.5875     H
C        0.411   0.9524    0.678     C
O       0.4119   0.5601   0.7034     O
H       0.4121   0.6482   0.5431     H
O       0.4121   0.8155   0.3244     O
O       0.4123   0.4034   0.0879     O
Tb    0.412428 0.420961 0.683303    Tb
H       0.4125   0.8181   0.3564     H
C        0.413   0.6655   0.8809     C
C       0.4137   0.1419   0.0414     C
C       0.4143   0.6118   0.9385     C
H       0.4153   0.5121   0.7768     H
H       0.4176   0.7007   0.8789     H
C        0.418    0.626    0.444     C
O        0.419   0.0954   0.0292     O
H       0.4207     0.61   0.9741     H
Tb    0.420961 0.412428 0.183303    Tb
C        0.424   0.1864   0.5354     C
C       0.4243   0.6655   0.9362     C
C        0.425   0.8575   0.1709     C
C       0.4253    0.628   0.3953     C
H       0.4277   0.9709   0.9662     H
H       0.4291   0.2519   0.0974     H
H       0.4321   0.8298   0.1817     H
C       0.4325   0.2459    0.575     C
O       0.4338   0.4046   0.3236     O
H       0.4342   0.6069   0.4625     H
C       0.4358   0.1044   0.2196     C
O       0.4358   0.4913   0.2661     O
C       0.4362   0.1655   0.9243     C
O        0.437      1.0      1.0     O
C       0.4385   0.1118   0.9143     C
N       0.4389    0.322   0.7685     N
C       0.4394   0.3334   0.8226     C
O       0.4399   0.3518   0.6433     O
H       0.4409   0.8107    0.323     H
H       0.4439   0.4056   0.0875     H
C        0.444    0.918    0.126     C
O       0.4445   0.5087   0.7748     O
N       0.4465   0.1169    0.178     N
H       0.4466   0.0259   0.6359     H
C       0.4472   0.9502   0.7774     C
H       0.4474   0.3125   0.4621     H
C       0.4484   0.7187   0.9925     C
H       0.4493   0.1398   0.3999     H
C       0.4502   0.2774   0.4472     C
H       0.4506   0.6905   0.0507     H
C       0.4524    0.178    0.411     C
C       0.4559   0.0075   0.7262     C
H       0.4564   0.6646   0.2706     H
H       0.4568   0.9953   0.0291     H
H       0.4569    0.869   0.6051     H
C       0.4586   0.6005   0.3723     C
C       0.4586   0.7256   0.0476     C
H       0.4613   0.0824   0.2831     H
O       0.4613   0.3562   0.1539     O
H       0.4615   0.0338   0.0047     H
H       0.4617   0.5561   0.1436     H
H       0.4621   0.9474   0.8125     H
H       0.4625   0.9342   0.1069     H
H       0.4634   0.8397   0.6471     H
H       0.4641    0.278   0.9779     H
C       0.4646   0.8886    0.151     C
H       0.4662   0.4709   0.9277     H
C       0.4663   0.2552   0.1021     C
C       0.4679    0.087   0.2525     C
C         0.47   0.2027   0.0747     C
O       0.4708   0.5662   0.3898     O
H       0.4709   0.4662   0.4277     H
H       0.4717   0.1444   0.5375     H
O       0.4717   0.6152   0.3361     O
C        0.474    0.182    0.556     C
H       0.4741     0.11   0.9207     H
C        0.475   0.7753   0.9969     C
C       0.4758   0.0615   0.6733     C
H        0.476   0.3633   0.8589     H
H       0.4779    0.778   0.9641     H
C       0.4781   0.0031   0.7784     C
C       0.4783   0.7749    0.097     C
H        0.481   0.7739   0.1323     H
H       0.4814   0.6782   0.7812     H
C       0.4841   0.2925   0.6182     C
H       0.4853   0.8504   0.5379     H
C       0.4854   0.8633   0.6331     C
H       0.4862   0.0221   0.3001     H
O       0.4873   0.6661   0.2686     O
H       0.4877   0.6179    0.177     H
H       0.4879   0.4032   0.7647     H
C       0.4881   0.0638   0.7293     C
C       0.4883   0.3499   0.6544     C
C       0.4892    0.106   0.1666     C
O       0.4911   0.5877   0.1756     O
O       0.4913   0.4358   0.7661     O
Tb    0.491467 0.579039 0.262342    Tb
C       0.4925   0.2187   0.9484     C
N       0.4936   0.8243   0.0959     N
H       0.4953   0.5291   0.4568     H
H       0.4956   0.1127   0.1367     H
C       0.4969   0.2753    0.975     C
C        0.497   0.8272   0.0498     C
H          0.5      0.5   0.1708     H
O          0.5      0.5   0.2074     O
Tb         0.5      0.5  0.35188    Tb
O          0.5      0.5    0.437     O
H          0.5      0.5   0.6708     H
O          0.5      0.5   0.7074     O
Tb         0.5      0.5  0.85188    Tb
O          0.5      0.5    0.937     O
C        0.503   0.8302   0.5528     C
C       0.5031   0.2784   0.4781     C
H       0.5044   0.1171   0.6411     H
H       0.5047   0.5338   0.9615     H
N       0.5064   0.8307   0.6023     N
C       0.5075   0.2262   0.4559     C
Tb    0.508533 0.587572 0.770875    Tb
O       0.5087   0.4445   0.2748     O
O       0.5089   0.5966   0.6845     O
C       0.5108   0.1168   0.6774     C
C       0.5117   0.3616   0.1661     C
C       0.5119   0.0757   0.2412     C
H       0.5121   0.4153   0.2768     H
H       0.5123   0.6302   0.6893     H
O       0.5127   0.6788   0.7813     O
H       0.5138   0.0359   0.8139     H
C       0.5146   0.8779   0.1477     C
H       0.5147   0.8651   0.0526     H
C       0.5159   0.3084   0.1341     C
H       0.5186   0.6968   0.2998     H
H        0.519   0.7929   0.6513     H
C       0.5217   0.7966   0.6187     C
C       0.5219    0.025   0.3003     C
H       0.5221   0.8001   0.4862     H
H        0.524   0.3873   0.3829     H
C       0.5242   0.0857   0.1975     C
C        0.525   0.8003   0.5219     C
H       0.5259   0.1359   0.4466     H
C        0.526    0.208    0.082     C
H       0.5283   0.1727   0.0658     H
O       0.5283   0.6435   0.8644     O
H       0.5291   0.4953   0.9568     H
O       0.5292   0.5954    0.919     O
C         0.53   0.2327   0.6047     C
C       0.5321   0.1191   0.7846     C
C       0.5337   0.2889   0.6358     C
H       0.5338   0.5047   0.4615     H
C       0.5354    0.924   0.6864     C
H       0.5359   0.3139   0.5138     H
H       0.5366   0.8763   0.1837     H
H       0.5375   0.9717   0.6444     H
H       0.5379   0.9853   0.3504     H
H       0.5383   0.5944   0.6819     H
H       0.5385   0.0723   0.5432     H
H       0.5387   0.1211   0.8218     H
O       0.5387   0.3949   0.6926     O
C       0.5414   0.6419   0.9137     C
C       0.5414    0.767    0.589     C
H       0.5431   0.9121   0.1482     H
H       0.5432   0.0385   0.5723     H
H       0.5436   0.7082   0.8142     H
C       0.5441   0.0516   0.2703     C
C       0.5476   0.2256   0.9586     C
H       0.5494   0.7399   0.6001     H
C       0.5498   0.3272    0.997     C
H       0.5507   0.1905   0.9506     H
C       0.5516   0.7703   0.5441     C
H       0.5526   0.3651   0.0147     H
C       0.5528    0.003   0.3302     C
H       0.5534   0.0793   0.1893     H
N       0.5535   0.1704   0.7315     N
O       0.5555   0.5642   0.3303     O
C        0.556    0.974    0.682     C
H       0.5561   0.4617   0.6436     H
H       0.5591   0.8698   0.8821     H
O       0.5601   0.4119   0.2034     O
C       0.5606    0.394   0.3832     C
N       0.5611   0.3831   0.3296     N
C       0.5615   0.1733   0.4758     C
O        0.563    0.063    0.563     O
C       0.5638   0.2293   0.4881     C
C       0.5642   0.1686   0.7838     C
O       0.5642   0.5555   0.8303     O
H       0.5658   0.6727   0.0283     H
O       0.5662   0.4708   0.8898     O
C       0.5675   0.3134   0.1425     C
H       0.5679   0.8977   0.7496     H
H       0.5709   0.3228   0.6683     H
H       0.5723   0.0432   0.5385     H
C       0.5747   0.7027     0.97     C
C        0.575   0.9325   0.7459     C
C       0.5757   0.7412   0.5119     C
C        0.576   0.2624   0.1114     C
Tb    0.579039 0.491467 0.762342    Tb
H       0.5793   0.6893   0.5534     H
O        0.581   0.1764   0.6102     O
C        0.582    0.708    0.026     C
H       0.5824   0.7831   0.4613     H
H       0.5847   0.5968   0.3615     H
C       0.5857   0.6975   0.5242     C
C       0.5863   0.2282   0.6277     C
C        0.587   0.7525   0.4679     C
H       0.5875   0.9056   0.9439     H
Tb    0.587572 0.508533 0.270875    Tb
O       0.5877   0.4911   0.6756     O
H       0.5879   0.7361    0.131     H
O       0.5879   0.9034   0.9123     O
O       0.5881   0.6482   0.2915     O
C        0.589   0.0414    0.267     C
H       0.5944   0.5383   0.1819     H
O       0.5954   0.5292    0.419     O
H       0.5955   0.2036   0.8209     H
N       0.5959   0.3243   0.9936     N
O       0.5966   0.5089   0.1845     O
H       0.5968   0.5847   0.8615     H
C        0.597   0.2749   0.9783     C
H       0.5974   0.7519   0.9291     H
H       0.6001   0.0494   0.2399     H
C       0.6005   0.4586   0.8723     C
C       0.6021   0.7552   0.9663     C
N       0.6023   0.0064   0.3307     N
H       0.6023   0.3519   0.1702     H
O       0.6025   0.8212   0.8339     O
H        0.603   0.8218   0.8032     H
C       0.6044   0.7196   0.4358     C
C       0.6047     0.03   0.7327     C
O       0.6051   0.6438   0.7977     O
H       0.6051   0.9569    0.369     H
C        0.606   0.6666   0.4892     C
H        0.606   0.7918   0.8354     H
H       0.6069   0.4342   0.9625     H
H       0.6081   0.7254   0.4045     H
H         0.61   0.4207   0.4741     H
O       0.6102    0.081   0.6764     O
C       0.6114   0.7624    0.076     C
C       0.6118   0.4143   0.4385     C
H       0.6127   0.6367   0.4956     H
C       0.6152   0.3956   0.3314     C
O       0.6152   0.4717   0.8361     O
C       0.6168   0.1774   0.5108     C
N       0.6169    0.678   0.4465     N
H       0.6171   0.1411   0.5044     H
H       0.6173   0.3919   0.2964     H
H       0.6179   0.4877    0.677     H
C       0.6182   0.9841   0.7925     C
C       0.6187   0.0217   0.2966     C
C       0.6191   0.2846   0.5321     C
H       0.6211   0.3218   0.5387     H
C       0.6221   0.7698   0.1367     C
H       0.6237   0.8074   0.1603     H
C        0.626    0.418    0.944     C
C       0.6277   0.0863   0.7282     C
C        0.628   0.4253   0.8953     C
H       0.6302   0.5123   0.1893     H
H        0.631   0.2361   0.0879     H
H       0.6323   0.2739    0.981     H
C       0.6331   0.9854   0.3633     C
C       0.6341   0.8084   0.0159     C
H       0.6349   0.6875   0.1496     H
O       0.6356   0.2791   0.6639     O
C       0.6358   0.0337   0.7889     C
H       0.6359   0.9466   0.5259     H
C       0.6367   0.2698   0.1221     C
H       0.6367   0.6127   0.9956     H
C       0.6384   0.6501   0.3045     C
H       0.6385   0.2232   0.7353     H
H       0.6398   0.8999   0.4493     H
H       0.6411   0.0044   0.6171     H
H       0.6416   0.8487   0.3677     H
C       0.6419   0.5414   0.4137     C
C       0.6425   0.8134   0.0675     C
O       0.6433   0.9399   0.8518     O
O       0.6435   0.5283   0.3644     O
H       0.6436   0.0561   0.9617     H
O       0.6438   0.6051   0.2977     O
H       0.6444   0.0375   0.4717     H
H       0.6471   0.9634   0.3397     H
C       0.6477   0.3779   0.0146     C
H       0.6481   0.7504   0.3183     H
Tb     0.64812  0.14812  0.64812    Tb
H       0.6482   0.4121   0.0431     H
O       0.6482   0.5881   0.7915     O
H       0.6496   0.1875   0.1349     H
C       0.6501   0.6384   0.8045     C
C        0.651   0.3886   0.9646     C
H       0.6513    0.019   0.2929     H
C       0.6531   0.3979   0.8642     C
O       0.6539   0.8562   0.9613     O
C       0.6544   0.9883   0.8499     C
H       0.6545   0.4026   0.8317     H
H       0.6603   0.3074   0.1237     H
O       0.6639   0.1356   0.7791     O
H       0.6646   0.4564   0.7706     H
C       0.6655    0.413   0.3809     C
C       0.6655   0.4243   0.4362     C
O       0.6661   0.4873   0.7686     O
C       0.6661   0.8616   0.0117     C
C       0.6666    0.606   0.9892     C
H       0.6683   0.0709   0.8228     H
C       0.6686   0.2838   0.5642     C
N       0.6693   0.2716   0.1757     N
O       0.6697   0.2252   0.7339     O
C       0.6698   0.2226   0.1728     C
H       0.6702   0.8519   0.1023     H
N       0.6704   0.2315   0.5535     N
H       0.6708      1.0      1.0     H
C       0.6709   0.3575    0.925     C
H       0.6727   0.5658   0.5283     H
C       0.6728   0.7226   0.1698     C
C       0.6733   0.9758   0.5615     C
C       0.6743   0.3659   0.8818     C
O       0.6756   0.0877   0.9911     O
N       0.6757   0.7716   0.1693     N
O       0.6764   0.1102    0.581     O
H        0.677   0.1179   0.9877     H
H       0.6772   0.7481   0.8455     H
C       0.6774   0.0108   0.6168     C
C       0.6779   0.8813    0.403     C
N        0.678   0.6169   0.9465     N
C        0.678    0.911   0.4524     C
H       0.6782   0.4814   0.2812     H
H       0.6782   0.7993   0.7169     H
O       0.6788   0.5127   0.2813     O
H       0.6791   0.8827   0.7746     H
H       0.6817   0.3298   0.9321     H
H       0.6819   0.0383   0.0944     H
C        0.682    0.056    0.474     C
Tb    0.683303 0.912428 0.920961    Tb
H       0.6837   0.3763   0.0366     H
O       0.6845   0.0089   0.0966     O
H       0.6858    0.394   0.7294     H
H       0.6861    0.722   0.6999     H
C       0.6864   0.0354    0.424     C
C       0.6866   0.7541   0.3291     C
H       0.6875   0.6349   0.6496     H
H       0.6893   0.0123   0.1302     H
H       0.6893   0.5793   0.0534     H
H       0.6905   0.4506   0.5507     H
C       0.6916   0.7075   0.3257     C
O       0.6926   0.0387   0.8949     O
H       0.6926   0.8529   0.3163     H
C       0.6955   0.3339   0.8456     C
H       0.6968   0.5186   0.7998     H
C       0.6975   0.5857   0.0242     C
C       0.6997   0.2216   0.2247     C
H       0.6999   0.1861    0.222     H
H       0.7002   0.2188    0.897     H
H       0.7007   0.4176   0.3789     H
O       0.7023   0.3461   0.8074     O
C       0.7027   0.5747     0.47     C
C       0.7034   0.3221   0.2251     C
O       0.7034   0.9119   0.0601     O
H       0.7036   0.3209   0.5955     H
H       0.7071   0.3584   0.2261     H
O       0.7074      1.0      1.0     O
C       0.7075   0.6916   0.8257     C
C        0.708    0.582    0.526     C
H       0.7082   0.5436   0.3142     H
O       0.7085   0.2966   0.8567     O
C       0.7111   0.7448   0.8469     C
C       0.7154   0.8345   0.7475     C
C       0.7162   0.8848   0.7804     C
H       0.7169   0.1782   0.2993     H
O       0.7187   0.3975   0.7314     O
C       0.7187   0.4484   0.4925     C
H       0.7188    0.397   0.7002     H
C       0.7196   0.6044   0.9358     C
O       0.7209   0.8565   0.8848     O
C       0.7216   0.7247   0.6997     C
H        0.722   0.6861   0.1999     H
C       0.7226   0.6728   0.6698     C
H       0.7232   0.2353   0.6385     H
C       0.7247   0.7216   0.1997     C
C       0.7251   0.8221   0.2034     C
O       0.7252   0.2339   0.6697     O
H       0.7254   0.6081   0.9045     H
C       0.7256   0.4586   0.5476     C
H       0.7261   0.8584   0.2071     H
C       0.7262   0.9559   0.5075     C
C       0.7282   0.1277   0.5863     C
N       0.7284   0.8977   0.4041     N
Tb    0.729125 0.316697 0.737658    Tb
C       0.7293   0.9881   0.5638     C
H       0.7294   0.1858    0.894     H
C       0.7297   0.2738   0.2813     C
C       0.7302   0.8669   0.3523     C
O       0.7314   0.2187   0.8975     O
N       0.7315   0.0535   0.6704     N
C       0.7327   0.1047     0.53     C
C        0.733    0.322   0.2744     C
O       0.7339   0.1697   0.7252     O
H       0.7353   0.1385   0.7232     H
H       0.7361   0.5879    0.631     H
C       0.7376   0.8136    0.349     C
Tb    0.737658 0.229125 0.816697    Tb
H       0.7399   0.5494   0.1001     H
C       0.7412   0.5757   0.0119     C
C       0.7448   0.7111   0.3469     C
C       0.7459    0.075   0.4325     C
C       0.7475   0.2154   0.3345     C
H       0.7481   0.6772   0.3455     H
H       0.7496   0.0679   0.3977     H
H       0.7504   0.6481   0.8183     H
H       0.7519   0.5974   0.4291     H
C       0.7525    0.587   0.9679     C
C       0.7541   0.6866   0.8291     C
C       0.7552   0.6021   0.4663     C
C       0.7588   0.2707   0.3345     C
H       0.7601   0.3602   0.3095     H
Tb    0.762342 0.079039 0.991467    Tb
C       0.7624   0.6114    0.576     C
H       0.7639   0.8949   0.3518     H
H       0.7647   0.9879   0.9032     H
O       0.7661   0.9913   0.9358     O
C        0.767   0.5414    0.089     C
C       0.7673   0.7973    0.872     C
N       0.7685   0.9389    0.822     N
O       0.7686   0.1661   0.9873     O
C       0.7698   0.6221   0.6367     C
C       0.7703   0.5516   0.0441     C
H       0.7706   0.1646   0.9564     H
C       0.7707   0.8345   0.7588     C
Tb    0.770875 0.008533 0.087572    Tb
N       0.7716   0.6757   0.6693     N
C       0.7718   0.8581   0.8995     C
C       0.7738   0.7813   0.7297     C
H       0.7739    0.481   0.6323     H
C       0.7744    0.822    0.233     C
H       0.7746   0.1791   0.3827     H
O       0.7748   0.9445   0.0087     O
C       0.7749   0.4783    0.597     C
C       0.7753    0.475   0.4969     C
H       0.7768   0.9153   0.0121     H
C       0.7774   0.9472   0.4502     C
H        0.778   0.4779   0.4641     H
C       0.7784   0.9781   0.5031     C
O       0.7791   0.1639   0.6356     O
C       0.7804   0.2162   0.3848     C
H       0.7812   0.9814   0.1782     H
O       0.7813   0.0127   0.1788     O
C       0.7813   0.7738   0.2297     C
H       0.7831   0.5824   0.9613     H
C       0.7838   0.0642   0.6686     C
C       0.7846   0.0321   0.6191     C
C       0.7889   0.1358   0.5337     C
O       0.7915   0.1482   0.0881     O
H       0.7918    0.606   0.3354     H
C        0.792    0.818    0.374     C
C       0.7925   0.1182   0.4841     C
O       0.7926   0.2926   0.7926     O
H       0.7929    0.519   0.1513     H
H       0.7964   0.8919   0.1173     H
O       0.7966   0.3567   0.7085     O
C       0.7966   0.5217   0.1187     C
C       0.7973   0.7673    0.372     C
O       0.7977   0.1051   0.1438     O
H       0.7993   0.6782   0.2169     H
H       0.7998   0.1968   0.0186     H
H       0.8001   0.5221   0.9862     H
C       0.8003    0.525   0.0219     C
C       0.8025   0.3267   0.3882     C
H       0.8032    0.103   0.3218     H
C       0.8045   0.1501   0.1384     C
O       0.8074   0.2023   0.8461     O
H       0.8074   0.6237   0.6603     H
C       0.8084   0.6341   0.5159     C
H       0.8095   0.8602   0.2601     H
H       0.8107   0.3641     0.39     H
H       0.8107   0.4409    0.823     H
H       0.8125   0.9621   0.4474     H
C       0.8134   0.6425   0.5675     C
C       0.8136   0.7376    0.849     C
H       0.8139   0.0138   0.5359     H
H       0.8142   0.0436   0.2082     H
O       0.8155   0.4121   0.8244     O
H       0.8163   0.3529   0.1926     H
Tb    0.816697 0.237658 0.729125    Tb
C        0.818    0.792    0.874     C
H       0.8181   0.4125   0.8564     H
H       0.8183   0.2504   0.1481     H
H       0.8209   0.0955   0.7036     H
O       0.8212   0.6025   0.3339     O
H       0.8218   0.0387   0.6211     H
H       0.8218    0.603   0.3032     H
N        0.822   0.2685   0.4389     N
C        0.822   0.7744    0.733     C
C       0.8221   0.7251   0.7034     C
C       0.8226   0.9394   0.8334     C
H       0.8228   0.1683   0.5709     H
H        0.823   0.3107   0.9409     H
O       0.8236   0.9046   0.9338     O
N       0.8243   0.4936   0.5959     N
O       0.8244   0.3155   0.9121     O
C       0.8257   0.2075   0.1916     C
C       0.8267   0.8882   0.8025     C
C       0.8272    0.497   0.5498     C
H       0.8273   0.8556   0.3931     H
C       0.8291   0.2541   0.1866     C
H       0.8292   0.3292   0.8292     H
N       0.8296   0.8831   0.0611     N
H       0.8298   0.4321   0.6817     H
C       0.8302    0.503   0.0528     C
O       0.8303   0.0642   0.0555     O
N       0.8307   0.5064   0.1023     N
C       0.8314   0.8956   0.1152     C
H       0.8317   0.1545   0.9026     H
C       0.8334   0.3226   0.4394     C
O       0.8339   0.1025   0.3212     O
C       0.8339   0.3456   0.6955     C
C       0.8345   0.7154   0.2475     C
C       0.8345   0.7707   0.2588     C
H       0.8354    0.106   0.2918     H
O       0.8361   0.1152   0.9717     O
H       0.8397   0.4634   0.1471     H
H       0.8455   0.1772   0.2481     H
C       0.8456   0.1955   0.8339     C
O       0.8461   0.3074   0.7023     O
C       0.8469   0.2111   0.2448     C
H       0.8487   0.6416   0.8677     H
C        0.849   0.3136   0.2376     C
C       0.8499   0.1544   0.4883     C
H       0.8504   0.4853   0.0379     H
O       0.8518   0.1433   0.4399     O
H       0.8518   0.3949   0.2639     H
Tb     0.85188      1.0      1.0    Tb
H       0.8519   0.6702   0.6023     H
C       0.8523   0.3669   0.2302     C
H       0.8529   0.6926   0.8163     H
H       0.8556   0.8273   0.8931     H
O       0.8562   0.6539   0.4613     O
H       0.8564   0.3181   0.9125     H
O       0.8565   0.7209   0.3848     O
O       0.8567   0.2085   0.7966     O
C       0.8575    0.425   0.6709     C
C       0.8581   0.7718   0.3995     C
H       0.8584   0.7261   0.7071     H
H       0.8589    0.976   0.8633     H
H       0.8602   0.8095   0.7601     H
H       0.8615   0.0968   0.0847     H
C       0.8616   0.6661   0.5117     C
H       0.8633   0.3589    0.476     H
C       0.8633   0.4854   0.1331     C
H       0.8641     0.89   0.8107     H
C       0.8642   0.1531   0.8979     C
O       0.8644   0.0283   0.1435     O
H       0.8651   0.5147   0.5526     H
C       0.8659   0.3818   0.6743     C
C       0.8669   0.7302   0.8523     C
H       0.8677   0.3487   0.1416     H
H        0.869   0.4569   0.1051     H
H       0.8698   0.5591   0.3821     H
C        0.872   0.2673   0.2973     C
C       0.8723   0.1005   0.9586     C
C        0.874    0.318    0.292     C
H       0.8763   0.5366   0.6837     H
C       0.8779   0.5146   0.6477     C
H       0.8789   0.9176   0.2007     H
C       0.8809    0.913   0.1655     C
C       0.8813   0.6779    0.903     C
C       0.8818   0.1743   0.8659     C
H       0.8821   0.0591   0.3698     H
H       0.8827   0.6791   0.2746     H
H       0.8829   0.8873    0.024     H
N       0.8831   0.8296   0.5611     N
C       0.8832    0.894   0.0606     C
O       0.8848   0.2209   0.3565     O
C       0.8848   0.7162   0.2804     C
H       0.8873   0.8829    0.524     H
C       0.8882   0.8267   0.3025     C
C       0.8886   0.4646    0.651     C
O       0.8898   0.0662   0.9708     O
H         0.89   0.8641   0.3107     H
H       0.8919   0.7964   0.6173     H
H       0.8931   0.3556   0.3273     H
H        0.894   0.2294   0.6858     H
C        0.894   0.8832   0.5606     C
O       0.8949   0.1926   0.5387     O
H       0.8949   0.7639   0.8518     H
C       0.8953    0.128   0.9253     C
C       0.8956   0.8314   0.6152     C
H        0.897   0.2002   0.7188     H
O       0.8975   0.2314   0.7187     O
H       0.8977   0.5679   0.2496     H
N       0.8977   0.7284   0.9041     N
C       0.8979   0.3642   0.6531     C
C       0.8995   0.2718   0.3581     C
H       0.8999   0.6398   0.9493     H
H       0.9026   0.3317   0.6545     H
C        0.903   0.3813   0.1779     C
H       0.9032   0.2647   0.4879     H
O       0.9034   0.5879   0.4123     O
N       0.9041   0.3977   0.2284     N
H       0.9045   0.2254   0.1081     H
O       0.9046   0.8236   0.4338     O
H       0.9056   0.5875   0.4439     H
C        0.911    0.678   0.9524     C
O       0.9119   0.7034   0.5601     O
O       0.9121   0.3244   0.8155     O
H       0.9121   0.5431   0.6482     H
O       0.9123   0.0879   0.4034     O
Tb    0.912428 0.683303 0.420961    Tb
H       0.9125   0.3564   0.8181     H
C        0.913   0.8809   0.6655     C
C       0.9137   0.0414   0.1419     C
C       0.9143   0.9385   0.6118     C
H       0.9153   0.7768   0.5121     H
H       0.9176   0.8789   0.7007     H
C        0.918    0.444    0.626     C
O        0.919   0.0292   0.0954     O
H       0.9207   0.9741     0.61     H
Tb    0.920961 0.183303 0.412428    Tb
C        0.924   0.5354   0.1864     C
C       0.9243   0.9362   0.6655     C
C        0.925   0.1709   0.8575     C
C       0.9253   0.3953    0.628     C
H       0.9277   0.9662   0.9709     H
H       0.9291   0.0974   0.2519     H
H       0.9321   0.1817   0.8298     H
C       0.9325    0.575   0.2459     C
O       0.9338   0.3236   0.4046     O
H       0.9342   0.4625   0.6069     H
C       0.9358   0.2196   0.1044     C
O       0.9358   0.2661   0.4913     O
C       0.9362   0.9243   0.1655     C
O        0.937      1.0      1.0     O
C       0.9385   0.9143   0.1118     C
N       0.9389   0.7685    0.322     N
C       0.9394   0.8226   0.3334     C
O       0.9399   0.6433   0.3518     O
H       0.9409    0.323   0.8107     H
H       0.9439   0.0875   0.4056     H
C        0.944    0.126    0.918     C
O       0.9445   0.7748   0.5087     O
N       0.9465    0.178   0.1169     N
H       0.9466   0.6359   0.0259     H
C       0.9472   0.7774   0.9502     C
H       0.9474   0.4621   0.3125     H
C       0.9484   0.9925   0.7187     C
H       0.9493   0.3999   0.1398     H
C       0.9502   0.4472   0.2774     C
H       0.9506   0.0507   0.6905     H
C       0.9524    0.411    0.178     C
C       0.9559   0.7262   0.0075     C
H       0.9564   0.2706   0.6646     H
H       0.9568   0.0291   0.9953     H
H       0.9569   0.6051    0.869     H
C       0.9586   0.0476   0.7256     C
C       0.9586   0.3723   0.6005     C
O       0.9613   0.1539   0.3562     O
H       0.9613   0.2831   0.0824     H
H       0.9615   0.0047   0.0338     H
H       0.9617   0.1436   0.5561     H
H       0.9621   0.8125   0.9474     H
H       0.9625   0.1069   0.9342     H
H       0.9634   0.6471   0.8397     H
H       0.9641   0.9779    0.278     H
C       0.9646    0.151   0.8886     C
H       0.9662   0.9277   0.4709     H
C       0.9663   0.1021   0.2552     C
C       0.9679   0.2525    0.087     C
C         0.97   0.0747   0.2027     C
O       0.9708   0.3898   0.5662     O
H       0.9709   0.4277   0.4662     H
O       0.9717   0.3361   0.6152     O
H       0.9717   0.5375   0.1444     H
C        0.974    0.556    0.182     C
H       0.9741   0.9207     0.11     H
C        0.975   0.9969   0.7753     C
C       0.9758   0.6733   0.0615     C
H        0.976   0.8589   0.3633     H
H       0.9779   0.9641    0.778     H
C       0.9781   0.7784   0.0031     C
C       0.9783    0.097   0.7749     C
H        0.981   0.1323   0.7739     H
H       0.9814   0.7812   0.6782     H
C       0.9841   0.6182   0.2925     C
H       0.9853   0.5379   0.8504     H
C       0.9854   0.6331   0.8633     C
H       0.9862   0.3001   0.0221     H
O       0.9873   0.2686   0.6661     O
H       0.9877    0.177   0.6179     H
H       0.9879   0.7647   0.4032     H
C       0.9881   0.7293   0.0638     C
C       0.9883   0.6544   0.3499     C
C       0.9892   0.1666    0.106     C
O       0.9911   0.1756   0.5877     O
O       0.9913   0.7661   0.4358     O
Tb    0.991467 0.262342 0.579039    Tb
C       0.9925   0.9484   0.2187     C
N       0.9936   0.0959   0.8243     N
H       0.9953   0.4568   0.5291     H
H       0.9956   0.1367   0.1127     H
C       0.9969    0.975   0.2753     C
C        0.997   0.0498   0.8272     C
Tb         1.0  0.35188      0.5    Tb
O          1.0    0.437      0.5     O
H          1.0   0.6708      0.5     H
O          1.0   0.7074      0.5     O
Tb         1.0  0.85188      0.5    Tb
