data_I
_chemical_name_common  '/home/zhangsd/repos/MofS-CGCNN/ML/data/WS24/clean_cifs/GUWDUY'
_cell_length_a 13.44700
_cell_length_b 13.71500
_cell_length_c 14.30100
_cell_angle_alpha 79.48000
_cell_angle_beta  63.90000
_cell_angle_gamma 65.68000
_space_group_name_H-M_alt      'P 1'


loop_
_space_group_symop_operation_xyz
  'x, y, z' 

loop_
_atom_site_label
_atom_site_fract_x
_atom_site_fract_y
_atom_site_fract_z
_atom_site_type_symbol
H       0.0207   0.1239   0.8715     H
H        0.029   0.4138   0.3649     H
C       0.0556   0.4507   0.4802     C
C       0.0593   0.0032   0.4826     C
C       0.0626   0.9951   0.9637     C
H       0.0767   0.9647   0.6191     H
C       0.0822   0.3925   0.3982     C
C       0.0851   0.0663   0.8819     C
H       0.0903   0.0385   0.3308     H
C       0.1141   0.9843   0.5488     C
C       0.1219   0.0274   0.3814     C
H       0.1251   0.4524   0.5805     H
C       0.1382   0.4147    0.524     C
H       0.1522   0.8656   0.0306     H
C       0.1621   0.9147   0.9742     C
C       0.1861   0.3031    0.364     C
C       0.2015   0.0531   0.8156     C
H        0.202    0.265   0.3067     H
H        0.214   0.1043   0.7616     H
C       0.2238   0.9935    0.514     C
C         0.23   0.0355   0.3534     C
C       0.2391   0.3242   0.4857     C
H       0.2598   0.9788   0.5618     H
N       0.2663   0.2663   0.4065     N
H       0.2705   0.0521   0.2828     H
C       0.2753    0.906   0.9029     C
N       0.2816   0.0219   0.4171     N
H       0.2935   0.3014   0.5181     H
N        0.298    0.973   0.8222     N
H       0.3414    0.849   0.9113     H
H       0.3618   0.5024   0.0865     H
N       0.3636   0.5925   0.9616     N
C       0.3734   0.5004   0.0163     C
H       0.3746   0.6484   0.8224     H
Cl     0.37762  0.09439  0.57166    Cl
C       0.3787   0.5857   0.8642     C
C       0.3988   0.4035   0.9784     C
C       0.3999   0.4937   0.8196     C
H       0.4062   0.4954   0.7506     H
H       0.4071   0.3413    0.021     H
C       0.4121   0.3978    0.877     C
H       0.4211   0.2045   0.9617     H
Cl     0.42544  0.15895  0.16576    Cl
Cl      0.4277  0.78323  0.64303    Cl
C       0.4351   0.2047   0.8905     C
C       0.4376   0.2968   0.8312     C
H       0.4472   0.0536   0.8916     H
C       0.4528   0.1138   0.8476     C
C       0.4627   0.2886   0.7268     C
H       0.4661   0.3486    0.682     H
La     0.47581  0.08046  0.34187    La
N       0.4775   0.1054   0.7463     N
C       0.4828   0.1944   0.6877     C
H       0.4987   0.8084   0.3842     H
H       0.5013   0.1916   0.6158     H
C       0.5172   0.8056   0.3123     C
N       0.5225   0.8946   0.2537     N
La     0.52419  0.91954  0.65813    La
H       0.5339   0.6514    0.318     H
C       0.5373   0.7114   0.2732     C
C       0.5472   0.8862   0.1524     C
H       0.5528   0.9464   0.1084     H
C       0.5624   0.7032   0.1688     C
C       0.5649   0.7953   0.1095     C
Cl      0.5723  0.21677  0.35697    Cl
Cl     0.57456  0.84105  0.83424    Cl
H       0.5789   0.7955   0.0383     H
C       0.5879   0.6022    0.123     C
H       0.5929   0.6587    0.979     H
H       0.5938   0.5046   0.2494     H
C       0.6001   0.5063   0.1804     C
C       0.6012   0.5965   0.0216     C
C       0.6213   0.4143   0.1358     C
Cl     0.62238  0.90561  0.42834    Cl
H       0.6254   0.3516   0.1776     H
C       0.6266   0.4996   0.9837     C
N       0.6364   0.4075   0.0384     N
H       0.6382   0.4976   0.9135     H
H       0.6586    0.151   0.0887     H
N        0.702    0.027   0.1778     N
H       0.7065   0.6986   0.4819     H
N       0.7184   0.9781   0.5829     N
C       0.7247    0.094   0.0971     C
H       0.7295   0.9479   0.7172     H
N       0.7337   0.7337   0.5935     N
H       0.7402   0.0212   0.4382     H
C       0.7609   0.6758   0.5143     C
C         0.77   0.9645   0.6466     C
C       0.7762   0.0065    0.486     C
H        0.786   0.8957   0.2384     H
H        0.798    0.735   0.6933     H
C       0.7985   0.9469   0.1844     C
C       0.8139   0.6969    0.636     C
C       0.8379   0.0853   0.0258     C
H       0.8478   0.1344   0.9694     H
C       0.8618   0.5853    0.476     C
H       0.8749   0.5476   0.4195     H
C       0.8781   0.9726   0.6186     C
C       0.8859   0.0157   0.4512     C
H       0.9097   0.9615   0.6692     H
C       0.9149   0.9337   0.1181     C
C       0.9178   0.6075   0.6018     C
H       0.9233   0.0353   0.3809     H
C       0.9374   0.0049   0.0363     C
C       0.9407   0.9968   0.5174     C
C       0.9444   0.5493   0.5198     C
H        0.971   0.5862   0.6351     H
H       0.9793   0.8761   0.1285     H
