data_I
_chemical_name_common  '/home/zhangsd/repos/MofS-CGCNN/ML/data/WS24/clean_cifs/HIFVUO01'
_cell_length_a 14.57550
_cell_length_b 14.57550
_cell_length_c 14.57550
_cell_angle_alpha 109.47100
_cell_angle_beta  109.47100
_cell_angle_gamma 109.47100
_space_group_name_H-M_alt      'P 1'


loop_
_space_group_symop_operation_xyz
  'x, y, z' 

loop_
_atom_site_label
_atom_site_fract_x
_atom_site_fract_y
_atom_site_fract_z
_atom_site_type_symbol
C          0.0  0.37502  0.61658     C
H          0.0   0.4441   0.6409     H
C          0.0  0.61658  0.37502     C
H          0.0   0.6409   0.4441     H
C       0.0557    0.265   0.5729     C
C       0.0557   0.5729    0.265     C
N      0.09319  0.37402  0.64633     N
N      0.09319  0.64633  0.37402     N
H        0.102   0.2341   0.5633     H
H        0.102   0.5633   0.2341     H
H       0.1321   0.4613    0.898     H
H       0.1321    0.898   0.4613     H
H       0.1968   0.5559   0.5559     H
C       0.2093   0.5172   0.9443     C
C       0.2093   0.9443   0.5172     C
H       0.2341    0.102   0.5633     H
H       0.2341   0.5633    0.102     H
C      0.24156  0.62498  0.62498     C
Zn        0.25      0.5     0.75    Zn
Zn        0.25     0.75      0.5    Zn
C        0.265   0.0557   0.5729     C
C        0.265   0.5729   0.0557     C
N      0.27231  0.62598  0.71917     N
N      0.27231  0.71917  0.62598     N
N      0.28083  0.55314  0.90681     N
N      0.28083  0.90681  0.55314     N
C       0.3079    0.735   0.7907     C
C       0.3079   0.7907    0.735     C
H       0.3292   0.7659   0.8679     H
H       0.3292   0.8679   0.7659     H
N      0.35367  0.44686  0.72769     N
N      0.35367  0.72769  0.44686     N
H       0.3591   0.3591   0.8032     H
H       0.3591   0.8032   0.3591     H
N      0.37402  0.09319  0.64633     N
N      0.37402  0.64633  0.09319     N
C      0.37502     -0.0  0.61658     C
C      0.37502  0.61658      0.0     C
C      0.38342  0.38342  0.75844     C
C      0.38342  0.75844  0.38342     C
C       0.4271   0.4828   0.6921     C
C       0.4271   0.6921   0.4828     C
H       0.4367   0.5387   0.6708     H
H       0.4367   0.6708   0.5387     H
H       0.4441     -0.0   0.6409     H
H       0.4441   0.6409      0.0     H
N      0.44686  0.35367  0.72769     N
N      0.44686  0.72769  0.35367     N
H       0.4613   0.1321    0.898     H
H       0.4613    0.898   0.1321     H
C       0.4828   0.4271   0.6921     C
C       0.4828   0.6921   0.4271     C
Zn         0.5     0.25     0.75    Zn
Zn         0.5     0.75     0.25    Zn
C       0.5172   0.2093   0.9443     C
C       0.5172   0.9443   0.2093     C
H       0.5387   0.4367   0.6708     H
H       0.5387   0.6708   0.4367     H
N      0.55314  0.28083  0.90681     N
N      0.55314  0.90681  0.28083     N
H       0.5559   0.1968   0.5559     H
H       0.5559   0.5559   0.1968     H
H       0.5633    0.102   0.2341     H
H       0.5633   0.2341    0.102     H
C       0.5729   0.0557    0.265     C
C       0.5729    0.265   0.0557     C
C      0.61658     -0.0  0.37502     C
C      0.61658  0.37502      0.0     C
C      0.62498  0.24156  0.62498     C
C      0.62498  0.62498  0.24156     C
N      0.62598  0.27231  0.71917     N
N      0.62598  0.71917  0.27231     N
H       0.6409     -0.0   0.4441     H
H       0.6409   0.4441      0.0     H
N      0.64633  0.09319  0.37402     N
N      0.64633  0.37402  0.09319     N
H       0.6708   0.4367   0.5387     H
H       0.6708   0.5387   0.4367     H
C       0.6921   0.4271   0.4828     C
C       0.6921   0.4828   0.4271     C
N      0.71917  0.27231  0.62598     N
N      0.71917  0.62598  0.27231     N
N      0.72769  0.35367  0.44686     N
N      0.72769  0.44686  0.35367     N
C        0.735   0.3079   0.7907     C
C        0.735   0.7907   0.3079     C
Zn        0.75     0.25      0.5    Zn
Zn        0.75      0.5     0.25    Zn
C      0.75844  0.38342  0.38342     C
H       0.7659   0.3292   0.8679     H
H       0.7659   0.8679   0.3292     H
C       0.7907   0.3079    0.735     C
C       0.7907    0.735   0.3079     C
H       0.8032   0.3591   0.3591     H
H       0.8679   0.3292   0.7659     H
H       0.8679   0.7659   0.3292     H
H        0.898   0.1321   0.4613     H
H        0.898   0.4613   0.1321     H
N      0.90681  0.28083  0.55314     N
N      0.90681  0.55314  0.28083     N
C       0.9443   0.2093   0.5172     C
C       0.9443   0.5172   0.2093     C
