data_I
_chemical_name_common  '/home/zhangsd/repos/MofS-CGCNN/ML/data/WS24/clean_cifs/HIQKID'
_cell_length_a 10.66360
_cell_length_b 13.32530
_cell_length_c 20.08590
_cell_angle_alpha 90.00000
_cell_angle_beta  90.00000
_cell_angle_gamma 90.00000
_space_group_name_H-M_alt      'P 1'


loop_
_space_group_symop_operation_xyz
  'x, y, z' 

loop_
_atom_site_label
_atom_site_fract_x
_atom_site_fract_y
_atom_site_fract_z
_atom_site_type_symbol
U          0.0      0.0  0.36221     U
U          0.0      0.0  0.63779     U
O       0.0095   0.1146    0.446     O
O       0.0095   0.1146    0.554     O
C        0.011    0.356   0.0235     C
C        0.011    0.356   0.9765     C
O       0.0136   0.1594    0.423     O
O       0.0136   0.1594    0.577     O
C       0.0328    0.357      0.5     C
C       0.0486    0.469      0.5     C
O        0.075   0.6784      0.5     O
O       0.0881   0.6154      0.0     O
O       0.1136   0.3589      0.0     O
H       0.1292   0.4957      0.5     H
O       0.1327   0.3075      0.5     O
O       0.1371   0.8734   0.3158     O
O       0.1371   0.8734   0.6842     O
O        0.146    0.991   0.4438     O
O        0.146    0.991   0.5562     O
H        0.151   0.7863   0.2094     H
H        0.151   0.7863   0.7906     H
O       0.1576   0.1083    0.316     O
O       0.1576   0.1083    0.684     O
U      0.16268  0.84711      0.5     U
H       0.1802   0.1919   0.2087     H
H       0.1802   0.1919   0.7913     H
U      0.18772  0.13263      0.5     U
O       0.2023   0.9878   0.4292     O
O       0.2023   0.9878   0.5708     O
C       0.2026   0.8008   0.3351     C
C       0.2026   0.8008   0.6649     C
C        0.215   0.7415   0.2197     C
C        0.215   0.7415   0.7803     C
C       0.2313   0.1767   0.3348     C
C       0.2313   0.1767   0.6652     C
O        0.232   0.7792   0.3939     O
O        0.232   0.7792   0.6061     O
O       0.2332   0.6947   0.1064     O
O       0.2332   0.6947   0.8936     O
C       0.2442   0.2367    0.219     C
C       0.2442   0.2367    0.781     C
C       0.2558   0.7367    0.281     C
C       0.2558   0.7367    0.719     C
O       0.2668   0.1947   0.3936     O
O       0.2668   0.1947   0.6064     O
O        0.268   0.2792   0.1061     O
O        0.268   0.2792   0.8939     O
C       0.2687   0.6767   0.1652     C
C       0.2687   0.6767   0.8348     C
C        0.285   0.2415   0.2803     C
C        0.285   0.2415   0.7197     C
C       0.2974   0.3008   0.1649     C
C       0.2974   0.3008   0.8351     C
O       0.2977   0.4878   0.0708     O
O       0.2977   0.4878   0.9292     O
U      0.31228  0.63263      0.0     U
H       0.3198   0.6919   0.2913     H
H       0.3198   0.6919   0.7087     H
U      0.33732  0.34711      0.0     U
O       0.3424   0.6083    0.184     O
O       0.3424   0.6083    0.816     O
H        0.349   0.2863   0.2906     H
H        0.349   0.2863   0.7094     H
O        0.354    0.491   0.0562     O
O        0.354    0.491   0.9438     O
O       0.3629   0.3734   0.1842     O
O       0.3629   0.3734   0.8158     O
O       0.3673   0.8075      0.0     O
H       0.3708   0.9957      0.0     H
O       0.3864   0.8589      0.5     O
O       0.4119   0.1154      0.5     O
O        0.425   0.1784      0.0     O
C       0.4514    0.969      0.0     C
C       0.4672    0.857      0.0     C
O       0.4864   0.6594    0.077     O
O       0.4864   0.6594    0.923     O
C        0.489    0.856   0.4765     C
C        0.489    0.856   0.5235     C
O       0.4905   0.6146    0.054     O
O       0.4905   0.6146    0.946     O
U          0.5      0.5  0.13779     U
U          0.5      0.5  0.86221     U
O       0.5095   0.3854    0.054     O
O       0.5095   0.3854    0.946     O
C        0.511    0.144   0.4765     C
C        0.511    0.144   0.5235     C
O       0.5136   0.3406    0.077     O
O       0.5136   0.3406    0.923     O
C       0.5328    0.143      0.0     C
C       0.5486    0.031      0.0     C
O        0.575   0.8216      0.0     O
O       0.5881   0.8846      0.5     O
O       0.6136   0.1411      0.5     O
H       0.6292   0.0043      0.0     H
O       0.6327   0.1925      0.0     O
O       0.6371   0.6266   0.1842     O
O       0.6371   0.6266   0.8158     O
O        0.646    0.509   0.0562     O
O        0.646    0.509   0.9438     O
H        0.651   0.7137   0.2906     H
H        0.651   0.7137   0.7094     H
O       0.6576   0.3917    0.184     O
O       0.6576   0.3917    0.816     O
U      0.66268  0.65289      0.0     U
H       0.6802   0.3081   0.2913     H
H       0.6802   0.3081   0.7087     H
U      0.68772  0.36737      0.0     U
O       0.7023   0.5122   0.0708     O
O       0.7023   0.5122   0.9292     O
C       0.7026   0.6992   0.1649     C
C       0.7026   0.6992   0.8351     C
C        0.715   0.7585   0.2803     C
C        0.715   0.7585   0.7197     C
C       0.7313   0.3233   0.1652     C
C       0.7313   0.3233   0.8348     C
O        0.732   0.7208   0.1061     O
O        0.732   0.7208   0.8939     O
O       0.7332   0.8053   0.3936     O
O       0.7332   0.8053   0.6064     O
C       0.7442   0.2633    0.281     C
C       0.7442   0.2633    0.719     C
C       0.7558   0.7633    0.219     C
C       0.7558   0.7633    0.781     C
O       0.7668   0.3053   0.1064     O
O       0.7668   0.3053   0.8936     O
O        0.768   0.2208   0.3939     O
O        0.768   0.2208   0.6061     O
C       0.7687   0.8233   0.3348     C
C       0.7687   0.8233   0.6652     C
C        0.785   0.2585   0.2197     C
C        0.785   0.2585   0.7803     C
C       0.7974   0.1992   0.3351     C
C       0.7974   0.1992   0.6649     C
O       0.7977   0.0122   0.4292     O
O       0.7977   0.0122   0.5708     O
U      0.81228  0.86737      0.5     U
H       0.8198   0.8081   0.2087     H
H       0.8198   0.8081   0.7913     H
U      0.83732  0.15289      0.5     U
O       0.8424   0.8917    0.316     O
O       0.8424   0.8917    0.684     O
H        0.849   0.2137   0.2094     H
H        0.849   0.2137   0.7906     H
O        0.854    0.009   0.4438     O
O        0.854    0.009   0.5562     O
O       0.8629   0.1266   0.3158     O
O       0.8629   0.1266   0.6842     O
O       0.8673   0.6925      0.5     O
H       0.8708   0.5043      0.5     H
O       0.8864   0.6411      0.0     O
O       0.9119   0.3846      0.0     O
O        0.925   0.3216      0.5     O
C       0.9514    0.531      0.5     C
C       0.9672    0.643      0.5     C
O       0.9864   0.8406    0.423     O
O       0.9864   0.8406    0.577     O
C        0.989    0.644   0.0235     C
C        0.989    0.644   0.9765     C
O       0.9905   0.8854    0.446     O
O       0.9905   0.8854    0.554     O
