data_I
_chemical_name_common  '/home/zhangsd/repos/MofS-CGCNN/ML/data/WS24/clean_cifs/HOQMIL04'
_cell_length_a 12.56690
_cell_length_b 12.56690
_cell_length_c 13.54830
_cell_angle_alpha 65.70860
_cell_angle_beta  62.39750
_cell_angle_gamma 93.26660
_space_group_name_H-M_alt      'P 1'


loop_
_space_group_symop_operation_xyz
  'x, y, z' 

loop_
_atom_site_label
_atom_site_fract_x
_atom_site_fract_y
_atom_site_fract_z
_atom_site_type_symbol
H       0.0467   0.6374   0.5527     H
C      0.05077  0.17039   0.9497     C
C      0.05839  0.29057   0.7549     C
C      0.06577  0.51793  0.48382     C
C      0.06743  0.77373   0.1864     C
C      0.07537  0.89265   0.9908     C
H       0.0908   0.1506   0.9968     H
H       0.1033   0.3547   0.6682     H
C      0.10496  0.60192    0.512     C
H       0.1072   0.7543   0.2337     H
C      0.11849  0.26189  0.82204     C
H       0.1213   0.9543    0.903     H
H       0.1324   0.4092   0.4056     H
C      0.13455  0.86603  0.05918     C
C      0.15527  0.46725   0.4258     C
C      0.22794  0.63414   0.4813     C
H       0.2533   0.6907   0.5018     H
C      0.25817  0.32317  0.75444     C
C       0.2689  0.94226  0.99498     C
C      0.27631  0.50119    0.398     C
H       0.3075   0.2449   0.0018     H
H       0.3099   0.4006   0.0527     H
O      0.31058   0.2744  0.81414     O
N      0.31147  0.58559  0.42264     N
O      0.31205  0.41525  0.64458     O
H       0.3148    0.538   0.0944     H
O      0.31717  0.91876  0.06215     O
O      0.32047  0.02396  0.88025     O
H       0.3254   0.6965   0.1391     H
H       0.3356   0.4645   0.3609     H
H       0.3526   0.9124   0.4968     H
H       0.3573   0.0243    0.597     H
C      0.37991  0.99953   0.4497     C
C      0.38345  0.06617   0.5092     C
C      0.38456  0.29076   0.9813     C
C      0.38608  0.38304    0.012     C
C      0.39305  0.58107   0.0742     C
C      0.39919  0.67431    0.102     C
O      0.40421  0.20072  0.61975     O
O      0.41146  0.87528  0.31414     O
C      0.41607  0.05947  0.32204     C
C      0.42239  0.98739  0.25444     C
C      0.42521  0.19373  0.44082     C
O      0.43117  0.62053  0.38916     O
C      0.43724  0.26388  0.50502     C
O      0.44017  0.04337  0.14458     O
Mg     0.44468  0.19468     0.75    Mg
C      0.45453  0.18671   0.2549     C
C      0.46013  0.25383   0.3136     C
H       0.4771   0.2285   0.1682     H
O      0.48091  0.37932  0.43785     O
H        0.488   0.3409   0.2663     H
O      0.49031  0.17967  0.88916     O
N      0.49177  0.26589  0.92264     N
C      0.49825  0.45041  0.98382     C
Mg         0.5     -0.0      0.0    Mg
Mg         0.5      0.5      0.5    Mg
C      0.50175  0.54959  0.01618     C
N      0.50823  0.73411  0.07736     N
O      0.50969  0.82033  0.11084     O
H        0.512   0.6591   0.7337     H
O      0.51909  0.62068  0.56215     O
H       0.5229   0.7715   0.8318     H
C      0.53987  0.74617   0.6864     C
C      0.54547  0.81329   0.7451     C
Mg     0.55532  0.80532     0.25    Mg
O      0.55983  0.95663  0.85542     O
C      0.56276  0.73612  0.49498     C
O      0.56883  0.37947  0.61084     O
C      0.57479  0.80627  0.55918     C
C      0.57761  0.01261  0.74556     C
C      0.58393  0.94053  0.67796     C
O      0.58854  0.12472  0.68586     O
O      0.59579  0.79928  0.38025     O
C      0.60081  0.32569    0.898     C
C      0.60695  0.41893   0.9258     C
C      0.61392  0.61696    0.988     C
C      0.61544  0.70924   0.0187     C
C      0.61655  0.93383   0.4908     C
C      0.62009  0.00047   0.5503     C
H       0.6427   0.9757    0.403     H
H       0.6474   0.0876   0.5032     H
H       0.6644   0.5355   0.6391     H
H       0.6746   0.3035   0.8609     H
O      0.67953  0.97604  0.11975     O
O      0.68283  0.08124  0.93785     O
H       0.6852    0.462   0.9056     H
O      0.68795  0.58475  0.35542     O
N      0.68853  0.41441  0.57736     N
O      0.68942   0.7256  0.18586     O
H       0.6901   0.5994   0.9473     H
H       0.6925   0.7551   0.9982     H
C      0.72369  0.49881    0.602     C
C       0.7311  0.05774  0.00502     C
C      0.74183  0.67683  0.24556     C
H       0.7467   0.3093   0.4982     H
C      0.77206  0.36586   0.5187     C
C      0.84473  0.53275   0.5742     C
C      0.86545  0.13397  0.94082     C
H       0.8676   0.5908   0.5944     H
H       0.8787   0.0457    0.097     H
C      0.88151  0.73811  0.17796     C
H       0.8928   0.2457   0.7663     H
C      0.89504  0.39808    0.488     C
H       0.8967   0.6453   0.3318     H
H       0.9092   0.8494   0.0032     H
C      0.92463  0.10735   0.0092     C
C      0.93257  0.22627   0.8136     C
C      0.93423  0.48207  0.51618     C
C      0.94161  0.70943   0.2451     C
C      0.94923  0.82961   0.0503     C
H       0.9533   0.3626   0.4473     H
